MODEL 1
REMARK VINA RESULT:     0.000      0.000      0.000
REMARK INTER + INTRA:          -0.256
REMARK INTER:                   0.000
REMARK INTRA:                  -0.256
REMARK UNBOUND:                -0.256
REMARK  Name = Nicotine.pdb
REMARK  2 active torsions:
REMARK  status: ('A' for Active; 'I' for Inactive)
REMARK    1  A    between atoms: C_3  and  C_6
REMARK    2  A    between atoms: N_4  and  C_12
REMARK                            x       y       z     vdW  Elec       q    Type
REMARK                         _______ _______ _______ _____ _____    ______ ____
ROOT
ATOM      1  C   UNL     1       4.668  -0.614   5.768  0.00  0.00    +0.017 C 
ATOM      2  C   UNL     1       5.379  -1.137   4.493  0.00  0.00    +0.025 C 
ATOM      3  C   UNL     1       5.530   0.135   3.632  0.00  0.00    +0.088 C 
ATOM      4  N   UNL     1       4.515   1.098   4.095  0.00  0.00    -0.298 NA
ATOM      5  C   UNL     1       3.731   0.471   5.180  0.00  0.00    +0.085 C 
ATOM      6  C   UNL     1       5.141   2.346   4.549  0.00  0.00    +0.105 C 
ENDROOT
BRANCH   3   7
ATOM      7  C   UNL     1       5.299  -0.198   2.180  0.00  0.00    -0.012 A 
ATOM      8  C   UNL     1       5.792   0.627   1.187  0.00  0.00    +0.115 A 
ATOM      9  N   UNL     1       5.594   0.343  -0.086  0.00  0.00    -0.263 NA
ATOM     10  C   UNL     1       4.924  -0.729  -0.461  0.00  0.00    +0.111 A 
ATOM     11  C   UNL     1       4.402  -1.601   0.477  0.00  0.00    +0.020 A 
ATOM     12  C   UNL     1       4.594  -1.338   1.824  0.00  0.00    +0.008 A 
ENDBRANCH   3   7
TORSDOF 1
ENDMDL
MODEL 2
REMARK VINA RESULT:     0.000      4.198      4.971
REMARK INTER + INTRA:          -0.256
REMARK INTER:                   0.000
REMARK INTRA:                  -0.256
REMARK UNBOUND:                -0.256
REMARK  Name = Nicotine.pdb
REMARK  2 active torsions:
REMARK  status: ('A' for Active; 'I' for Inactive)
REMARK    1  A    between atoms: C_3  and  C_6
REMARK    2  A    between atoms: N_4  and  C_12
REMARK                            x       y       z     vdW  Elec       q    Type
REMARK                         _______ _______ _______ _____ _____    ______ ____
ROOT
ATOM      1  C   UNL     1       4.920   3.216   3.704  0.00  0.00    +0.017 C 
ATOM      2  C   UNL     1       5.033   2.900   2.189  0.00  0.00    +0.025 C 
ATOM      3  C   UNL     1       5.201   4.298   1.555  0.00  0.00    +0.088 C 
ATOM      4  N   UNL     1       4.654   5.279   2.509  0.00  0.00    -0.298 NA
ATOM      5  C   UNL     1       4.135   4.552   3.687  0.00  0.00    +0.085 C 
ATOM      6  C   UNL     1       5.676   6.258   2.902  0.00  0.00    +0.105 C 
ENDROOT
BRANCH   3   7
ATOM      7  C   UNL     1       4.441   4.366   0.255  0.00  0.00    -0.012 A 
ATOM      8  C   UNL     1       4.771   5.309  -0.699  0.00  0.00    +0.115 A 
ATOM      9  N   UNL     1       4.111   5.376  -1.839  0.00  0.00    -0.263 NA
ATOM     10  C   UNL     1       3.118   4.553  -2.113  0.00  0.00    +0.111 A 
ATOM     11  C   UNL     1       2.731   3.583  -1.208  0.00  0.00    +0.020 A 
ATOM     12  C   UNL     1       3.405   3.480  -0.001  0.00  0.00    +0.008 A 
ENDBRANCH   3   7
TORSDOF 1
ENDMDL
MODEL 3
REMARK VINA RESULT:     0.000      7.977      9.829
REMARK INTER + INTRA:          -0.256
REMARK INTER:                   0.000
REMARK INTRA:                  -0.256
REMARK UNBOUND:                -0.256
REMARK  Name = Nicotine.pdb
REMARK  2 active torsions:
REMARK  status: ('A' for Active; 'I' for Inactive)
REMARK    1  A    between atoms: C_3  and  C_6
REMARK    2  A    between atoms: N_4  and  C_12
REMARK                            x       y       z     vdW  Elec       q    Type
REMARK                         _______ _______ _______ _____ _____    ______ ____
ROOT
ATOM      1  C   UNL     1      -0.931   4.045  -5.276  0.00  0.00    +0.017 C 
ATOM      2  C   UNL     1      -0.651   4.815  -3.959  0.00  0.00    +0.025 C 
ATOM      3  C   UNL     1      -0.316   3.686  -2.961  0.00  0.00    +0.088 C 
ATOM      4  N   UNL     1      -0.913   2.446  -3.488  0.00  0.00    -0.298 NA
ATOM      5  C   UNL     1      -1.620   2.762  -4.747  0.00  0.00    +0.085 C 
ATOM      6  C   UNL     1       0.113   1.417  -3.703  0.00  0.00    +0.105 C 
ENDROOT
BRANCH   3   7
ATOM      7  C   UNL     1      -0.902   4.005  -1.610  0.00  0.00    -0.012 A 
ATOM      8  C   UNL     1      -0.395   3.411  -0.470  0.00  0.00    +0.115 A 
ATOM      9  N   UNL     1      -0.902   3.684   0.716  0.00  0.00    -0.263 NA
ATOM     10  C   UNL     1      -1.904   4.528   0.864  0.00  0.00    +0.111 A 
ATOM     11  C   UNL     1      -2.462   5.162  -0.231  0.00  0.00    +0.020 A 
ATOM     12  C   UNL     1      -1.952   4.903  -1.494  0.00  0.00    +0.008 A 
ENDBRANCH   3   7
TORSDOF 1
ENDMDL
MODEL 4
REMARK VINA RESULT:     0.000      5.008      6.511
REMARK INTER + INTRA:          -0.256
REMARK INTER:                   0.000
REMARK INTRA:                  -0.256
REMARK UNBOUND:                -0.256
REMARK  Name = Nicotine.pdb
REMARK  2 active torsions:
REMARK  status: ('A' for Active; 'I' for Inactive)
REMARK    1  A    between atoms: C_3  and  C_6
REMARK    2  A    between atoms: N_4  and  C_12
REMARK                            x       y       z     vdW  Elec       q    Type
REMARK                         _______ _______ _______ _____ _____    ______ ____
ROOT
ATOM      1  C   UNL     1       9.994   5.147   2.355  0.00  0.00    +0.017 C 
ATOM      2  C   UNL     1       8.741   5.684   3.095  0.00  0.00    +0.025 C 
ATOM      3  C   UNL     1       8.496   4.617   4.183  0.00  0.00    +0.088 C 
ATOM      4  N   UNL     1       9.144   3.374   3.728  0.00  0.00    -0.298 NA
ATOM      5  C   UNL     1       9.754   3.617   2.403  0.00  0.00    +0.085 C 
ATOM      6  C   UNL     1      10.151   2.920   4.696  0.00  0.00    +0.105 C 
ENDROOT
BRANCH   3   7
ATOM      7  C   UNL     1       7.016   4.392   4.355  0.00  0.00    -0.012 A 
ATOM      8  C   UNL     1       6.525   3.841   5.524  0.00  0.00    +0.115 A 
ATOM      9  N   UNL     1       5.231   3.641   5.684  0.00  0.00    -0.263 NA
ATOM     10  C   UNL     1       4.360   3.953   4.744  0.00  0.00    +0.111 A 
ATOM     11  C   UNL     1       4.778   4.508   3.549  0.00  0.00    +0.020 A 
ATOM     12  C   UNL     1       6.130   4.738   3.347  0.00  0.00    +0.008 A 
ENDBRANCH   3   7
TORSDOF 1
ENDMDL
MODEL 5
REMARK VINA RESULT:     0.000      6.207      8.743
REMARK INTER + INTRA:          -0.256
REMARK INTER:                   0.000
REMARK INTRA:                  -0.256
REMARK UNBOUND:                -0.256
REMARK  Name = Nicotine.pdb
REMARK  2 active torsions:
REMARK  status: ('A' for Active; 'I' for Inactive)
REMARK    1  A    between atoms: C_3  and  C_6
REMARK    2  A    between atoms: N_4  and  C_12
REMARK                            x       y       z     vdW  Elec       q    Type
REMARK                         _______ _______ _______ _____ _____    ______ ____
ROOT
ATOM      1  C   UNL     1       7.690   2.110  -6.669  0.00  0.00    +0.017 C 
ATOM      2  C   UNL     1       7.102   3.265  -5.817  0.00  0.00    +0.025 C 
ATOM      3  C   UNL     1       8.002   3.264  -4.563  0.00  0.00    +0.088 C 
ATOM      4  N   UNL     1       8.608   1.924  -4.461  0.00  0.00    -0.298 NA
ATOM      5  C   UNL     1       8.105   1.094  -5.576  0.00  0.00    +0.085 C 
ATOM      6  C   UNL     1      10.074   2.005  -4.484  0.00  0.00    +0.105 C 
ENDROOT
BRANCH   3   7
ATOM      7  C   UNL     1       7.173   3.547  -3.337  0.00  0.00    -0.012 A 
ATOM      8  C   UNL     1       7.769   4.028  -2.186  0.00  0.00    +0.115 A 
ATOM      9  N   UNL     1       7.051   4.279  -1.109  0.00  0.00    -0.263 NA
ATOM     10  C   UNL     1       5.748   4.084  -1.084  0.00  0.00    +0.111 A 
ATOM     11  C   UNL     1       5.082   3.606  -2.197  0.00  0.00    +0.020 A 
ATOM     12  C   UNL     1       5.803   3.336  -3.350  0.00  0.00    +0.008 A 
ENDBRANCH   3   7
TORSDOF 1
ENDMDL
MODEL 6
REMARK VINA RESULT:     0.000      8.498      9.426
REMARK INTER + INTRA:          -0.256
REMARK INTER:                   0.000
REMARK INTRA:                  -0.256
REMARK UNBOUND:                -0.256
REMARK  Name = Nicotine.pdb
REMARK  2 active torsions:
REMARK  status: ('A' for Active; 'I' for Inactive)
REMARK    1  A    between atoms: C_3  and  C_6
REMARK    2  A    between atoms: N_4  and  C_12
REMARK                            x       y       z     vdW  Elec       q    Type
REMARK                         _______ _______ _______ _____ _____    ______ ____
ROOT
ATOM      1  C   UNL     1      -3.231  -0.789   3.629  0.00  0.00    +0.017 C 
ATOM      2  C   UNL     1      -4.259   0.302   3.231  0.00  0.00    +0.025 C 
ATOM      3  C   UNL     1      -3.924   0.571   1.749  0.00  0.00    +0.088 C 
ATOM      4  N   UNL     1      -2.531   0.139   1.531  0.00  0.00    -0.298 NA
ATOM      5  C   UNL     1      -1.987  -0.359   2.812  0.00  0.00    +0.085 C 
ATOM      6  C   UNL     1      -2.457  -0.894   0.489  0.00  0.00    +0.105 C 
ENDROOT
BRANCH   3   7
ATOM      7  C   UNL     1      -4.057   2.042   1.452  0.00  0.00    -0.012 A 
ATOM      8  C   UNL     1      -4.244   2.479   0.154  0.00  0.00    +0.115 A 
ATOM      9  N   UNL     1      -4.362   3.765  -0.114  0.00  0.00    -0.263 NA
ATOM     10  C   UNL     1      -4.307   4.679   0.834  0.00  0.00    +0.111 A 
ATOM     11  C   UNL     1      -4.123   4.317   2.156  0.00  0.00    +0.020 A 
ATOM     12  C   UNL     1      -4.001   2.974   2.477  0.00  0.00    +0.008 A 
ENDBRANCH   3   7
TORSDOF 1
ENDMDL
MODEL 7
REMARK VINA RESULT:     0.000      3.134      4.898
REMARK INTER + INTRA:          -0.256
REMARK INTER:                   0.000
REMARK INTRA:                  -0.256
REMARK UNBOUND:                -0.256
REMARK  Name = Nicotine.pdb
REMARK  2 active torsions:
REMARK  status: ('A' for Active; 'I' for Inactive)
REMARK    1  A    between atoms: C_3  and  C_6
REMARK    2  A    between atoms: N_4  and  C_12
REMARK                            x       y       z     vdW  Elec       q    Type
REMARK                         _______ _______ _______ _____ _____    ______ ____
ROOT
ATOM      1  C   UNL     1       6.254   2.904   1.561  0.00  0.00    +0.017 C 
ATOM      2  C   UNL     1       6.751   2.985   0.094  0.00  0.00    +0.025 C 
ATOM      3  C   UNL     1       6.143   1.719  -0.549  0.00  0.00    +0.088 C 
ATOM      4  N   UNL     1       5.861   0.768   0.541  0.00  0.00    -0.298 NA
ATOM      5  C   UNL     1       6.289   1.376   1.819  0.00  0.00    +0.085 C 
ATOM      6  C   UNL     1       4.436   0.414   0.577  0.00  0.00    +0.105 C 
ENDROOT
BRANCH   3   7
ATOM      7  C   UNL     1       7.126   1.114  -1.517  0.00  0.00    -0.012 A 
ATOM      8  C   UNL     1       6.689   0.269  -2.520  0.00  0.00    +0.115 A 
ATOM      9  N   UNL     1       7.542  -0.265  -3.372  0.00  0.00    -0.263 NA
ATOM     10  C   UNL     1       8.836  -0.018  -3.304  0.00  0.00    +0.111 A 
ATOM     11  C   UNL     1       9.346   0.818  -2.329  0.00  0.00    +0.020 A 
ATOM     12  C   UNL     1       8.479   1.402  -1.419  0.00  0.00    +0.008 A 
ENDBRANCH   3   7
TORSDOF 1
ENDMDL
MODEL 8
REMARK VINA RESULT:     0.000      4.164      5.600
REMARK INTER + INTRA:          -0.256
REMARK INTER:                   0.000
REMARK INTRA:                  -0.256
REMARK UNBOUND:                -0.256
REMARK  Name = Nicotine.pdb
REMARK  2 active torsions:
REMARK  status: ('A' for Active; 'I' for Inactive)
REMARK    1  A    between atoms: C_3  and  C_6
REMARK    2  A    between atoms: N_4  and  C_12
REMARK                            x       y       z     vdW  Elec       q    Type
REMARK                         _______ _______ _______ _____ _____    ______ ____
ROOT
ATOM      1  C   UNL     1       4.786   4.495   0.291  0.00  0.00    +0.017 C 
ATOM      2  C   UNL     1       6.145   4.429   1.035  0.00  0.00    +0.025 C 
ATOM      3  C   UNL     1       7.015   3.570   0.093  0.00  0.00    +0.088 C 
ATOM      4  N   UNL     1       6.099   2.776  -0.744  0.00  0.00    -0.298 NA
ATOM      5  C   UNL     1       4.709   3.085  -0.346  0.00  0.00    +0.085 C 
ATOM      6  C   UNL     1       6.313   3.054  -2.170  0.00  0.00    +0.105 C 
ENDROOT
BRANCH   3   7
ATOM      7  C   UNL     1       7.897   2.654   0.902  0.00  0.00    -0.012 A 
ATOM      8  C   UNL     1       9.046   2.121   0.349  0.00  0.00    +0.115 A 
ATOM      9  N   UNL     1       9.823   1.319   1.050  0.00  0.00    -0.263 NA
ATOM     10  C   UNL     1       9.539   0.994   2.296  0.00  0.00    +0.111 A 
ATOM     11  C   UNL     1       8.407   1.489   2.917  0.00  0.00    +0.020 A 
ATOM     12  C   UNL     1       7.569   2.340   2.212  0.00  0.00    +0.008 A 
ENDBRANCH   3   7
TORSDOF 1
ENDMDL
MODEL 9
REMARK VINA RESULT:     0.000      2.840      5.802
REMARK INTER + INTRA:          -0.256
REMARK INTER:                   0.000
REMARK INTRA:                  -0.256
REMARK UNBOUND:                -0.256
REMARK  Name = Nicotine.pdb
REMARK  2 active torsions:
REMARK  status: ('A' for Active; 'I' for Inactive)
REMARK    1  A    between atoms: C_3  and  C_6
REMARK    2  A    between atoms: N_4  and  C_12
REMARK                            x       y       z     vdW  Elec       q    Type
REMARK                         _______ _______ _______ _____ _____    ______ ____
ROOT
ATOM      1  C   UNL     1       4.767   0.645  -3.920  0.00  0.00    +0.017 C 
ATOM      2  C   UNL     1       4.344   1.582  -2.759  0.00  0.00    +0.025 C 
ATOM      3  C   UNL     1       5.296   1.170  -1.616  0.00  0.00    +0.088 C 
ATOM      4  N   UNL     1       5.761  -0.198  -1.907  0.00  0.00    -0.298 NA
ATOM      5  C   UNL     1       5.122  -0.656  -3.159  0.00  0.00    +0.085 C 
ATOM      6  C   UNL     1       7.225  -0.245  -2.014  0.00  0.00    +0.105 C 
ENDROOT
BRANCH   3   7
ATOM      7  C   UNL     1       4.559   1.194  -0.302  0.00  0.00    -0.012 A 
ATOM      8  C   UNL     1       5.255   1.299   0.888  0.00  0.00    +0.115 A 
ATOM      9  N   UNL     1       4.619   1.321   2.043  0.00  0.00    -0.263 NA
ATOM     10  C   UNL     1       3.304   1.244   2.111  0.00  0.00    +0.111 A 
ATOM     11  C   UNL     1       2.541   1.137   0.963  0.00  0.00    +0.020 A 
ATOM     12  C   UNL     1       3.175   1.117  -0.270  0.00  0.00    +0.008 A 
ENDBRANCH   3   7
TORSDOF 1
ENDMDL
MODEL 10
REMARK VINA RESULT:     0.000      3.964      5.791
REMARK INTER + INTRA:          -0.256
REMARK INTER:                   0.000
REMARK INTRA:                  -0.256
REMARK UNBOUND:                -0.256
REMARK  Name = Nicotine.pdb
REMARK  2 active torsions:
REMARK  status: ('A' for Active; 'I' for Inactive)
REMARK    1  A    between atoms: C_3  and  C_6
REMARK    2  A    between atoms: N_4  and  C_12
REMARK                            x       y       z     vdW  Elec       q    Type
REMARK                         _______ _______ _______ _____ _____    ______ ____
ROOT
ATOM      1  C   UNL     1       6.090   6.014   3.333  0.00  0.00    +0.017 C 
ATOM      2  C   UNL     1       4.877   5.119   2.963  0.00  0.00    +0.025 C 
ATOM      3  C   UNL     1       4.001   5.179   4.233  0.00  0.00    +0.088 C 
ATOM      4  N   UNL     1       4.882   5.553   5.354  0.00  0.00    -0.298 NA
ATOM      5  C   UNL     1       6.261   5.701   4.841  0.00  0.00    +0.085 C 
ATOM      6  C   UNL     1       4.423   6.791   5.995  0.00  0.00    +0.105 C 
ENDROOT
BRANCH   3   7
ATOM      7  C   UNL     1       3.383   3.830   4.493  0.00  0.00    -0.012 A 
ATOM      8  C   UNL     1       2.247   3.720   5.273  0.00  0.00    +0.115 A 
ATOM      9  N   UNL     1       1.699   2.544   5.505  0.00  0.00    -0.263 NA
ATOM     10  C   UNL     1       2.206   1.433   5.008  0.00  0.00    +0.111 A 
ATOM     11  C   UNL     1       3.340   1.464   4.218  0.00  0.00    +0.020 A 
ATOM     12  C   UNL     1       3.941   2.684   3.948  0.00  0.00    +0.008 A 
ENDBRANCH   3   7
TORSDOF 1
ENDMDL
