MODEL 1
REMARK VINA RESULT:    28.226      0.000      0.000
REMARK INTER + INTRA:          29.654
REMARK INTER:                  29.876
REMARK INTRA:                  -0.222
REMARK UNBOUND:                -0.222
REMARK  Name = Nicotine.pdb
REMARK  2 active torsions:
REMARK  status: ('A' for Active; 'I' for Inactive)
REMARK    1  A    between atoms: C_3  and  C_6
REMARK    2  A    between atoms: N_4  and  C_12
REMARK                            x       y       z     vdW  Elec       q    Type
REMARK                         _______ _______ _______ _____ _____    ______ ____
ROOT
ATOM      1  C   UNL     1       5.160   0.425  -0.399  0.00  0.00    +0.017 C 
ATOM      2  C   UNL     1       5.399  -0.489   0.832  0.00  0.00    +0.025 C 
ATOM      3  C   UNL     1       4.507   0.149   1.917  0.00  0.00    +0.088 C 
ATOM      4  N   UNL     1       4.280   1.553   1.527  0.00  0.00    -0.298 NA
ATOM      5  C   UNL     1       5.011   1.815   0.269  0.00  0.00    +0.085 C 
ATOM      6  C   UNL     1       2.847   1.832   1.373  0.00  0.00    +0.105 C 
ENDROOT
BRANCH   3   7
ATOM      7  C   UNL     1       5.203   0.093   3.252  0.00  0.00    -0.012 A 
ATOM      8  C   UNL     1       5.518   1.257   3.926  0.00  0.00    +0.115 A 
ATOM      9  N   UNL     1       6.127   1.217   5.095  0.00  0.00    -0.263 NA
ATOM     10  C   UNL     1       6.459   0.075   5.664  0.00  0.00    +0.111 A 
ATOM     11  C   UNL     1       6.176  -1.131   5.050  0.00  0.00    +0.020 A 
ATOM     12  C   UNL     1       5.531  -1.128   3.822  0.00  0.00    +0.008 A 
ENDBRANCH   3   7
TORSDOF 1
ENDMDL
MODEL 2
REMARK VINA RESULT:    28.932      1.392      4.396
REMARK INTER + INTRA:          30.402
REMARK INTER:                  30.617
REMARK INTRA:                  -0.216
REMARK UNBOUND:                -0.222
REMARK  Name = Nicotine.pdb
REMARK  2 active torsions:
REMARK  status: ('A' for Active; 'I' for Inactive)
REMARK    1  A    between atoms: C_3  and  C_6
REMARK    2  A    between atoms: N_4  and  C_12
REMARK                            x       y       z     vdW  Elec       q    Type
REMARK                         _______ _______ _______ _____ _____    ______ ____
ROOT
ATOM      1  C   UNL     1       6.607  -1.980   2.845  0.00  0.00    +0.017 C 
ATOM      2  C   UNL     1       6.493  -1.094   1.576  0.00  0.00    +0.025 C 
ATOM      3  C   UNL     1       6.043   0.269   2.144  0.00  0.00    +0.088 C 
ATOM      4  N   UNL     1       5.417   0.012   3.453  0.00  0.00    -0.298 NA
ATOM      5  C   UNL     1       5.436  -1.444   3.707  0.00  0.00    +0.085 C 
ATOM      6  C   UNL     1       6.111   0.743   4.521  0.00  0.00    +0.105 C 
ENDROOT
BRANCH   3   7
ATOM      7  C   UNL     1       5.046   0.908   1.213  0.00  0.00    -0.012 A 
ATOM      8  C   UNL     1       3.987   1.639   1.718  0.00  0.00    +0.115 A 
ATOM      9  N   UNL     1       3.110   2.202   0.910  0.00  0.00    -0.263 NA
ATOM     10  C   UNL     1       3.203   2.091  -0.400  0.00  0.00    +0.111 A 
ATOM     11  C   UNL     1       4.235   1.376  -0.978  0.00  0.00    +0.020 A 
ATOM     12  C   UNL     1       5.180   0.775  -0.161  0.00  0.00    +0.008 A 
ENDBRANCH   3   7
TORSDOF 1
ENDMDL
MODEL 3
REMARK VINA RESULT:    29.082      2.582      5.697
REMARK INTER + INTRA:          30.560
REMARK INTER:                  30.762
REMARK INTRA:                  -0.202
REMARK UNBOUND:                -0.222
REMARK  Name = Nicotine.pdb
REMARK  2 active torsions:
REMARK  status: ('A' for Active; 'I' for Inactive)
REMARK    1  A    between atoms: C_3  and  C_6
REMARK    2  A    between atoms: N_4  and  C_12
REMARK                            x       y       z     vdW  Elec       q    Type
REMARK                         _______ _______ _______ _____ _____    ______ ____
ROOT
ATOM      1  C   UNL     1       4.984  -0.261   1.692  0.00  0.00    +0.017 C 
ATOM      2  C   UNL     1       5.435   0.178   0.274  0.00  0.00    +0.025 C 
ATOM      3  C   UNL     1       4.930   1.633   0.184  0.00  0.00    +0.088 C 
ATOM      4  N   UNL     1       3.837   1.778   1.163  0.00  0.00    -0.298 NA
ATOM      5  C   UNL     1       3.629   0.477   1.832  0.00  0.00    +0.085 C 
ATOM      6  C   UNL     1       4.142   2.831   2.140  0.00  0.00    +0.105 C 
ENDROOT
BRANCH   3   7
ATOM      7  C   UNL     1       4.416   1.913  -1.205  0.00  0.00    -0.012 A 
ATOM      8  C   UNL     1       5.297   2.198  -2.231  0.00  0.00    +0.115 A 
ATOM      9  N   UNL     1       4.856   2.443  -3.450  0.00  0.00    -0.263 NA
ATOM     10  C   UNL     1       3.569   2.428  -3.737  0.00  0.00    +0.111 A 
ATOM     11  C   UNL     1       2.629   2.150  -2.762  0.00  0.00    +0.020 A 
ATOM     12  C   UNL     1       3.056   1.882  -1.471  0.00  0.00    +0.008 A 
ENDBRANCH   3   7
TORSDOF 1
ENDMDL
MODEL 4
REMARK VINA RESULT:    29.727      2.435      5.592
REMARK INTER + INTRA:          31.244
REMARK INTER:                  31.447
REMARK INTRA:                  -0.203
REMARK UNBOUND:                -0.222
REMARK  Name = Nicotine.pdb
REMARK  2 active torsions:
REMARK  status: ('A' for Active; 'I' for Inactive)
REMARK    1  A    between atoms: C_3  and  C_6
REMARK    2  A    between atoms: N_4  and  C_12
REMARK                            x       y       z     vdW  Elec       q    Type
REMARK                         _______ _______ _______ _____ _____    ______ ____
ROOT
ATOM      1  C   UNL     1       4.929   0.735   2.633  0.00  0.00    +0.017 C 
ATOM      2  C   UNL     1       3.897   1.144   1.549  0.00  0.00    +0.025 C 
ATOM      3  C   UNL     1       4.370   0.360   0.306  0.00  0.00    +0.088 C 
ATOM      4  N   UNL     1       5.796   0.043   0.506  0.00  0.00    -0.298 NA
ATOM      5  C   UNL     1       6.229   0.616   1.798  0.00  0.00    +0.085 C 
ATOM      6  C   UNL     1       6.024  -1.407   0.469  0.00  0.00    +0.105 C 
ENDROOT
BRANCH   3   7
ATOM      7  C   UNL     1       4.199   1.205  -0.929  0.00  0.00    -0.012 A 
ATOM      8  C   UNL     1       5.299   1.770  -1.548  0.00  0.00    +0.115 A 
ATOM      9  N   UNL     1       5.158   2.511  -2.629  0.00  0.00    -0.263 NA
ATOM     10  C   UNL     1       3.974   2.742  -3.161  0.00  0.00    +0.111 A 
ATOM     11  C   UNL     1       2.829   2.211  -2.598  0.00  0.00    +0.020 A 
ATOM     12  C   UNL     1       2.938   1.422  -1.464  0.00  0.00    +0.008 A 
ENDBRANCH   3   7
TORSDOF 1
ENDMDL
MODEL 5
REMARK VINA RESULT:    29.796      1.999      2.988
REMARK INTER + INTRA:          31.316
REMARK INTER:                  31.532
REMARK INTRA:                  -0.216
REMARK UNBOUND:                -0.222
REMARK  Name = Nicotine.pdb
REMARK  2 active torsions:
REMARK  status: ('A' for Active; 'I' for Inactive)
REMARK    1  A    between atoms: C_3  and  C_6
REMARK    2  A    between atoms: N_4  and  C_12
REMARK                            x       y       z     vdW  Elec       q    Type
REMARK                         _______ _______ _______ _____ _____    ______ ____
ROOT
ATOM      1  C   UNL     1       2.797   2.515   0.598  0.00  0.00    +0.017 C 
ATOM      2  C   UNL     1       3.773   2.011   1.694  0.00  0.00    +0.025 C 
ATOM      3  C   UNL     1       4.999   1.547   0.881  0.00  0.00    +0.088 C 
ATOM      4  N   UNL     1       4.535   1.270  -0.490  0.00  0.00    -0.298 NA
ATOM      5  C   UNL     1       3.079   1.517  -0.554  0.00  0.00    +0.085 C 
ATOM      6  C   UNL     1       5.254   2.099  -1.467  0.00  0.00    +0.105 C 
ENDROOT
BRANCH   3   7
ATOM      7  C   UNL     1       5.575   0.295   1.491  0.00  0.00    -0.012 A 
ATOM      8  C   UNL     1       6.324  -0.576   0.723  0.00  0.00    +0.115 A 
ATOM      9  N   UNL     1       6.832  -1.674   1.249  0.00  0.00    -0.263 NA
ATOM     10  C   UNL     1       6.648  -1.984   2.517  0.00  0.00    +0.111 A 
ATOM     11  C   UNL     1       5.910  -1.160   3.347  0.00  0.00    +0.020 A 
ATOM     12  C   UNL     1       5.365   0.005   2.831  0.00  0.00    +0.008 A 
ENDBRANCH   3   7
TORSDOF 1
ENDMDL
MODEL 6
REMARK VINA RESULT:    29.947      1.275      1.994
REMARK INTER + INTRA:          31.476
REMARK INTER:                  31.673
REMARK INTRA:                  -0.198
REMARK UNBOUND:                -0.222
REMARK  Name = Nicotine.pdb
REMARK  2 active torsions:
REMARK  status: ('A' for Active; 'I' for Inactive)
REMARK    1  A    between atoms: C_3  and  C_6
REMARK    2  A    between atoms: N_4  and  C_12
REMARK                            x       y       z     vdW  Elec       q    Type
REMARK                         _______ _______ _______ _____ _____    ______ ____
ROOT
ATOM      1  C   UNL     1       4.093   0.636   0.288  0.00  0.00    +0.017 C 
ATOM      2  C   UNL     1       4.237   1.072   1.769  0.00  0.00    +0.025 C 
ATOM      3  C   UNL     1       5.715   0.758   2.082  0.00  0.00    +0.088 C 
ATOM      4  N   UNL     1       6.160  -0.259   1.112  0.00  0.00    -0.298 NA
ATOM      5  C   UNL     1       5.021  -0.604   0.235  0.00  0.00    +0.085 C 
ATOM      6  C   UNL     1       7.302   0.226   0.327  0.00  0.00    +0.105 C 
ENDROOT
BRANCH   3   7
ATOM      7  C   UNL     1       5.839   0.220   3.484  0.00  0.00    -0.012 A 
ATOM      8  C   UNL     1       5.954   1.084   4.557  0.00  0.00    +0.115 A 
ATOM      9  N   UNL     1       6.063   0.622   5.787  0.00  0.00    -0.263 NA
ATOM     10  C   UNL     1       6.068  -0.671   6.043  0.00  0.00    +0.111 A 
ATOM     11  C   UNL     1       5.956  -1.596   5.022  0.00  0.00    +0.020 A 
ATOM     12  C   UNL     1       5.834  -1.147   3.716  0.00  0.00    +0.008 A 
ENDBRANCH   3   7
TORSDOF 1
ENDMDL
