MODEL 1
REMARK VINA RESULT:    13.746      0.000      0.000
REMARK INTER + INTRA:          14.365
REMARK INTER:                  14.550
REMARK INTRA:                  -0.185
REMARK UNBOUND:                -0.185
REMARK  Name = Nicotine.pdb
REMARK  2 active torsions:
REMARK  status: ('A' for Active; 'I' for Inactive)
REMARK    1  A    between atoms: C_3  and  C_6
REMARK    2  A    between atoms: N_4  and  C_12
REMARK                            x       y       z     vdW  Elec       q    Type
REMARK                         _______ _______ _______ _____ _____    ______ ____
ROOT
ATOM      1  C   UNL     1       0.173  -1.606  -1.024  0.00  0.00    +0.017 C 
ATOM      2  C   UNL     1       1.091  -2.174  -2.139  0.00  0.00    +0.025 C 
ATOM      3  C   UNL     1       1.335  -0.948  -3.045  0.00  0.00    +0.088 C 
ATOM      4  N   UNL     1       0.231  -0.001  -2.805  0.00  0.00    -0.298 NA
ATOM      5  C   UNL     1      -0.693  -0.595  -1.816  0.00  0.00    +0.085 C 
ATOM      6  C   UNL     1       0.740   1.295  -2.339  0.00  0.00    +0.105 C 
ENDROOT
BRANCH   3   7
ATOM      7  C   UNL     1       1.344  -1.372  -4.491  0.00  0.00    -0.012 A 
ATOM      8  C   UNL     1       1.614  -2.684  -4.832  0.00  0.00    +0.115 A 
ATOM      9  N   UNL     1       1.624  -3.064  -6.095  0.00  0.00    -0.263 NA
ATOM     10  C   UNL     1       1.378  -2.217  -7.076  0.00  0.00    +0.111 A 
ATOM     11  C   UNL     1       1.099  -0.889  -6.810  0.00  0.00    +0.020 A 
ATOM     12  C   UNL     1       1.075  -0.454  -5.494  0.00  0.00    +0.008 A 
ENDBRANCH   3   7
TORSDOF 1
ENDMDL
MODEL 2
REMARK VINA RESULT:    13.762      1.895      4.937
REMARK INTER + INTRA:          14.382
REMARK INTER:                  14.617
REMARK INTRA:                  -0.235
REMARK UNBOUND:                -0.185
REMARK  Name = Nicotine.pdb
REMARK  2 active torsions:
REMARK  status: ('A' for Active; 'I' for Inactive)
REMARK    1  A    between atoms: C_3  and  C_6
REMARK    2  A    between atoms: N_4  and  C_12
REMARK                            x       y       z     vdW  Elec       q    Type
REMARK                         _______ _______ _______ _____ _____    ______ ____
ROOT
ATOM      1  C   UNL     1       1.549  -0.148  -4.352  0.00  0.00    +0.017 C 
ATOM      2  C   UNL     1       0.828   0.454  -3.117  0.00  0.00    +0.025 C 
ATOM      3  C   UNL     1       0.779  -0.733  -2.132  0.00  0.00    +0.088 C 
ATOM      4  N   UNL     1       0.905  -1.967  -2.927  0.00  0.00    -0.298 NA
ATOM      5  C   UNL     1       1.005  -1.599  -4.355  0.00  0.00    +0.085 C 
ATOM      6  C   UNL     1       2.073  -2.750  -2.502  0.00  0.00    +0.105 C 
ENDROOT
BRANCH   3   7
ATOM      7  C   UNL     1      -0.534  -0.730  -1.392  0.00  0.00    -0.012 A 
ATOM      8  C   UNL     1      -0.839  -1.747  -0.507  0.00  0.00    +0.115 A 
ATOM      9  N   UNL     1      -1.986  -1.752   0.145  0.00  0.00    -0.263 NA
ATOM     10  C   UNL     1      -2.881  -0.798  -0.019  0.00  0.00    +0.111 A 
ATOM     11  C   UNL     1      -2.645   0.251  -0.888  0.00  0.00    +0.020 A 
ATOM     12  C   UNL     1      -1.448   0.294  -1.586  0.00  0.00    +0.008 A 
ENDBRANCH   3   7
TORSDOF 1
ENDMDL
