MODEL 1
REMARK VINA RESULT:    -3.367      0.000      0.000
REMARK INTER + INTRA:          -3.758
REMARK INTER:                  -3.563
REMARK INTRA:                  -0.195
REMARK UNBOUND:                -0.195
REMARK  Name = Nicotine.pdb
REMARK  2 active torsions:
REMARK  status: ('A' for Active; 'I' for Inactive)
REMARK    1  A    between atoms: C_3  and  C_6
REMARK    2  A    between atoms: N_4  and  C_12
REMARK                            x       y       z     vdW  Elec       q    Type
REMARK                         _______ _______ _______ _____ _____    ______ ____
ROOT
ATOM      1  C   UNL     1       2.333  -3.513  -5.413  0.00  0.00    +0.017 C 
ATOM      2  C   UNL     1       1.427  -4.515  -6.176  0.00  0.00    +0.025 C 
ATOM      3  C   UNL     1       0.511  -3.592  -7.007  0.00  0.00    +0.088 C 
ATOM      4  N   UNL     1       0.503  -2.275  -6.346  0.00  0.00    -0.298 NA
ATOM      5  C   UNL     1       1.348  -2.350  -5.135  0.00  0.00    +0.085 C 
ATOM      6  C   UNL     1       0.978  -1.225  -7.256  0.00  0.00    +0.105 C 
ENDROOT
BRANCH   3   7
ATOM      7  C   UNL     1      -0.885  -4.156  -7.047  0.00  0.00    -0.012 A 
ATOM      8  C   UNL     1      -1.087  -5.512  -7.217  0.00  0.00    +0.115 A 
ATOM      9  N   UNL     1      -2.306  -6.014  -7.253  0.00  0.00    -0.263 NA
ATOM     10  C   UNL     1      -3.373  -5.251  -7.130  0.00  0.00    +0.111 A 
ATOM     11  C   UNL     1      -3.250  -3.885  -6.956  0.00  0.00    +0.020 A 
ATOM     12  C   UNL     1      -1.984  -3.322  -6.908  0.00  0.00    +0.008 A 
ENDBRANCH   3   7
TORSDOF 1
ENDMDL
MODEL 2
REMARK VINA RESULT:    -3.206      8.888     11.198
REMARK INTER + INTRA:          -3.588
REMARK INTER:                  -3.401
REMARK INTRA:                  -0.187
REMARK UNBOUND:                -0.195
REMARK  Name = Nicotine.pdb
REMARK  2 active torsions:
REMARK  status: ('A' for Active; 'I' for Inactive)
REMARK    1  A    between atoms: C_3  and  C_6
REMARK    2  A    between atoms: N_4  and  C_12
REMARK                            x       y       z     vdW  Elec       q    Type
REMARK                         _______ _______ _______ _____ _____    ______ ____
ROOT
ATOM      1  C   UNL     1       9.605   4.263  -4.219  0.00  0.00    +0.017 C 
ATOM      2  C   UNL     1       8.762   3.456  -5.241  0.00  0.00    +0.025 C 
ATOM      3  C   UNL     1       8.109   4.559  -6.101  0.00  0.00    +0.088 C 
ATOM      4  N   UNL     1       8.107   5.795  -5.299  0.00  0.00    -0.298 NA
ATOM      5  C   UNL     1       8.704   5.500  -3.978  0.00  0.00    +0.085 C 
ATOM      6  C   UNL     1       8.842   6.867  -5.981  0.00  0.00    +0.105 C 
ENDROOT
BRANCH   3   7
ATOM      7  C   UNL     1       6.695   4.169  -6.448  0.00  0.00    -0.012 A 
ATOM      8  C   UNL     1       6.268   2.866  -6.278  0.00  0.00    +0.115 A 
ATOM      9  N   UNL     1       5.032   2.516  -6.579  0.00  0.00    -0.263 NA
ATOM     10  C   UNL     1       4.161   3.387  -7.051  0.00  0.00    +0.111 A 
ATOM     11  C   UNL     1       4.517   4.708  -7.247  0.00  0.00    +0.020 A 
ATOM     12  C   UNL     1       5.806   5.114  -6.937  0.00  0.00    +0.008 A 
ENDBRANCH   3   7
TORSDOF 1
ENDMDL
MODEL 3
REMARK VINA RESULT:    -3.117      9.587     11.925
REMARK INTER + INTRA:          -3.494
REMARK INTER:                  -3.244
REMARK INTRA:                  -0.250
REMARK UNBOUND:                -0.195
REMARK  Name = Nicotine.pdb
REMARK  2 active torsions:
REMARK  status: ('A' for Active; 'I' for Inactive)
REMARK    1  A    between atoms: C_3  and  C_6
REMARK    2  A    between atoms: N_4  and  C_12
REMARK                            x       y       z     vdW  Elec       q    Type
REMARK                         _______ _______ _______ _____ _____    ______ ____
ROOT
ATOM      1  C   UNL     1      10.508   5.684  -4.244  0.00  0.00    +0.017 C 
ATOM      2  C   UNL     1       8.987   5.413  -4.107  0.00  0.00    +0.025 C 
ATOM      3  C   UNL     1       8.836   3.984  -4.670  0.00  0.00    +0.088 C 
ATOM      4  N   UNL     1       9.997   3.734  -5.544  0.00  0.00    -0.298 NA
ATOM      5  C   UNL     1      10.839   4.949  -5.567  0.00  0.00    +0.085 C 
ATOM      6  C   UNL     1      10.763   2.570  -5.083  0.00  0.00    +0.105 C 
ENDROOT
BRANCH   3   7
ATOM      7  C   UNL     1       7.561   3.877  -5.465  0.00  0.00    -0.012 A 
ATOM      8  C   UNL     1       6.790   2.732  -5.399  0.00  0.00    +0.115 A 
ATOM      9  N   UNL     1       5.672   2.631  -6.092  0.00  0.00    -0.263 NA
ATOM     10  C   UNL     1       5.247   3.607  -6.869  0.00  0.00    +0.111 A 
ATOM     11  C   UNL     1       5.966   4.783  -6.985  0.00  0.00    +0.020 A 
ATOM     12  C   UNL     1       7.143   4.928  -6.267  0.00  0.00    +0.008 A 
ENDBRANCH   3   7
TORSDOF 1
ENDMDL
MODEL 4
REMARK VINA RESULT:    -3.052      8.156      9.675
REMARK INTER + INTRA:          -3.425
REMARK INTER:                  -3.233
REMARK INTRA:                  -0.192
REMARK UNBOUND:                -0.195
REMARK  Name = Nicotine.pdb
REMARK  2 active torsions:
REMARK  status: ('A' for Active; 'I' for Inactive)
REMARK    1  A    between atoms: C_3  and  C_6
REMARK    2  A    between atoms: N_4  and  C_12
REMARK                            x       y       z     vdW  Elec       q    Type
REMARK                         _______ _______ _______ _____ _____    ______ ____
ROOT
ATOM      1  C   UNL     1       7.423   3.074  -5.400  0.00  0.00    +0.017 C 
ATOM      2  C   UNL     1       6.125   2.673  -6.147  0.00  0.00    +0.025 C 
ATOM      3  C   UNL     1       5.735   3.970  -6.888  0.00  0.00    +0.088 C 
ATOM      4  N   UNL     1       6.379   5.089  -6.177  0.00  0.00    -0.298 NA
ATOM      5  C   UNL     1       7.123   4.546  -5.021  0.00  0.00    +0.085 C 
ATOM      6  C   UNL     1       7.268   5.840  -7.072  0.00  0.00    +0.105 C 
ENDROOT
BRANCH   3   7
ATOM      7  C   UNL     1       4.238   4.141  -6.869  0.00  0.00    -0.012 A 
ATOM      8  C   UNL     1       3.407   3.046  -7.015  0.00  0.00    +0.115 A 
ATOM      9  N   UNL     1       2.096   3.188  -7.000  0.00  0.00    -0.263 NA
ATOM     10  C   UNL     1       1.528   4.368  -6.847  0.00  0.00    +0.111 A 
ATOM     11  C   UNL     1       2.295   5.508  -6.694  0.00  0.00    +0.020 A 
ATOM     12  C   UNL     1       3.677   5.398  -6.700  0.00  0.00    +0.008 A 
ENDBRANCH   3   7
TORSDOF 1
ENDMDL
MODEL 5
REMARK VINA RESULT:    -2.889      9.869     11.860
REMARK INTER + INTRA:          -3.253
REMARK INTER:                  -2.999
REMARK INTRA:                  -0.254
REMARK UNBOUND:                -0.195
REMARK  Name = Nicotine.pdb
REMARK  2 active torsions:
REMARK  status: ('A' for Active; 'I' for Inactive)
REMARK    1  A    between atoms: C_3  and  C_6
REMARK    2  A    between atoms: N_4  and  C_12
REMARK                            x       y       z     vdW  Elec       q    Type
REMARK                         _______ _______ _______ _____ _____    ______ ____
ROOT
ATOM      1  C   UNL     1      10.905   2.445  -5.443  0.00  0.00    +0.017 C 
ATOM      2  C   UNL     1       9.769   2.670  -6.475  0.00  0.00    +0.025 C 
ATOM      3  C   UNL     1       9.255   4.082  -6.123  0.00  0.00    +0.088 C 
ATOM      4  N   UNL     1       9.638   4.351  -4.725  0.00  0.00    -0.298 NA
ATOM      5  C   UNL     1      10.339   3.163  -4.192  0.00  0.00    +0.085 C 
ATOM      6  C   UNL     1      10.482   5.548  -4.630  0.00  0.00    +0.105 C 
ENDROOT
BRANCH   3   7
ATOM      7  C   UNL     1       7.756   4.133  -6.264  0.00  0.00    -0.012 A 
ATOM      8  C   UNL     1       7.127   5.306  -6.635  0.00  0.00    +0.115 A 
ATOM      9  N   UNL     1       5.816   5.359  -6.761  0.00  0.00    -0.263 NA
ATOM     10  C   UNL     1       5.056   4.304  -6.540  0.00  0.00    +0.111 A 
ATOM     11  C   UNL     1       5.613   3.096  -6.166  0.00  0.00    +0.020 A 
ATOM     12  C   UNL     1       6.990   3.001  -6.029  0.00  0.00    +0.008 A 
ENDBRANCH   3   7
TORSDOF 1
ENDMDL
MODEL 6
REMARK VINA RESULT:    -2.598      9.681     12.767
REMARK INTER + INTRA:          -2.945
REMARK INTER:                  -2.753
REMARK INTRA:                  -0.192
REMARK UNBOUND:                -0.195
REMARK  Name = Nicotine.pdb
REMARK  2 active torsions:
REMARK  status: ('A' for Active; 'I' for Inactive)
REMARK    1  A    between atoms: C_3  and  C_6
REMARK    2  A    between atoms: N_4  and  C_12
REMARK                            x       y       z     vdW  Elec       q    Type
REMARK                         _______ _______ _______ _____ _____    ______ ____
ROOT
ATOM      1  C   UNL     1       5.603   3.742  -6.648  0.00  0.00    +0.017 C 
ATOM      2  C   UNL     1       6.814   4.705  -6.534  0.00  0.00    +0.025 C 
ATOM      3  C   UNL     1       8.023   3.746  -6.536  0.00  0.00    +0.088 C 
ATOM      4  N   UNL     1       7.532   2.424  -6.103  0.00  0.00    -0.298 NA
ATOM      5  C   UNL     1       6.087   2.531  -5.811  0.00  0.00    +0.085 C 
ATOM      6  C   UNL     1       7.789   1.405  -7.129  0.00  0.00    +0.105 C 
ENDROOT
BRANCH   3   7
ATOM      7  C   UNL     1       9.074   4.243  -5.577  0.00  0.00    -0.012 A 
ATOM      8  C   UNL     1       9.336   5.595  -5.468  0.00  0.00    +0.115 A 
ATOM      9  N   UNL     1      10.254   6.039  -4.632  0.00  0.00    -0.263 NA
ATOM     10  C   UNL     1      10.954   5.219  -3.872  0.00  0.00    +0.111 A 
ATOM     11  C   UNL     1      10.746   3.853  -3.926  0.00  0.00    +0.020 A 
ATOM     12  C   UNL     1       9.785   3.351  -4.790  0.00  0.00    +0.008 A 
ENDBRANCH   3   7
TORSDOF 1
ENDMDL
MODEL 7
REMARK VINA RESULT:    -2.503     10.029     11.877
REMARK INTER + INTRA:          -2.844
REMARK INTER:                  -2.648
REMARK INTRA:                  -0.196
REMARK UNBOUND:                -0.195
REMARK  Name = Nicotine.pdb
REMARK  2 active torsions:
REMARK  status: ('A' for Active; 'I' for Inactive)
REMARK    1  A    between atoms: C_3  and  C_6
REMARK    2  A    between atoms: N_4  and  C_12
REMARK                            x       y       z     vdW  Elec       q    Type
REMARK                         _______ _______ _______ _____ _____    ______ ____
ROOT
ATOM      1  C   UNL     1       9.946   5.086  -4.129  0.00  0.00    +0.017 C 
ATOM      2  C   UNL     1      10.483   3.897  -4.968  0.00  0.00    +0.025 C 
ATOM      3  C   UNL     1       9.531   3.869  -6.182  0.00  0.00    +0.088 C 
ATOM      4  N   UNL     1       8.287   4.550  -5.777  0.00  0.00    -0.298 NA
ATOM      5  C   UNL     1       8.419   4.971  -4.366  0.00  0.00    +0.085 C 
ATOM      6  C   UNL     1       8.008   5.699  -6.647  0.00  0.00    +0.105 C 
ENDROOT
BRANCH   3   7
ATOM      7  C   UNL     1       9.234   2.444  -6.569  0.00  0.00    -0.012 A 
ATOM      8  C   UNL     1      10.244   1.500  -6.591  0.00  0.00    +0.115 A 
ATOM      9  N   UNL     1       9.993   0.250  -6.928  0.00  0.00    -0.263 NA
ATOM     10  C   UNL     1       8.780  -0.149  -7.256  0.00  0.00    +0.111 A 
ATOM     11  C   UNL     1       7.719   0.738  -7.256  0.00  0.00    +0.020 A 
ATOM     12  C   UNL     1       7.944   2.059  -6.902  0.00  0.00    +0.008 A 
ENDBRANCH   3   7
TORSDOF 1
ENDMDL
MODEL 8
REMARK VINA RESULT:    -2.396      1.193      2.301
REMARK INTER + INTRA:          -2.731
REMARK INTER:                  -2.518
REMARK INTRA:                  -0.213
REMARK UNBOUND:                -0.195
REMARK  Name = Nicotine.pdb
REMARK  2 active torsions:
REMARK  status: ('A' for Active; 'I' for Inactive)
REMARK    1  A    between atoms: C_3  and  C_6
REMARK    2  A    between atoms: N_4  and  C_12
REMARK                            x       y       z     vdW  Elec       q    Type
REMARK                         _______ _______ _______ _____ _____    ______ ____
ROOT
ATOM      1  C   UNL     1       1.603  -1.160  -7.190  0.00  0.00    +0.017 C 
ATOM      2  C   UNL     1       0.098  -1.534  -7.135  0.00  0.00    +0.025 C 
ATOM      3  C   UNL     1       0.059  -2.666  -6.087  0.00  0.00    +0.088 C 
ATOM      4  N   UNL     1       1.413  -3.245  -6.019  0.00  0.00    -0.298 NA
ATOM      5  C   UNL     1       2.276  -2.542  -6.992  0.00  0.00    +0.085 C 
ATOM      6  C   UNL     1       1.961  -3.146  -4.660  0.00  0.00    +0.105 C 
ENDROOT
BRANCH   3   7
ATOM      7  C   UNL     1      -0.930  -3.721  -6.508  0.00  0.00    -0.012 A 
ATOM      8  C   UNL     1      -2.283  -3.440  -6.534  0.00  0.00    +0.115 A 
ATOM      9  N   UNL     1      -3.156  -4.358  -6.902  0.00  0.00    -0.263 NA
ATOM     10  C   UNL     1      -2.779  -5.570  -7.256  0.00  0.00    +0.111 A 
ATOM     11  C   UNL     1      -1.443  -5.925  -7.255  0.00  0.00    +0.020 A 
ATOM     12  C   UNL     1      -0.496  -4.985  -6.879  0.00  0.00    +0.008 A 
ENDBRANCH   3   7
TORSDOF 1
ENDMDL
MODEL 9
REMARK VINA RESULT:    -2.372      2.440      4.921
REMARK INTER + INTRA:          -2.705
REMARK INTER:                  -2.508
REMARK INTRA:                  -0.197
REMARK UNBOUND:                -0.195
REMARK  Name = Nicotine.pdb
REMARK  2 active torsions:
REMARK  status: ('A' for Active; 'I' for Inactive)
REMARK    1  A    between atoms: C_3  and  C_6
REMARK    2  A    between atoms: N_4  and  C_12
REMARK                            x       y       z     vdW  Elec       q    Type
REMARK                         _______ _______ _______ _____ _____    ______ ____
ROOT
ATOM      1  C   UNL     1       1.147  -0.798  -6.163  0.00  0.00    +0.017 C 
ATOM      2  C   UNL     1       2.207  -1.441  -7.095  0.00  0.00    +0.025 C 
ATOM      3  C   UNL     1       1.716  -2.899  -7.226  0.00  0.00    +0.088 C 
ATOM      4  N   UNL     1       0.860  -3.177  -6.059  0.00  0.00    -0.298 NA
ATOM      5  C   UNL     1       0.820  -1.971  -5.205  0.00  0.00    +0.085 C 
ATOM      6  C   UNL     1      -0.492  -3.570  -6.479  0.00  0.00    +0.105 C 
ENDROOT
BRANCH   3   7
ATOM      7  C   UNL     1       2.895  -3.838  -7.234  0.00  0.00    -0.012 A 
ATOM      8  C   UNL     1       4.184  -3.341  -7.239  0.00  0.00    +0.115 A 
ATOM      9  N   UNL     1       5.221  -4.155  -7.247  0.00  0.00    -0.263 NA
ATOM     10  C   UNL     1       5.073  -5.465  -7.250  0.00  0.00    +0.111 A 
ATOM     11  C   UNL     1       3.814  -6.035  -7.245  0.00  0.00    +0.020 A 
ATOM     12  C   UNL     1       2.700  -5.210  -7.231  0.00  0.00    +0.008 A 
ENDBRANCH   3   7
TORSDOF 1
ENDMDL
MODEL 10
REMARK VINA RESULT:    -2.341     15.274     17.040
REMARK INTER + INTRA:          -2.673
REMARK INTER:                  -2.465
REMARK INTRA:                  -0.207
REMARK UNBOUND:                -0.195
REMARK  Name = Nicotine.pdb
REMARK  2 active torsions:
REMARK  status: ('A' for Active; 'I' for Inactive)
REMARK    1  A    between atoms: C_3  and  C_6
REMARK    2  A    between atoms: N_4  and  C_12
REMARK                            x       y       z     vdW  Elec       q    Type
REMARK                         _______ _______ _______ _____ _____    ______ ____
ROOT
ATOM      1  C   UNL     1       8.113   7.009   5.011  0.00  0.00    +0.017 C 
ATOM      2  C   UNL     1       7.431   5.770   5.649  0.00  0.00    +0.025 C 
ATOM      3  C   UNL     1       8.620   4.828   5.933  0.00  0.00    +0.088 C 
ATOM      4  N   UNL     1       9.719   5.228   5.036  0.00  0.00    -0.298 NA
ATOM      5  C   UNL     1       9.256   6.353   4.196  0.00  0.00    +0.085 C 
ATOM      6  C   UNL     1      10.916   5.599   5.801  0.00  0.00    +0.105 C 
ENDROOT
BRANCH   3   7
ATOM      7  C   UNL     1       8.222   3.402   5.655  0.00  0.00    -0.012 A 
ATOM      8  C   UNL     1       7.082   2.870   6.227  0.00  0.00    +0.115 A 
ATOM      9  N   UNL     1       6.726   1.623   5.989  0.00  0.00    -0.263 NA
ATOM     10  C   UNL     1       7.436   0.838   5.202  0.00  0.00    +0.111 A 
ATOM     11  C   UNL     1       8.588   1.300   4.594  0.00  0.00    +0.020 A 
ATOM     12  C   UNL     1       8.991   2.608   4.817  0.00  0.00    +0.008 A 
ENDBRANCH   3   7
TORSDOF 1
ENDMDL
