MODEL 1
REMARK VINA RESULT:    -1.605      0.000      0.000
REMARK INTER + INTRA:          -1.908
REMARK INTER:                  -1.699
REMARK INTRA:                  -0.210
REMARK UNBOUND:                -0.210
REMARK  Name = Nicotine.pdb
REMARK  2 active torsions:
REMARK  status: ('A' for Active; 'I' for Inactive)
REMARK    1  A    between atoms: C_3  and  C_6
REMARK    2  A    between atoms: N_4  and  C_12
REMARK                            x       y       z     vdW  Elec       q    Type
REMARK                         _______ _______ _______ _____ _____    ______ ____
ROOT
ATOM      1  C   UNL     1       5.630   5.829  -5.516  0.00  0.00    +0.017 C 
ATOM      2  C   UNL     1       6.526   4.752  -4.849  0.00  0.00    +0.025 C 
ATOM      3  C   UNL     1       7.874   4.920  -5.582  0.00  0.00    +0.088 C 
ATOM      4  N   UNL     1       7.592   5.572  -6.873  0.00  0.00    -0.298 NA
ATOM      5  C   UNL     1       6.133   5.790  -6.981  0.00  0.00    +0.085 C 
ATOM      6  C   UNL     1       8.325   6.838  -6.996  0.00  0.00    +0.105 C 
ENDROOT
BRANCH   3   7
ATOM      7  C   UNL     1       8.503   3.570  -5.814  0.00  0.00    -0.012 A 
ATOM      8  C   UNL     1       8.707   2.703  -4.758  0.00  0.00    +0.115 A 
ATOM      9  N   UNL     1       9.256   1.520  -4.953  0.00  0.00    -0.263 NA
ATOM     10  C   UNL     1       9.631   1.118  -6.151  0.00  0.00    +0.111 A 
ATOM     11  C   UNL     1       9.458   1.932  -7.256  0.00  0.00    +0.020 A 
ATOM     12  C   UNL     1       8.879   3.180  -7.091  0.00  0.00    +0.008 A 
ENDBRANCH   3   7
TORSDOF 1
ENDMDL
MODEL 2
REMARK VINA RESULT:    -1.564      1.546      4.340
REMARK INTER + INTRA:          -1.865
REMARK INTER:                  -1.667
REMARK INTRA:                  -0.198
REMARK UNBOUND:                -0.210
REMARK  Name = Nicotine.pdb
REMARK  2 active torsions:
REMARK  status: ('A' for Active; 'I' for Inactive)
REMARK    1  A    between atoms: C_3  and  C_6
REMARK    2  A    between atoms: N_4  and  C_12
REMARK                            x       y       z     vdW  Elec       q    Type
REMARK                         _______ _______ _______ _____ _____    ______ ____
ROOT
ATOM      1  C   UNL     1       9.421   1.179  -4.397  0.00  0.00    +0.017 C 
ATOM      2  C   UNL     1       8.720   2.522  -4.060  0.00  0.00    +0.025 C 
ATOM      3  C   UNL     1       7.963   2.854  -5.363  0.00  0.00    +0.088 C 
ATOM      4  N   UNL     1       8.631   2.124  -6.455  0.00  0.00    -0.298 NA
ATOM      5  C   UNL     1       9.777   1.378  -5.892  0.00  0.00    +0.085 C 
ATOM      6  C   UNL     1       7.695   1.218  -7.133  0.00  0.00    +0.105 C 
ENDROOT
BRANCH   3   7
ATOM      7  C   UNL     1       8.021   4.337  -5.626  0.00  0.00    -0.012 A 
ATOM      8  C   UNL     1       7.797   5.238  -4.602  0.00  0.00    +0.115 A 
ATOM      9  N   UNL     1       7.847   6.537  -4.823  0.00  0.00    -0.263 NA
ATOM     10  C   UNL     1       8.108   7.027  -6.019  0.00  0.00    +0.111 A 
ATOM     11  C   UNL     1       8.343   6.187  -7.092  0.00  0.00    +0.020 A 
ATOM     12  C   UNL     1       8.305   4.815  -6.896  0.00  0.00    +0.008 A 
ENDBRANCH   3   7
TORSDOF 1
ENDMDL
MODEL 3
REMARK VINA RESULT:    -1.451      1.743      2.900
REMARK INTER + INTRA:          -1.745
REMARK INTER:                  -1.490
REMARK INTRA:                  -0.256
REMARK UNBOUND:                -0.210
REMARK  Name = Nicotine.pdb
REMARK  2 active torsions:
REMARK  status: ('A' for Active; 'I' for Inactive)
REMARK    1  A    between atoms: C_3  and  C_6
REMARK    2  A    between atoms: N_4  and  C_12
REMARK                            x       y       z     vdW  Elec       q    Type
REMARK                         _______ _______ _______ _____ _____    ______ ____
ROOT
ATOM      1  C   UNL     1       8.318   5.103  -6.867  0.00  0.00    +0.017 C 
ATOM      2  C   UNL     1       9.079   3.808  -7.256  0.00  0.00    +0.025 C 
ATOM      3  C   UNL     1       7.994   2.718  -7.130  0.00  0.00    +0.088 C 
ATOM      4  N   UNL     1       6.955   3.238  -6.224  0.00  0.00    -0.298 NA
ATOM      5  C   UNL     1       7.359   4.585  -5.767  0.00  0.00    +0.085 C 
ATOM      6  C   UNL     1       5.647   3.278  -6.891  0.00  0.00    +0.105 C 
ENDROOT
BRANCH   3   7
ATOM      7  C   UNL     1       8.595   1.461  -6.555  0.00  0.00    -0.012 A 
ATOM      8  C   UNL     1       8.005   0.233  -6.789  0.00  0.00    +0.115 A 
ATOM      9  N   UNL     1       8.525  -0.871  -6.290  0.00  0.00    -0.263 NA
ATOM     10  C   UNL     1       9.618  -0.851  -5.552  0.00  0.00    +0.111 A 
ATOM     11  C   UNL     1      10.263   0.340  -5.276  0.00  0.00    +0.020 A 
ATOM     12  C   UNL     1       9.749   1.521  -5.789  0.00  0.00    +0.008 A 
ENDBRANCH   3   7
TORSDOF 1
ENDMDL
MODEL 4
REMARK VINA RESULT:    -1.435      1.829      4.413
REMARK INTER + INTRA:          -1.729
REMARK INTER:                  -1.544
REMARK INTRA:                  -0.185
REMARK UNBOUND:                -0.210
REMARK  Name = Nicotine.pdb
REMARK  2 active torsions:
REMARK  status: ('A' for Active; 'I' for Inactive)
REMARK    1  A    between atoms: C_3  and  C_6
REMARK    2  A    between atoms: N_4  and  C_12
REMARK                            x       y       z     vdW  Elec       q    Type
REMARK                         _______ _______ _______ _____ _____    ______ ____
ROOT
ATOM      1  C   UNL     1       9.137   3.074  -1.466  0.00  0.00    +0.017 C 
ATOM      2  C   UNL     1       8.241   3.864  -2.456  0.00  0.00    +0.025 C 
ATOM      3  C   UNL     1       8.221   2.957  -3.705  0.00  0.00    +0.088 C 
ATOM      4  N   UNL     1       9.413   2.094  -3.637  0.00  0.00    -0.298 NA
ATOM      5  C   UNL     1      10.179   2.443  -2.422  0.00  0.00    +0.085 C 
ATOM      6  C   UNL     1       9.037   0.674  -3.634  0.00  0.00    +0.105 C 
ENDROOT
BRANCH   3   7
ATOM      7  C   UNL     1       8.267   3.801  -4.952  0.00  0.00    -0.012 A 
ATOM      8  C   UNL     1       7.797   5.101  -4.935  0.00  0.00    +0.115 A 
ATOM      9  N   UNL     1       7.834   5.846  -6.022  0.00  0.00    -0.263 NA
ATOM     10  C   UNL     1       8.315   5.388  -7.161  0.00  0.00    +0.111 A 
ATOM     11  C   UNL     1       8.803   4.098  -7.254  0.00  0.00    +0.020 A 
ATOM     12  C   UNL     1       8.786   3.286  -6.130  0.00  0.00    +0.008 A 
ENDBRANCH   3   7
TORSDOF 1
ENDMDL
MODEL 5
REMARK VINA RESULT:    -1.433      1.573      2.276
REMARK INTER + INTRA:          -1.727
REMARK INTER:                  -1.472
REMARK INTRA:                  -0.254
REMARK UNBOUND:                -0.210
REMARK  Name = Nicotine.pdb
REMARK  2 active torsions:
REMARK  status: ('A' for Active; 'I' for Inactive)
REMARK    1  A    between atoms: C_3  and  C_6
REMARK    2  A    between atoms: N_4  and  C_12
REMARK                            x       y       z     vdW  Elec       q    Type
REMARK                         _______ _______ _______ _____ _____    ______ ____
ROOT
ATOM      1  C   UNL     1       8.021   6.839  -6.605  0.00  0.00    +0.017 C 
ATOM      2  C   UNL     1       8.413   5.486  -7.256  0.00  0.00    +0.025 C 
ATOM      3  C   UNL     1       7.157   4.617  -7.032  0.00  0.00    +0.088 C 
ATOM      4  N   UNL     1       6.418   5.200  -5.898  0.00  0.00    -0.298 NA
ATOM      5  C   UNL     1       7.170   6.370  -5.398  0.00  0.00    +0.085 C 
ATOM      6  C   UNL     1       5.056   5.579  -6.296  0.00  0.00    +0.105 C 
ENDROOT
BRANCH   3   7
ATOM      7  C   UNL     1       7.564   3.203  -6.708  0.00  0.00    -0.012 A 
ATOM      8  C   UNL     1       6.634   2.181  -6.746  0.00  0.00    +0.115 A 
ATOM      9  N   UNL     1       6.982   0.941  -6.464  0.00  0.00    -0.263 NA
ATOM     10  C   UNL     1       8.219   0.626  -6.137  0.00  0.00    +0.111 A 
ATOM     11  C   UNL     1       9.205   1.594  -6.078  0.00  0.00    +0.020 A 
ATOM     12  C   UNL     1       8.877   2.908  -6.374  0.00  0.00    +0.008 A 
ENDBRANCH   3   7
TORSDOF 1
ENDMDL
MODEL 6
REMARK VINA RESULT:    -1.361      1.621      2.200
REMARK INTER + INTRA:          -1.650
REMARK INTER:                  -1.429
REMARK INTRA:                  -0.221
REMARK UNBOUND:                -0.210
REMARK  Name = Nicotine.pdb
REMARK  2 active torsions:
REMARK  status: ('A' for Active; 'I' for Inactive)
REMARK    1  A    between atoms: C_3  and  C_6
REMARK    2  A    between atoms: N_4  and  C_12
REMARK                            x       y       z     vdW  Elec       q    Type
REMARK                         _______ _______ _______ _____ _____    ______ ____
ROOT
ATOM      1  C   UNL     1       5.825   3.758  -5.585  0.00  0.00    +0.017 C 
ATOM      2  C   UNL     1       6.898   2.929  -4.831  0.00  0.00    +0.025 C 
ATOM      3  C   UNL     1       8.206   3.316  -5.554  0.00  0.00    +0.088 C 
ATOM      4  N   UNL     1       7.836   3.812  -6.891  0.00  0.00    -0.298 NA
ATOM      5  C   UNL     1       6.367   3.725  -7.036  0.00  0.00    +0.085 C 
ATOM      6  C   UNL     1       8.305   5.189  -7.091  0.00  0.00    +0.105 C 
ENDROOT
BRANCH   3   7
ATOM      7  C   UNL     1       9.097   2.107  -5.682  0.00  0.00    -0.012 A 
ATOM      8  C   UNL     1       9.440   1.621  -6.930  0.00  0.00    +0.115 A 
ATOM      9  N   UNL     1      10.219   0.564  -7.051  0.00  0.00    -0.263 NA
ATOM     10  C   UNL     1      10.700  -0.067  -5.998  0.00  0.00    +0.111 A 
ATOM     11  C   UNL     1      10.401   0.362  -4.718  0.00  0.00    +0.020 A 
ATOM     12  C   UNL     1       9.589   1.473  -4.551  0.00  0.00    +0.008 A 
ENDBRANCH   3   7
TORSDOF 1
ENDMDL
MODEL 7
REMARK VINA RESULT:    -1.346      1.637      4.445
REMARK INTER + INTRA:          -1.635
REMARK INTER:                  -1.414
REMARK INTRA:                  -0.221
REMARK UNBOUND:                -0.210
REMARK  Name = Nicotine.pdb
REMARK  2 active torsions:
REMARK  status: ('A' for Active; 'I' for Inactive)
REMARK    1  A    between atoms: C_3  and  C_6
REMARK    2  A    between atoms: N_4  and  C_12
REMARK                            x       y       z     vdW  Elec       q    Type
REMARK                         _______ _______ _______ _____ _____    ______ ____
ROOT
ATOM      1  C   UNL     1       7.498  -0.172  -5.913  0.00  0.00    +0.017 C 
ATOM      2  C   UNL     1       7.567   1.129  -6.755  0.00  0.00    +0.025 C 
ATOM      3  C   UNL     1       8.745   1.895  -6.114  0.00  0.00    +0.088 C 
ATOM      4  N   UNL     1       8.909   1.376  -4.745  0.00  0.00    -0.298 NA
ATOM      5  C   UNL     1       7.875   0.347  -4.503  0.00  0.00    +0.085 C 
ATOM      6  C   UNL     1      10.257   0.825  -4.548  0.00  0.00    +0.105 C 
ENDROOT
BRANCH   3   7
ATOM      7  C   UNL     1       8.436   3.369  -6.072  0.00  0.00    -0.012 A 
ATOM      8  C   UNL     1       8.347   4.030  -4.861  0.00  0.00    +0.115 A 
ATOM      9  N   UNL     1       8.077   5.320  -4.815  0.00  0.00    -0.263 NA
ATOM     10  C   UNL     1       7.882   6.026  -5.911  0.00  0.00    +0.111 A 
ATOM     11  C   UNL     1       7.954   5.434  -7.158  0.00  0.00    +0.020 A 
ATOM     12  C   UNL     1       8.242   4.080  -7.246  0.00  0.00    +0.008 A 
ENDBRANCH   3   7
TORSDOF 1
ENDMDL
MODEL 8
REMARK VINA RESULT:    -1.343      1.811      2.680
REMARK INTER + INTRA:          -1.631
REMARK INTER:                  -1.407
REMARK INTRA:                  -0.224
REMARK UNBOUND:                -0.210
REMARK  Name = Nicotine.pdb
REMARK  2 active torsions:
REMARK  status: ('A' for Active; 'I' for Inactive)
REMARK    1  A    between atoms: C_3  and  C_6
REMARK    2  A    between atoms: N_4  and  C_12
REMARK                            x       y       z     vdW  Elec       q    Type
REMARK                         _______ _______ _______ _____ _____    ______ ____
ROOT
ATOM      1  C   UNL     1       6.760   4.514  -7.100  0.00  0.00    +0.017 C 
ATOM      2  C   UNL     1       6.762   2.970  -7.254  0.00  0.00    +0.025 C 
ATOM      3  C   UNL     1       7.540   2.498  -6.007  0.00  0.00    +0.088 C 
ATOM      4  N   UNL     1       8.367   3.632  -5.553  0.00  0.00    -0.298 NA
ATOM      5  C   UNL     1       8.154   4.768  -6.475  0.00  0.00    +0.085 C 
ATOM      6  C   UNL     1       8.037   4.004  -4.172  0.00  0.00    +0.105 C 
ENDROOT
BRANCH   3   7
ATOM      7  C   UNL     1       8.422   1.330  -6.364  0.00  0.00    -0.012 A 
ATOM      8  C   UNL     1       9.781   1.379  -6.118  0.00  0.00    +0.115 A 
ATOM      9  N   UNL     1      10.560   0.360  -6.428  0.00  0.00    -0.263 NA
ATOM     10  C   UNL     1      10.080  -0.736  -6.980  0.00  0.00    +0.111 A 
ATOM     11  C   UNL     1       8.730  -0.857  -7.256  0.00  0.00    +0.020 A 
ATOM     12  C   UNL     1       7.880   0.191  -6.939  0.00  0.00    +0.008 A 
ENDBRANCH   3   7
TORSDOF 1
ENDMDL
MODEL 9
REMARK VINA RESULT:    -0.292      2.167      4.571
REMARK INTER + INTRA:          -0.519
REMARK INTER:                  -0.272
REMARK INTRA:                  -0.247
REMARK UNBOUND:                -0.210
REMARK  Name = Nicotine.pdb
REMARK  2 active torsions:
REMARK  status: ('A' for Active; 'I' for Inactive)
REMARK    1  A    between atoms: C_3  and  C_6
REMARK    2  A    between atoms: N_4  and  C_12
REMARK                            x       y       z     vdW  Elec       q    Type
REMARK                         _______ _______ _______ _____ _____    ______ ____
ROOT
ATOM      1  C   UNL     1       8.497  -0.433  -2.910  0.00  0.00    +0.017 C 
ATOM      2  C   UNL     1       9.358   0.476  -3.826  0.00  0.00    +0.025 C 
ATOM      3  C   UNL     1       8.744   1.874  -3.602  0.00  0.00    +0.088 C 
ATOM      4  N   UNL     1       7.370   1.674  -3.108  0.00  0.00    -0.298 NA
ATOM      5  C   UNL     1       7.100   0.222  -3.041  0.00  0.00    +0.085 C 
ATOM      6  C   UNL     1       7.185   2.306  -1.795  0.00  0.00    +0.105 C 
ENDROOT
BRANCH   3   7
ATOM      7  C   UNL     1       8.717   2.636  -4.902  0.00  0.00    -0.012 A 
ATOM      8  C   UNL     1       8.310   3.957  -4.929  0.00  0.00    +0.115 A 
ATOM      9  N   UNL     1       8.284   4.631  -6.063  0.00  0.00    -0.263 NA
ATOM     10  C   UNL     1       8.641   4.080  -7.206  0.00  0.00    +0.111 A 
ATOM     11  C   UNL     1       9.059   2.763  -7.256  0.00  0.00    +0.020 A 
ATOM     12  C   UNL     1       9.105   2.024  -6.084  0.00  0.00    +0.008 A 
ENDBRANCH   3   7
TORSDOF 1
ENDMDL
