MODEL 1
REMARK VINA RESULT:    -4.517      0.000      0.000
REMARK INTER + INTRA:          -5.003
REMARK INTER:                  -4.781
REMARK INTRA:                  -0.222
REMARK UNBOUND:                -0.222
REMARK  Name = Nicotine.pdb
REMARK  2 active torsions:
REMARK  status: ('A' for Active; 'I' for Inactive)
REMARK    1  A    between atoms: C_3  and  C_6
REMARK    2  A    between atoms: N_4  and  C_12
REMARK                            x       y       z     vdW  Elec       q    Type
REMARK                         _______ _______ _______ _____ _____    ______ ____
ROOT
ATOM      1  C   UNL     1       2.331   4.062  -1.643  0.00  0.00    +0.017 C 
ATOM      2  C   UNL     1       1.064   3.238  -1.995  0.00  0.00    +0.025 C 
ATOM      3  C   UNL     1       0.844   2.381  -0.731  0.00  0.00    +0.088 C 
ATOM      4  N   UNL     1       2.138   2.297  -0.029  0.00  0.00    -0.298 NA
ATOM      5  C   UNL     1       3.148   3.039  -0.814  0.00  0.00    +0.085 C 
ATOM      6  C   UNL     1       2.034   2.831   1.335  0.00  0.00    +0.105 C 
ENDROOT
BRANCH   3   7
ATOM      7  C   UNL     1       0.380   1.002  -1.121  0.00  0.00    -0.012 A 
ATOM      8  C   UNL     1       0.990  -0.118  -0.586  0.00  0.00    +0.115 A 
ATOM      9  N   UNL     1       0.590  -1.329  -0.922  0.00  0.00    -0.263 NA
ATOM     10  C   UNL     1      -0.398  -1.521  -1.774  0.00  0.00    +0.111 A 
ATOM     11  C   UNL     1      -1.055  -0.449  -2.348  0.00  0.00    +0.020 A 
ATOM     12  C   UNL     1      -0.666   0.839  -2.015  0.00  0.00    +0.008 A 
ENDBRANCH   3   7
TORSDOF 1
ENDMDL
MODEL 2
REMARK VINA RESULT:    -3.464      1.479      2.523
REMARK INTER + INTRA:          -3.888
REMARK INTER:                  -3.664
REMARK INTRA:                  -0.224
REMARK UNBOUND:                -0.222
REMARK  Name = Nicotine.pdb
REMARK  2 active torsions:
REMARK  status: ('A' for Active; 'I' for Inactive)
REMARK    1  A    between atoms: C_3  and  C_6
REMARK    2  A    between atoms: N_4  and  C_12
REMARK                            x       y       z     vdW  Elec       q    Type
REMARK                         _______ _______ _______ _____ _____    ______ ____
ROOT
ATOM      1  C   UNL     1       4.732   2.942   0.665  0.00  0.00    +0.017 C 
ATOM      2  C   UNL     1       4.214   1.835  -0.291  0.00  0.00    +0.025 C 
ATOM      3  C   UNL     1       2.940   2.465  -0.893  0.00  0.00    +0.088 C 
ATOM      4  N   UNL     1       2.488   3.513   0.040  0.00  0.00    -0.298 NA
ATOM      5  C   UNL     1       3.407   3.541   1.198  0.00  0.00    +0.085 C 
ATOM      6  C   UNL     1       2.435   4.822  -0.623  0.00  0.00    +0.105 C 
ENDROOT
BRANCH   3   7
ATOM      7  C   UNL     1       1.871   1.414  -1.044  0.00  0.00    -0.012 A 
ATOM      8  C   UNL     1       0.566   1.779  -1.316  0.00  0.00    +0.115 A 
ATOM      9  N   UNL     1      -0.376   0.865  -1.450  0.00  0.00    -0.263 NA
ATOM     10  C   UNL     1      -0.115  -0.421  -1.329  0.00  0.00    +0.111 A 
ATOM     11  C   UNL     1       1.167  -0.861  -1.057  0.00  0.00    +0.020 A 
ATOM     12  C   UNL     1       2.184   0.070  -0.916  0.00  0.00    +0.008 A 
ENDBRANCH   3   7
TORSDOF 1
ENDMDL
MODEL 3
REMARK VINA RESULT:    -3.420      1.378      4.554
REMARK INTER + INTRA:          -3.841
REMARK INTER:                  -3.635
REMARK INTRA:                  -0.206
REMARK UNBOUND:                -0.222
REMARK  Name = Nicotine.pdb
REMARK  2 active torsions:
REMARK  status: ('A' for Active; 'I' for Inactive)
REMARK    1  A    between atoms: C_3  and  C_6
REMARK    2  A    between atoms: N_4  and  C_12
REMARK                            x       y       z     vdW  Elec       q    Type
REMARK                         _______ _______ _______ _____ _____    ______ ____
ROOT
ATOM      1  C   UNL     1      -0.799  -0.452  -1.636  0.00  0.00    +0.017 C 
ATOM      2  C   UNL     1      -0.149   0.957  -1.611  0.00  0.00    +0.025 C 
ATOM      3  C   UNL     1       1.356   0.643  -1.476  0.00  0.00    +0.088 C 
ATOM      4  N   UNL     1       1.470  -0.710  -0.902  0.00  0.00    -0.298 NA
ATOM      5  C   UNL     1       0.110  -1.233  -0.653  0.00  0.00    +0.085 C 
ATOM      6  C   UNL     1       2.222  -1.600  -1.796  0.00  0.00    +0.105 C 
ENDROOT
BRANCH   3   7
ATOM      7  C   UNL     1       2.009   1.646  -0.562  0.00  0.00    -0.012 A 
ATOM      8  C   UNL     1       1.378   2.048   0.600  0.00  0.00    +0.115 A 
ATOM      9  N   UNL     1       1.942   2.926   1.406  0.00  0.00    -0.263 NA
ATOM     10  C   UNL     1       3.121   3.453   1.140  0.00  0.00    +0.111 A 
ATOM     11  C   UNL     1       3.813   3.099  -0.004  0.00  0.00    +0.020 A 
ATOM     12  C   UNL     1       3.253   2.175  -0.872  0.00  0.00    +0.008 A 
ENDBRANCH   3   7
TORSDOF 1
ENDMDL
MODEL 4
REMARK VINA RESULT:    -3.354      1.243      4.684
REMARK INTER + INTRA:          -3.772
REMARK INTER:                  -3.516
REMARK INTRA:                  -0.256
REMARK UNBOUND:                -0.222
REMARK  Name = Nicotine.pdb
REMARK  2 active torsions:
REMARK  status: ('A' for Active; 'I' for Inactive)
REMARK    1  A    between atoms: C_3  and  C_6
REMARK    2  A    between atoms: N_4  and  C_12
REMARK                            x       y       z     vdW  Elec       q    Type
REMARK                         _______ _______ _______ _____ _____    ______ ____
ROOT
ATOM      1  C   UNL     1       0.327  -1.601  -0.080  0.00  0.00    +0.017 C 
ATOM      2  C   UNL     1       0.764  -0.210   0.448  0.00  0.00    +0.025 C 
ATOM      3  C   UNL     1       0.222   0.756  -0.627  0.00  0.00    +0.088 C 
ATOM      4  N   UNL     1       0.045  -0.025  -1.865  0.00  0.00    -0.298 NA
ATOM      5  C   UNL     1       0.475  -1.416  -1.611  0.00  0.00    +0.085 C 
ATOM      6  C   UNL     1      -1.350   0.021  -2.322  0.00  0.00    +0.105 C 
ENDROOT
BRANCH   3   7
ATOM      7  C   UNL     1       1.209   1.871  -0.859  0.00  0.00    -0.012 A 
ATOM      8  C   UNL     1       0.816   3.028  -1.504  0.00  0.00    +0.115 A 
ATOM      9  N   UNL     1       1.673   4.009  -1.711  0.00  0.00    -0.263 NA
ATOM     10  C   UNL     1       2.928   3.928  -1.316  0.00  0.00    +0.111 A 
ATOM     11  C   UNL     1       3.393   2.800  -0.664  0.00  0.00    +0.020 A 
ATOM     12  C   UNL     1       2.520   1.751  -0.424  0.00  0.00    +0.008 A 
ENDBRANCH   3   7
TORSDOF 1
ENDMDL
MODEL 5
REMARK VINA RESULT:    -3.314      1.315      4.430
REMARK INTER + INTRA:          -3.729
REMARK INTER:                  -3.529
REMARK INTRA:                  -0.201
REMARK UNBOUND:                -0.222
REMARK  Name = Nicotine.pdb
REMARK  2 active torsions:
REMARK  status: ('A' for Active; 'I' for Inactive)
REMARK    1  A    between atoms: C_3  and  C_6
REMARK    2  A    between atoms: N_4  and  C_12
REMARK                            x       y       z     vdW  Elec       q    Type
REMARK                         _______ _______ _______ _____ _____    ______ ____
ROOT
ATOM      1  C   UNL     1      -0.708  -1.984  -2.014  0.00  0.00    +0.017 C 
ATOM      2  C   UNL     1       0.494  -1.057  -2.337  0.00  0.00    +0.025 C 
ATOM      3  C   UNL     1       1.082  -0.753  -0.943  0.00  0.00    +0.088 C 
ATOM      4  N   UNL     1       0.010  -0.980   0.043  0.00  0.00    -0.298 NA
ATOM      5  C   UNL     1      -1.215  -1.384  -0.679  0.00  0.00    +0.085 C 
ATOM      6  C   UNL     1       0.404  -1.999   1.024  0.00  0.00    +0.105 C 
ENDROOT
BRANCH   3   7
ATOM      7  C   UNL     1       1.542   0.680  -0.882  0.00  0.00    -0.012 A 
ATOM      8  C   UNL     1       2.889   0.980  -0.815  0.00  0.00    +0.115 A 
ATOM      9  N   UNL     1       3.300   2.232  -0.761  0.00  0.00    -0.263 NA
ATOM     10  C   UNL     1       2.451   3.241  -0.769  0.00  0.00    +0.111 A 
ATOM     11  C   UNL     1       1.088   3.018  -0.835  0.00  0.00    +0.020 A 
ATOM     12  C   UNL     1       0.619   1.715  -0.898  0.00  0.00    +0.008 A 
ENDBRANCH   3   7
TORSDOF 1
ENDMDL
MODEL 6
REMARK VINA RESULT:    -2.359      3.115      4.584
REMARK INTER + INTRA:          -2.718
REMARK INTER:                  -2.503
REMARK INTRA:                  -0.215
REMARK UNBOUND:                -0.222
REMARK  Name = Nicotine.pdb
REMARK  2 active torsions:
REMARK  status: ('A' for Active; 'I' for Inactive)
REMARK    1  A    between atoms: C_3  and  C_6
REMARK    2  A    between atoms: N_4  and  C_12
REMARK                            x       y       z     vdW  Elec       q    Type
REMARK                         _______ _______ _______ _____ _____    ______ ____
ROOT
ATOM      1  C   UNL     1       1.016   4.219  -2.520  0.00  0.00    +0.017 C 
ATOM      2  C   UNL     1       1.433   3.202  -1.426  0.00  0.00    +0.025 C 
ATOM      3  C   UNL     1       2.441   4.002  -0.574  0.00  0.00    +0.088 C 
ATOM      4  N   UNL     1       2.961   5.091  -1.421  0.00  0.00    -0.298 NA
ATOM      5  C   UNL     1       2.342   4.984  -2.759  0.00  0.00    +0.085 C 
ATOM      6  C   UNL     1       2.690   6.403  -0.818  0.00  0.00    +0.105 C 
ENDROOT
BRANCH   3   7
ATOM      7  C   UNL     1       3.571   3.106  -0.138  0.00  0.00    -0.012 A 
ATOM      8  C   UNL     1       3.876   1.966  -0.858  0.00  0.00    +0.115 A 
ATOM      9  N   UNL     1       4.863   1.176  -0.484  0.00  0.00    -0.263 NA
ATOM     10  C   UNL     1       5.593   1.437   0.583  0.00  0.00    +0.111 A 
ATOM     11  C   UNL     1       5.347   2.559   1.352  0.00  0.00    +0.020 A 
ATOM     12  C   UNL     1       4.320   3.416   0.986  0.00  0.00    +0.008 A 
ENDBRANCH   3   7
TORSDOF 1
ENDMDL
MODEL 7
REMARK VINA RESULT:    -2.018      5.652      7.042
REMARK INTER + INTRA:          -2.357
REMARK INTER:                  -2.133
REMARK INTRA:                  -0.224
REMARK UNBOUND:                -0.222
REMARK  Name = Nicotine.pdb
REMARK  2 active torsions:
REMARK  status: ('A' for Active; 'I' for Inactive)
REMARK    1  A    between atoms: C_3  and  C_6
REMARK    2  A    between atoms: N_4  and  C_12
REMARK                            x       y       z     vdW  Elec       q    Type
REMARK                         _______ _______ _______ _____ _____    ______ ____
ROOT
ATOM      1  C   UNL     1       6.066  -5.698  -2.734  0.00  0.00    +0.017 C 
ATOM      2  C   UNL     1       5.033  -4.627  -3.173  0.00  0.00    +0.025 C 
ATOM      3  C   UNL     1       5.742  -3.299  -2.830  0.00  0.00    +0.088 C 
ATOM      4  N   UNL     1       6.754  -3.597  -1.802  0.00  0.00    -0.298 NA
ATOM      5  C   UNL     1       6.685  -5.038  -1.476  0.00  0.00    +0.085 C 
ATOM      6  C   UNL     1       8.098  -3.224  -2.261  0.00  0.00    +0.105 C 
ENDROOT
BRANCH   3   7
ATOM      7  C   UNL     1       4.742  -2.307  -2.295  0.00  0.00    -0.012 A 
ATOM      8  C   UNL     1       5.169  -1.139  -1.693  0.00  0.00    +0.115 A 
ATOM      9  N   UNL     1       4.301  -0.266  -1.222  0.00  0.00    -0.263 NA
ATOM     10  C   UNL     1       3.001  -0.468  -1.305  0.00  0.00    +0.111 A 
ATOM     11  C   UNL     1       2.498  -1.613  -1.894  0.00  0.00    +0.020 A 
ATOM     12  C   UNL     1       3.381  -2.552  -2.405  0.00  0.00    +0.008 A 
ENDBRANCH   3   7
TORSDOF 1
ENDMDL
MODEL 8
REMARK VINA RESULT:    -1.600      1.930      2.347
REMARK INTER + INTRA:          -1.915
REMARK INTER:                  -1.696
REMARK INTRA:                  -0.219
REMARK UNBOUND:                -0.222
REMARK  Name = Nicotine.pdb
REMARK  2 active torsions:
REMARK  status: ('A' for Active; 'I' for Inactive)
REMARK    1  A    between atoms: C_3  and  C_6
REMARK    2  A    between atoms: N_4  and  C_12
REMARK                            x       y       z     vdW  Elec       q    Type
REMARK                         _______ _______ _______ _____ _____    ______ ____
ROOT
ATOM      1  C   UNL     1       0.894   3.715  -1.317  0.00  0.00    +0.017 C 
ATOM      2  C   UNL     1       0.638   2.188  -1.213  0.00  0.00    +0.025 C 
ATOM      3  C   UNL     1       1.861   1.684  -0.417  0.00  0.00    +0.088 C 
ATOM      4  N   UNL     1       2.931   2.684  -0.581  0.00  0.00    -0.298 NA
ATOM      5  C   UNL     1       2.436   3.765  -1.460  0.00  0.00    +0.085 C 
ATOM      6  C   UNL     1       3.359   3.216   0.719  0.00  0.00    +0.105 C 
ENDROOT
BRANCH   3   7
ATOM      7  C   UNL     1       2.313   0.353  -0.959  0.00  0.00    -0.012 A 
ATOM      8  C   UNL     1       3.653   0.112  -1.191  0.00  0.00    +0.115 A 
ATOM      9  N   UNL     1       4.058  -1.051  -1.665  0.00  0.00    -0.263 NA
ATOM     10  C   UNL     1       3.208  -2.022  -1.935  0.00  0.00    +0.111 A 
ATOM     11  C   UNL     1       1.852  -1.854  -1.728  0.00  0.00    +0.020 A 
ATOM     12  C   UNL     1       1.390  -0.647  -1.225  0.00  0.00    +0.008 A 
ENDBRANCH   3   7
TORSDOF 1
ENDMDL
