MODEL 1
REMARK VINA RESULT:     6.994      0.000      0.000
REMARK INTER + INTRA:           7.217
REMARK INTER:                   7.402
REMARK INTRA:                  -0.185
REMARK UNBOUND:                -0.185
REMARK  Name = Nicotine.pdb
REMARK  2 active torsions:
REMARK  status: ('A' for Active; 'I' for Inactive)
REMARK    1  A    between atoms: C_3  and  C_6
REMARK    2  A    between atoms: N_4  and  C_12
REMARK                            x       y       z     vdW  Elec       q    Type
REMARK                         _______ _______ _______ _____ _____    ______ ____
ROOT
ATOM      1  C   UNL     1      -2.062  -4.540  -4.141  0.00  0.00    +0.017 C 
ATOM      2  C   UNL     1      -1.118  -3.411  -4.631  0.00  0.00    +0.025 C 
ATOM      3  C   UNL     1      -0.921  -3.747  -6.124  0.00  0.00    +0.088 C 
ATOM      4  N   UNL     1      -1.218  -5.181  -6.293  0.00  0.00    -0.298 NA
ATOM      5  C   UNL     1      -1.563  -5.749  -4.972  0.00  0.00    +0.085 C 
ATOM      6  C   UNL     1      -2.309  -5.384  -7.255  0.00  0.00    +0.105 C 
ENDROOT
BRANCH   3   7
ATOM      7  C   UNL     1       0.503  -3.466  -6.529  0.00  0.00    -0.012 A 
ATOM      8  C   UNL     1       1.439  -4.483  -6.547  0.00  0.00    +0.115 A 
ATOM      9  N   UNL     1       2.687  -4.246  -6.900  0.00  0.00    -0.263 NA
ATOM     10  C   UNL     1       3.091  -3.041  -7.249  0.00  0.00    +0.111 A 
ATOM     11  C   UNL     1       2.212  -1.974  -7.256  0.00  0.00    +0.020 A 
ATOM     12  C   UNL     1       0.890  -2.186  -6.895  0.00  0.00    +0.008 A 
ENDBRANCH   3   7
TORSDOF 1
ENDMDL
MODEL 2
REMARK VINA RESULT:     8.248      8.807     10.460
REMARK INTER + INTRA:           8.545
REMARK INTER:                   8.760
REMARK INTRA:                  -0.215
REMARK UNBOUND:                -0.185
REMARK  Name = Nicotine.pdb
REMARK  2 active torsions:
REMARK  status: ('A' for Active; 'I' for Inactive)
REMARK    1  A    between atoms: C_3  and  C_6
REMARK    2  A    between atoms: N_4  and  C_12
REMARK                            x       y       z     vdW  Elec       q    Type
REMARK                         _______ _______ _______ _____ _____    ______ ____
ROOT
ATOM      1  C   UNL     1       1.612   4.229  -5.979  0.00  0.00    +0.017 C 
ATOM      2  C   UNL     1       0.554   4.602  -7.050  0.00  0.00    +0.025 C 
ATOM      3  C   UNL     1      -0.118   5.857  -6.452  0.00  0.00    +0.088 C 
ATOM      4  N   UNL     1       0.115   5.826  -4.997  0.00  0.00    -0.298 NA
ATOM      5  C   UNL     1       0.875   4.601  -4.668  0.00  0.00    +0.085 C 
ATOM      6  C   UNL     1       0.834   7.027  -4.553  0.00  0.00    +0.105 C 
ENDROOT
BRANCH   3   7
ATOM      7  C   UNL     1      -1.597   5.831  -6.737  0.00  0.00    -0.012 A 
ATOM      8  C   UNL     1      -2.251   4.629  -6.929  0.00  0.00    +0.115 A 
ATOM      9  N   UNL     1      -3.546   4.598  -7.179  0.00  0.00    -0.263 NA
ATOM     10  C   UNL     1      -4.264   5.701  -7.255  0.00  0.00    +0.111 A 
ATOM     11  C   UNL     1      -3.678   6.940  -7.073  0.00  0.00    +0.020 A 
ATOM     12  C   UNL     1      -2.320   7.012  -6.803  0.00  0.00    +0.008 A 
ENDBRANCH   3   7
TORSDOF 1
ENDMDL
MODEL 3
REMARK VINA RESULT:     8.331      1.317      2.133
REMARK INTER + INTRA:           8.633
REMARK INTER:                   8.847
REMARK INTRA:                  -0.213
REMARK UNBOUND:                -0.185
REMARK  Name = Nicotine.pdb
REMARK  2 active torsions:
REMARK  status: ('A' for Active; 'I' for Inactive)
REMARK    1  A    between atoms: C_3  and  C_6
REMARK    2  A    between atoms: N_4  and  C_12
REMARK                            x       y       z     vdW  Elec       q    Type
REMARK                         _______ _______ _______ _____ _____    ______ ____
ROOT
ATOM      1  C   UNL     1      -3.278  -3.899  -6.236  0.00  0.00    +0.017 C 
ATOM      2  C   UNL     1      -2.100  -3.806  -7.241  0.00  0.00    +0.025 C 
ATOM      3  C   UNL     1      -0.939  -4.479  -6.478  0.00  0.00    +0.088 C 
ATOM      4  N   UNL     1      -1.261  -4.408  -5.041  0.00  0.00    -0.298 NA
ATOM      5  C   UNL     1      -2.551  -3.702  -4.882  0.00  0.00    +0.085 C 
ATOM      6  C   UNL     1      -1.318  -5.749  -4.446  0.00  0.00    +0.105 C 
ENDROOT
BRANCH   3   7
ATOM      7  C   UNL     1       0.348  -3.745  -6.753  0.00  0.00    -0.012 A 
ATOM      8  C   UNL     1       0.341  -2.383  -6.983  0.00  0.00    +0.115 A 
ATOM      9  N   UNL     1       1.463  -1.733  -7.224  0.00  0.00    -0.263 NA
ATOM     10  C   UNL     1       2.628  -2.350  -7.256  0.00  0.00    +0.111 A 
ATOM     11  C   UNL     1       2.714  -3.712  -7.034  0.00  0.00    +0.020 A 
ATOM     12  C   UNL     1       1.555  -4.427  -6.772  0.00  0.00    +0.008 A 
ENDBRANCH   3   7
TORSDOF 1
ENDMDL
