MODEL 1
REMARK VINA RESULT:    -3.422      0.000      0.000
REMARK INTER + INTRA:          -3.810
REMARK INTER:                  -3.622
REMARK INTRA:                  -0.188
REMARK UNBOUND:                -0.188
REMARK  Name = Nicotine.pdb
REMARK  2 active torsions:
REMARK  status: ('A' for Active; 'I' for Inactive)
REMARK    1  A    between atoms: C_3  and  C_6
REMARK    2  A    between atoms: N_4  and  C_12
REMARK                            x       y       z     vdW  Elec       q    Type
REMARK                         _______ _______ _______ _____ _____    ______ ____
ROOT
ATOM      1  C   UNL     1       6.773   3.650   0.104  0.00  0.00    +0.017 C 
ATOM      2  C   UNL     1       6.043   3.018   1.319  0.00  0.00    +0.025 C 
ATOM      3  C   UNL     1       5.835   1.554   0.875  0.00  0.00    +0.088 C 
ATOM      4  N   UNL     1       5.894   1.531  -0.597  0.00  0.00    -0.298 NA
ATOM      5  C   UNL     1       6.102   2.912  -1.082  0.00  0.00    +0.085 C 
ATOM      6  C   UNL     1       6.962   0.640  -1.069  0.00  0.00    +0.105 C 
ENDROOT
BRANCH   3   7
ATOM      7  C   UNL     1       4.490   1.063   1.344  0.00  0.00    -0.012 A 
ATOM      8  C   UNL     1       3.799   1.747   2.326  0.00  0.00    +0.115 A 
ATOM      9  N   UNL     1       2.621   1.324   2.742  0.00  0.00    -0.263 NA
ATOM     10  C   UNL     1       2.059   0.241   2.244  0.00  0.00    +0.111 A 
ATOM     11  C   UNL     1       2.690  -0.495   1.258  0.00  0.00    +0.020 A 
ATOM     12  C   UNL     1       3.927  -0.078   0.792  0.00  0.00    +0.008 A 
ENDBRANCH   3   7
TORSDOF 1
ENDMDL
MODEL 2
REMARK VINA RESULT:    -3.414      1.145      4.529
REMARK INTER + INTRA:          -3.801
REMARK INTER:                  -3.581
REMARK INTRA:                  -0.220
REMARK UNBOUND:                -0.188
REMARK  Name = Nicotine.pdb
REMARK  2 active torsions:
REMARK  status: ('A' for Active; 'I' for Inactive)
REMARK    1  A    between atoms: C_3  and  C_6
REMARK    2  A    between atoms: N_4  and  C_12
REMARK                            x       y       z     vdW  Elec       q    Type
REMARK                         _______ _______ _______ _____ _____    ______ ____
ROOT
ATOM      1  C   UNL     1       2.306  -1.001   1.671  0.00  0.00    +0.017 C 
ATOM      2  C   UNL     1       3.685  -0.747   1.008  0.00  0.00    +0.025 C 
ATOM      3  C   UNL     1       4.277   0.393   1.863  0.00  0.00    +0.088 C 
ATOM      4  N   UNL     1       3.148   1.079   2.518  0.00  0.00    -0.298 NA
ATOM      5  C   UNL     1       1.890   0.432   2.087  0.00  0.00    +0.085 C 
ATOM      6  C   UNL     1       3.286   1.043   3.979  0.00  0.00    +0.105 C 
ENDROOT
BRANCH   3   7
ATOM      7  C   UNL     1       5.024   1.360   0.982  0.00  0.00    -0.012 A 
ATOM      8  C   UNL     1       5.360   2.617   1.450  0.00  0.00    +0.115 A 
ATOM      9  N   UNL     1       6.014   3.469   0.685  0.00  0.00    -0.263 NA
ATOM     10  C   UNL     1       6.371   3.162  -0.546  0.00  0.00    +0.111 A 
ATOM     11  C   UNL     1       6.070   1.924  -1.083  0.00  0.00    +0.020 A 
ATOM     12  C   UNL     1       5.388   1.000  -0.307  0.00  0.00    +0.008 A 
ENDBRANCH   3   7
TORSDOF 1
ENDMDL
MODEL 3
REMARK VINA RESULT:    -3.410      1.717      2.541
REMARK INTER + INTRA:          -3.797
REMARK INTER:                  -3.554
REMARK INTRA:                  -0.243
REMARK UNBOUND:                -0.188
REMARK  Name = Nicotine.pdb
REMARK  2 active torsions:
REMARK  status: ('A' for Active; 'I' for Inactive)
REMARK    1  A    between atoms: C_3  and  C_6
REMARK    2  A    between atoms: N_4  and  C_12
REMARK                            x       y       z     vdW  Elec       q    Type
REMARK                         _______ _______ _______ _____ _____    ______ ____
ROOT
ATOM      1  C   UNL     1       7.585   3.653  -1.036  0.00  0.00    +0.017 C 
ATOM      2  C   UNL     1       6.161   3.110  -0.747  0.00  0.00    +0.025 C 
ATOM      3  C   UNL     1       5.876   3.625   0.680  0.00  0.00    +0.088 C 
ATOM      4  N   UNL     1       7.179   3.892   1.316  0.00  0.00    -0.298 NA
ATOM      5  C   UNL     1       8.250   3.543   0.358  0.00  0.00    +0.085 C 
ATOM      6  C   UNL     1       7.283   5.296   1.734  0.00  0.00    +0.105 C 
ENDROOT
BRANCH   3   7
ATOM      7  C   UNL     1       5.128   2.577   1.463  0.00  0.00    -0.012 A 
ATOM      8  C   UNL     1       4.047   2.931   2.248  0.00  0.00    +0.115 A 
ATOM      9  N   UNL     1       3.386   2.020   2.936  0.00  0.00    -0.263 NA
ATOM     10  C   UNL     1       3.725   0.747   2.905  0.00  0.00    +0.111 A 
ATOM     11  C   UNL     1       4.795   0.318   2.142  0.00  0.00    +0.020 A 
ATOM     12  C   UNL     1       5.510   1.246   1.400  0.00  0.00    +0.008 A 
ENDBRANCH   3   7
TORSDOF 1
ENDMDL
MODEL 4
REMARK VINA RESULT:    -3.392      2.961      4.434
REMARK INTER + INTRA:          -3.779
REMARK INTER:                  -3.527
REMARK INTRA:                  -0.252
REMARK UNBOUND:                -0.188
REMARK  Name = Nicotine.pdb
REMARK  2 active torsions:
REMARK  status: ('A' for Active; 'I' for Inactive)
REMARK    1  A    between atoms: C_3  and  C_6
REMARK    2  A    between atoms: N_4  and  C_12
REMARK                            x       y       z     vdW  Elec       q    Type
REMARK                         _______ _______ _______ _____ _____    ______ ____
ROOT
ATOM      1  C   UNL     1       2.843  -3.464   0.451  0.00  0.00    +0.017 C 
ATOM      2  C   UNL     1       2.084  -2.602   1.495  0.00  0.00    +0.025 C 
ATOM      3  C   UNL     1       2.618  -1.179   1.225  0.00  0.00    +0.088 C 
ATOM      4  N   UNL     1       3.919  -1.322   0.548  0.00  0.00    -0.298 NA
ATOM      5  C   UNL     1       4.224  -2.762   0.411  0.00  0.00    +0.085 C 
ATOM      6  C   UNL     1       3.906  -0.659  -0.763  0.00  0.00    +0.105 C 
ENDROOT
BRANCH   3   7
ATOM      7  C   UNL     1       2.794  -0.442   2.527  0.00  0.00    -0.012 A 
ATOM      8  C   UNL     1       3.064   0.914   2.532  0.00  0.00    +0.115 A 
ATOM      9  N   UNL     1       3.219   1.567   3.667  0.00  0.00    -0.263 NA
ATOM     10  C   UNL     1       3.125   0.960   4.834  0.00  0.00    +0.111 A 
ATOM     11  C   UNL     1       2.856  -0.394   4.908  0.00  0.00    +0.020 A 
ATOM     12  C   UNL     1       2.681  -1.112   3.735  0.00  0.00    +0.008 A 
ENDBRANCH   3   7
TORSDOF 1
ENDMDL
MODEL 5
REMARK VINA RESULT:    -3.351      1.773      2.258
REMARK INTER + INTRA:          -3.734
REMARK INTER:                  -3.494
REMARK INTRA:                  -0.240
REMARK UNBOUND:                -0.188
REMARK  Name = Nicotine.pdb
REMARK  2 active torsions:
REMARK  status: ('A' for Active; 'I' for Inactive)
REMARK    1  A    between atoms: C_3  and  C_6
REMARK    2  A    between atoms: N_4  and  C_12
REMARK                            x       y       z     vdW  Elec       q    Type
REMARK                         _______ _______ _______ _____ _____    ______ ____
ROOT
ATOM      1  C   UNL     1       6.910   3.354  -1.043  0.00  0.00    +0.017 C 
ATOM      2  C   UNL     1       6.636   2.139  -0.118  0.00  0.00    +0.025 C 
ATOM      3  C   UNL     1       5.933   1.137  -1.059  0.00  0.00    +0.088 C 
ATOM      4  N   UNL     1       5.360   1.914  -2.173  0.00  0.00    -0.298 NA
ATOM      5  C   UNL     1       5.654   3.345  -1.950  0.00  0.00    +0.085 C 
ATOM      6  C   UNL     1       5.896   1.460  -3.463  0.00  0.00    +0.105 C 
ENDROOT
BRANCH   3   7
ATOM      7  C   UNL     1       4.837   0.418  -0.316  0.00  0.00    -0.012 A 
ATOM      8  C   UNL     1       4.073  -0.541  -0.953  0.00  0.00    +0.115 A 
ATOM      9  N   UNL     1       3.112  -1.175  -0.310  0.00  0.00    -0.263 NA
ATOM     10  C   UNL     1       2.842  -0.923   0.956  0.00  0.00    +0.111 A 
ATOM     11  C   UNL     1       3.565   0.023   1.659  0.00  0.00    +0.020 A 
ATOM     12  C   UNL     1       4.586   0.706   1.017  0.00  0.00    +0.008 A 
ENDBRANCH   3   7
TORSDOF 1
ENDMDL
MODEL 6
REMARK VINA RESULT:    -3.322      2.129      4.641
REMARK INTER + INTRA:          -3.704
REMARK INTER:                  -3.455
REMARK INTRA:                  -0.249
REMARK UNBOUND:                -0.188
REMARK  Name = Nicotine.pdb
REMARK  2 active torsions:
REMARK  status: ('A' for Active; 'I' for Inactive)
REMARK    1  A    between atoms: C_3  and  C_6
REMARK    2  A    between atoms: N_4  and  C_12
REMARK                            x       y       z     vdW  Elec       q    Type
REMARK                         _______ _______ _______ _____ _____    ______ ____
ROOT
ATOM      1  C   UNL     1       3.346   0.529   4.641  0.00  0.00    +0.017 C 
ATOM      2  C   UNL     1       3.081   1.001   3.187  0.00  0.00    +0.025 C 
ATOM      3  C   UNL     1       3.143  -0.313   2.379  0.00  0.00    +0.088 C 
ATOM      4  N   UNL     1       3.924  -1.277   3.173  0.00  0.00    -0.298 NA
ATOM      5  C   UNL     1       4.367  -0.614   4.418  0.00  0.00    +0.085 C 
ATOM      6  C   UNL     1       3.134  -2.479   3.469  0.00  0.00    +0.105 C 
ENDROOT
BRANCH   3   7
ATOM      7  C   UNL     1       3.819  -0.069   1.055  0.00  0.00    -0.012 A 
ATOM      8  C   UNL     1       3.347  -0.675  -0.093  0.00  0.00    +0.115 A 
ATOM      9  N   UNL     1       3.933  -0.467  -1.256  0.00  0.00    -0.263 NA
ATOM     10  C   UNL     1       4.985   0.320  -1.371  0.00  0.00    +0.111 A 
ATOM     11  C   UNL     1       5.513   0.961  -0.266  0.00  0.00    +0.020 A 
ATOM     12  C   UNL     1       4.920   0.771   0.972  0.00  0.00    +0.008 A 
ENDBRANCH   3   7
TORSDOF 1
ENDMDL
MODEL 7
REMARK VINA RESULT:    -3.236      2.326      3.766
REMARK INTER + INTRA:          -3.613
REMARK INTER:                  -3.429
REMARK INTRA:                  -0.184
REMARK UNBOUND:                -0.188
REMARK  Name = Nicotine.pdb
REMARK  2 active torsions:
REMARK  status: ('A' for Active; 'I' for Inactive)
REMARK    1  A    between atoms: C_3  and  C_6
REMARK    2  A    between atoms: N_4  and  C_12
REMARK                            x       y       z     vdW  Elec       q    Type
REMARK                         _______ _______ _______ _____ _____    ______ ____
ROOT
ATOM      1  C   UNL     1       4.391  -2.921  -1.211  0.00  0.00    +0.017 C 
ATOM      2  C   UNL     1       3.236  -2.475  -0.276  0.00  0.00    +0.025 C 
ATOM      3  C   UNL     1       3.466  -0.955  -0.140  0.00  0.00    +0.088 C 
ATOM      4  N   UNL     1       4.882  -0.697  -0.456  0.00  0.00    -0.298 NA
ATOM      5  C   UNL     1       5.540  -1.987  -0.755  0.00  0.00    +0.085 C 
ATOM      6  C   UNL     1       5.010   0.233  -1.585  0.00  0.00    +0.105 C 
ENDROOT
BRANCH   3   7
ATOM      7  C   UNL     1       3.165  -0.515   1.269  0.00  0.00    -0.012 A 
ATOM      8  C   UNL     1       2.306  -1.250   2.063  0.00  0.00    +0.115 A 
ATOM      9  N   UNL     1       2.037  -0.872   3.298  0.00  0.00    -0.263 NA
ATOM     10  C   UNL     1       2.572   0.213   3.822  0.00  0.00    +0.111 A 
ATOM     11  C   UNL     1       3.441   0.999   3.088  0.00  0.00    +0.020 A 
ATOM     12  C   UNL     1       3.751   0.630   1.788  0.00  0.00    +0.008 A 
ENDBRANCH   3   7
TORSDOF 1
ENDMDL
MODEL 8
REMARK VINA RESULT:    -3.086      2.839      4.396
REMARK INTER + INTRA:          -3.454
REMARK INTER:                  -3.248
REMARK INTRA:                  -0.206
REMARK UNBOUND:                -0.188
REMARK  Name = Nicotine.pdb
REMARK  2 active torsions:
REMARK  status: ('A' for Active; 'I' for Inactive)
REMARK    1  A    between atoms: C_3  and  C_6
REMARK    2  A    between atoms: N_4  and  C_12
REMARK                            x       y       z     vdW  Elec       q    Type
REMARK                         _______ _______ _______ _____ _____    ______ ____
ROOT
ATOM      1  C   UNL     1       5.132   0.930   0.515  0.00  0.00    +0.017 C 
ATOM      2  C   UNL     1       4.518  -0.323  -0.161  0.00  0.00    +0.025 C 
ATOM      3  C   UNL     1       3.298  -0.637   0.730  0.00  0.00    +0.088 C 
ATOM      4  N   UNL     1       3.548  -0.020   2.046  0.00  0.00    -0.298 NA
ATOM      5  C   UNL     1       4.873   0.635   2.014  0.00  0.00    +0.085 C 
ATOM      6  C   UNL     1       2.492   0.943   2.386  0.00  0.00    +0.105 C 
ENDROOT
BRANCH   3   7
ATOM      7  C   UNL     1       3.143  -2.128   0.883  0.00  0.00    -0.012 A 
ATOM      8  C   UNL     1       3.125  -2.946  -0.231  0.00  0.00    +0.115 A 
ATOM      9  N   UNL     1       2.991  -4.252  -0.106  0.00  0.00    -0.263 NA
ATOM     10  C   UNL     1       2.868  -4.827   1.074  0.00  0.00    +0.111 A 
ATOM     11  C   UNL     1       2.878  -4.072   2.233  0.00  0.00    +0.020 A 
ATOM     12  C   UNL     1       3.023  -2.697   2.142  0.00  0.00    +0.008 A 
ENDBRANCH   3   7
TORSDOF 1
ENDMDL
MODEL 9
REMARK VINA RESULT:    -3.065      1.920      3.602
REMARK INTER + INTRA:          -3.432
REMARK INTER:                  -3.183
REMARK INTRA:                  -0.248
REMARK UNBOUND:                -0.188
REMARK  Name = Nicotine.pdb
REMARK  2 active torsions:
REMARK  status: ('A' for Active; 'I' for Inactive)
REMARK    1  A    between atoms: C_3  and  C_6
REMARK    2  A    between atoms: N_4  and  C_12
REMARK                            x       y       z     vdW  Elec       q    Type
REMARK                         _______ _______ _______ _____ _____    ______ ____
ROOT
ATOM      1  C   UNL     1       6.317  -2.115   0.483  0.00  0.00    +0.017 C 
ATOM      2  C   UNL     1       6.221  -1.028   1.586  0.00  0.00    +0.025 C 
ATOM      3  C   UNL     1       4.740  -0.598   1.521  0.00  0.00    +0.088 C 
ATOM      4  N   UNL     1       4.240  -0.954   0.182  0.00  0.00    -0.298 NA
ATOM      5  C   UNL     1       5.347  -1.559  -0.589  0.00  0.00    +0.085 C 
ATOM      6  C   UNL     1       3.098  -1.873   0.273  0.00  0.00    +0.105 C 
ENDROOT
BRANCH   3   7
ATOM      7  C   UNL     1       4.629   0.889   1.733  0.00  0.00    -0.012 A 
ATOM      8  C   UNL     1       3.606   1.412   2.501  0.00  0.00    +0.115 A 
ATOM      9  N   UNL     1       3.501   2.713   2.691  0.00  0.00    -0.263 NA
ATOM     10  C   UNL     1       4.359   3.562   2.162  0.00  0.00    +0.111 A 
ATOM     11  C   UNL     1       5.409   3.113   1.382  0.00  0.00    +0.020 A 
ATOM     12  C   UNL     1       5.554   1.751   1.164  0.00  0.00    +0.008 A 
ENDBRANCH   3   7
TORSDOF 1
ENDMDL
MODEL 10
REMARK VINA RESULT:    -3.031      3.068      5.161
REMARK INTER + INTRA:          -3.396
REMARK INTER:                  -3.153
REMARK INTRA:                  -0.243
REMARK UNBOUND:                -0.188
REMARK  Name = Nicotine.pdb
REMARK  2 active torsions:
REMARK  status: ('A' for Active; 'I' for Inactive)
REMARK    1  A    between atoms: C_3  and  C_6
REMARK    2  A    between atoms: N_4  and  C_12
REMARK                            x       y       z     vdW  Elec       q    Type
REMARK                         _______ _______ _______ _____ _____    ______ ____
ROOT
ATOM      1  C   UNL     1       4.698  -4.452   0.305  0.00  0.00    +0.017 C 
ATOM      2  C   UNL     1       4.870  -3.448   1.476  0.00  0.00    +0.025 C 
ATOM      3  C   UNL     1       3.415  -3.096   1.849  0.00  0.00    +0.088 C 
ATOM      4  N   UNL     1       2.579  -3.388   0.671  0.00  0.00    -0.298 NA
ATOM      5  C   UNL     1       3.452  -3.879  -0.417  0.00  0.00    +0.085 C 
ATOM      6  C   UNL     1       1.537  -4.372   0.994  0.00  0.00    +0.105 C 
ENDROOT
BRANCH   3   7
ATOM      7  C   UNL     1       3.315  -1.634   2.200  0.00  0.00    -0.012 A 
ATOM      8  C   UNL     1       2.597  -1.229   3.310  0.00  0.00    +0.115 A 
ATOM      9  N   UNL     1       2.505   0.048   3.624  0.00  0.00    -0.263 NA
ATOM     10  C   UNL     1       3.087   0.984   2.901  0.00  0.00    +0.111 A 
ATOM     11  C   UNL     1       3.822   0.654   1.777  0.00  0.00    +0.020 A 
ATOM     12  C   UNL     1       3.946  -0.679   1.418  0.00  0.00    +0.008 A 
ENDBRANCH   3   7
TORSDOF 1
ENDMDL
