MODEL 1
REMARK VINA RESULT:    -2.939      0.000      0.000
REMARK INTER + INTRA:          -3.366
REMARK INTER:                  -3.111
REMARK INTRA:                  -0.254
REMARK UNBOUND:                -0.254
REMARK  Name = Nicotine.pdb
REMARK  2 active torsions:
REMARK  status: ('A' for Active; 'I' for Inactive)
REMARK    1  A    between atoms: C_3  and  C_6
REMARK    2  A    between atoms: N_4  and  C_12
REMARK                            x       y       z     vdW  Elec       q    Type
REMARK                         _______ _______ _______ _____ _____    ______ ____
ROOT
ATOM      1  C   UNL     1      10.428  -1.978   4.799  0.00  0.00    +0.017 C 
ATOM      2  C   UNL     1       9.075  -1.964   4.040  0.00  0.00    +0.025 C 
ATOM      3  C   UNL     1       8.468  -3.340   4.386  0.00  0.00    +0.088 C 
ATOM      4  N   UNL     1       9.582  -4.222   4.780  0.00  0.00    -0.298 NA
ATOM      5  C   UNL     1      10.846  -3.464   4.667  0.00  0.00    +0.085 C 
ATOM      6  C   UNL     1       9.393  -4.733   6.144  0.00  0.00    +0.105 C 
ENDROOT
BRANCH   3   7
ATOM      7  C   UNL     1       7.763  -3.908   3.182  0.00  0.00    -0.012 A 
ATOM      8  C   UNL     1       6.660  -4.725   3.338  0.00  0.00    +0.115 A 
ATOM      9  N   UNL     1       6.037  -5.226   2.289  0.00  0.00    -0.263 NA
ATOM     10  C   UNL     1       6.437  -4.971   1.059  0.00  0.00    +0.111 A 
ATOM     11  C   UNL     1       7.532  -4.162   0.824  0.00  0.00    +0.020 A 
ATOM     12  C   UNL     1       8.209  -3.613   1.903  0.00  0.00    +0.008 A 
ENDBRANCH   3   7
TORSDOF 1
ENDMDL
MODEL 2
REMARK VINA RESULT:    -2.817      1.487      4.459
REMARK INTER + INTRA:          -3.236
REMARK INTER:                  -2.985
REMARK INTRA:                  -0.251
REMARK UNBOUND:                -0.254
REMARK  Name = Nicotine.pdb
REMARK  2 active torsions:
REMARK  status: ('A' for Active; 'I' for Inactive)
REMARK    1  A    between atoms: C_3  and  C_6
REMARK    2  A    between atoms: N_4  and  C_12
REMARK                            x       y       z     vdW  Elec       q    Type
REMARK                         _______ _______ _______ _____ _____    ______ ____
ROOT
ATOM      1  C   UNL     1       6.829  -6.068   1.624  0.00  0.00    +0.017 C 
ATOM      2  C   UNL     1       7.970  -5.769   2.632  0.00  0.00    +0.025 C 
ATOM      3  C   UNL     1       7.560  -4.404   3.225  0.00  0.00    +0.088 C 
ATOM      4  N   UNL     1       6.655  -3.761   2.256  0.00  0.00    -0.298 NA
ATOM      5  C   UNL     1       6.508  -4.652   1.085  0.00  0.00    +0.085 C 
ATOM      6  C   UNL     1       5.350  -3.472   2.866  0.00  0.00    +0.105 C 
ENDROOT
BRANCH   3   7
ATOM      7  C   UNL     1       8.782  -3.548   3.433  0.00  0.00    -0.012 A 
ATOM      8  C   UNL     1       8.876  -2.720   4.536  0.00  0.00    +0.115 A 
ATOM      9  N   UNL     1       9.942  -1.967   4.726  0.00  0.00    -0.263 NA
ATOM     10  C   UNL     1      10.954  -1.972   3.880  0.00  0.00    +0.111 A 
ATOM     11  C   UNL     1      10.932  -2.775   2.755  0.00  0.00    +0.020 A 
ATOM     12  C   UNL     1       9.830  -3.584   2.525  0.00  0.00    +0.008 A 
ENDBRANCH   3   7
TORSDOF 1
ENDMDL
MODEL 3
REMARK VINA RESULT:    -2.692      2.035      3.986
REMARK INTER + INTRA:          -3.104
REMARK INTER:                  -2.909
REMARK INTRA:                  -0.195
REMARK UNBOUND:                -0.254
REMARK  Name = Nicotine.pdb
REMARK  2 active torsions:
REMARK  status: ('A' for Active; 'I' for Inactive)
REMARK    1  A    between atoms: C_3  and  C_6
REMARK    2  A    between atoms: N_4  and  C_12
REMARK                            x       y       z     vdW  Elec       q    Type
REMARK                         _______ _______ _______ _____ _____    ______ ____
ROOT
ATOM      1  C   UNL     1       6.904  -6.006   4.440  0.00  0.00    +0.017 C 
ATOM      2  C   UNL     1       8.174  -5.114   4.417  0.00  0.00    +0.025 C 
ATOM      3  C   UNL     1       7.743  -3.919   3.541  0.00  0.00    +0.088 C 
ATOM      4  N   UNL     1       6.614  -4.372   2.708  0.00  0.00    -0.298 NA
ATOM      5  C   UNL     1       6.347  -5.794   3.010  0.00  0.00    +0.085 C 
ATOM      6  C   UNL     1       5.421  -3.550   2.944  0.00  0.00    +0.105 C 
ENDROOT
BRANCH   3   7
ATOM      7  C   UNL     1       8.889  -3.487   2.664  0.00  0.00    -0.012 A 
ATOM      8  C   UNL     1       8.924  -3.851   1.331  0.00  0.00    +0.115 A 
ATOM      9  N   UNL     1       9.924  -3.477   0.556  0.00  0.00    -0.263 NA
ATOM     10  C   UNL     1      10.921  -2.747   1.015  0.00  0.00    +0.111 A 
ATOM     11  C   UNL     1      10.954  -2.345   2.337  0.00  0.00    +0.020 A 
ATOM     12  C   UNL     1       9.918  -2.715   3.181  0.00  0.00    +0.008 A 
ENDBRANCH   3   7
TORSDOF 1
ENDMDL
MODEL 4
REMARK VINA RESULT:    -2.686      1.553      4.247
REMARK INTER + INTRA:          -3.097
REMARK INTER:                  -2.928
REMARK INTRA:                  -0.170
REMARK UNBOUND:                -0.254
REMARK  Name = Nicotine.pdb
REMARK  2 active torsions:
REMARK  status: ('A' for Active; 'I' for Inactive)
REMARK    1  A    between atoms: C_3  and  C_6
REMARK    2  A    between atoms: N_4  and  C_12
REMARK                            x       y       z     vdW  Elec       q    Type
REMARK                         _______ _______ _______ _____ _____    ______ ____
ROOT
ATOM      1  C   UNL     1       6.851  -4.784   1.119  0.00  0.00    +0.017 C 
ATOM      2  C   UNL     1       7.417  -3.498   1.777  0.00  0.00    +0.025 C 
ATOM      3  C   UNL     1       8.777  -3.965   2.337  0.00  0.00    +0.088 C 
ATOM      4  N   UNL     1       8.705  -5.428   2.497  0.00  0.00    -0.298 NA
ATOM      5  C   UNL     1       7.358  -5.881   2.088  0.00  0.00    +0.085 C 
ATOM      6  C   UNL     1       9.748  -6.097   1.709  0.00  0.00    +0.105 C 
ENDROOT
BRANCH   3   7
ATOM      7  C   UNL     1       9.034  -3.313   3.671  0.00  0.00    -0.012 A 
ATOM      8  C   UNL     1       8.287  -3.670   4.778  0.00  0.00    +0.115 A 
ATOM      9  N   UNL     1       8.505  -3.105   5.949  0.00  0.00    -0.263 NA
ATOM     10  C   UNL     1       9.435  -2.185   6.113  0.00  0.00    +0.111 A 
ATOM     11  C   UNL     1      10.222  -1.778   5.051  0.00  0.00    +0.020 A 
ATOM     12  C   UNL     1      10.025  -2.353   3.806  0.00  0.00    +0.008 A 
ENDBRANCH   3   7
TORSDOF 1
ENDMDL
MODEL 5
REMARK VINA RESULT:    -2.463      1.538      4.552
REMARK INTER + INTRA:          -2.862
REMARK INTER:                  -2.652
REMARK INTRA:                  -0.210
REMARK UNBOUND:                -0.254
REMARK  Name = Nicotine.pdb
REMARK  2 active torsions:
REMARK  status: ('A' for Active; 'I' for Inactive)
REMARK    1  A    between atoms: C_3  and  C_6
REMARK    2  A    between atoms: N_4  and  C_12
REMARK                            x       y       z     vdW  Elec       q    Type
REMARK                         _______ _______ _______ _____ _____    ______ ____
ROOT
ATOM      1  C   UNL     1       5.900  -3.824   2.547  0.00  0.00    +0.017 C 
ATOM      2  C   UNL     1       6.938  -2.769   3.015  0.00  0.00    +0.025 C 
ATOM      3  C   UNL     1       8.271  -3.544   2.957  0.00  0.00    +0.088 C 
ATOM      4  N   UNL     1       7.946  -4.980   3.031  0.00  0.00    -0.298 NA
ATOM      5  C   UNL     1       6.480  -5.125   3.158  0.00  0.00    +0.085 C 
ATOM      6  C   UNL     1       8.446  -5.695   1.850  0.00  0.00    +0.105 C 
ENDROOT
BRANCH   3   7
ATOM      7  C   UNL     1       9.142  -3.154   4.122  0.00  0.00    -0.012 A 
ATOM      8  C   UNL     1       9.447  -1.826   4.353  0.00  0.00    +0.115 A 
ATOM      9  N   UNL     1      10.209  -1.475   5.371  0.00  0.00    -0.263 NA
ATOM     10  C   UNL     1      10.708  -2.368   6.203  0.00  0.00    +0.111 A 
ATOM     11  C   UNL     1      10.446  -3.715   6.036  0.00  0.00    +0.020 A 
ATOM     12  C   UNL     1       9.644  -4.121   4.980  0.00  0.00    +0.008 A 
ENDBRANCH   3   7
TORSDOF 1
ENDMDL
MODEL 6
REMARK VINA RESULT:    -2.358      1.525      2.300
REMARK INTER + INTRA:          -2.751
REMARK INTER:                  -2.564
REMARK INTRA:                  -0.186
REMARK UNBOUND:                -0.254
REMARK  Name = Nicotine.pdb
REMARK  2 active torsions:
REMARK  status: ('A' for Active; 'I' for Inactive)
REMARK    1  A    between atoms: C_3  and  C_6
REMARK    2  A    between atoms: N_4  and  C_12
REMARK                            x       y       z     vdW  Elec       q    Type
REMARK                         _______ _______ _______ _____ _____    ______ ____
ROOT
ATOM      1  C   UNL     1      10.954  -5.384   4.333  0.00  0.00    +0.017 C 
ATOM      2  C   UNL     1       9.896  -5.319   3.200  0.00  0.00    +0.025 C 
ATOM      3  C   UNL     1       9.433  -3.848   3.242  0.00  0.00    +0.088 C 
ATOM      4  N   UNL     1       9.741  -3.331   4.588  0.00  0.00    -0.298 NA
ATOM      5  C   UNL     1      10.348  -4.420   5.383  0.00  0.00    +0.085 C 
ATOM      6  C   UNL     1      10.637  -2.170   4.514  0.00  0.00    +0.105 C 
ENDROOT
BRANCH   3   7
ATOM      7  C   UNL     1       7.949  -3.770   2.989  0.00  0.00    -0.012 A 
ATOM      8  C   UNL     1       7.328  -4.704   2.182  0.00  0.00    +0.115 A 
ATOM      9  N   UNL     1       6.030  -4.643   1.955  0.00  0.00    -0.263 NA
ATOM     10  C   UNL     1       5.278  -3.698   2.483  0.00  0.00    +0.111 A 
ATOM     11  C   UNL     1       5.829  -2.730   3.302  0.00  0.00    +0.020 A 
ATOM     12  C   UNL     1       7.189  -2.764   3.567  0.00  0.00    +0.008 A 
ENDBRANCH   3   7
TORSDOF 1
ENDMDL
MODEL 7
REMARK VINA RESULT:    -2.310      2.125      2.805
REMARK INTER + INTRA:          -2.699
REMARK INTER:                  -2.496
REMARK INTRA:                  -0.203
REMARK UNBOUND:                -0.254
REMARK  Name = Nicotine.pdb
REMARK  2 active torsions:
REMARK  status: ('A' for Active; 'I' for Inactive)
REMARK    1  A    between atoms: C_3  and  C_6
REMARK    2  A    between atoms: N_4  and  C_12
REMARK                            x       y       z     vdW  Elec       q    Type
REMARK                         _______ _______ _______ _____ _____    ______ ____
ROOT
ATOM      1  C   UNL     1       9.546  -2.208   6.129  0.00  0.00    +0.017 C 
ATOM      2  C   UNL     1      10.069  -1.973   4.687  0.00  0.00    +0.025 C 
ATOM      3  C   UNL     1       9.030  -2.712   3.817  0.00  0.00    +0.088 C 
ATOM      4  N   UNL     1       8.374  -3.714   4.676  0.00  0.00    -0.298 NA
ATOM      5  C   UNL     1       8.976  -3.645   6.024  0.00  0.00    +0.085 C 
ATOM      6  C   UNL     1       6.924  -3.490   4.733  0.00  0.00    +0.105 C 
ENDROOT
BRANCH   3   7
ATOM      7  C   UNL     1       9.720  -3.395   2.664  0.00  0.00    -0.012 A 
ATOM      8  C   UNL     1       9.889  -4.767   2.665  0.00  0.00    +0.115 A 
ATOM      9  N   UNL     1      10.491  -5.373   1.660  0.00  0.00    -0.263 NA
ATOM     10  C   UNL     1      10.954  -4.702   0.623  0.00  0.00    +0.111 A 
ATOM     11  C   UNL     1      10.821  -3.328   0.553  0.00  0.00    +0.020 A 
ATOM     12  C   UNL     1      10.189  -2.657   1.588  0.00  0.00    +0.008 A 
ENDBRANCH   3   7
TORSDOF 1
ENDMDL
MODEL 8
REMARK VINA RESULT:    -2.284      2.174      3.634
REMARK INTER + INTRA:          -2.672
REMARK INTER:                  -2.478
REMARK INTRA:                  -0.193
REMARK UNBOUND:                -0.254
REMARK  Name = Nicotine.pdb
REMARK  2 active torsions:
REMARK  status: ('A' for Active; 'I' for Inactive)
REMARK    1  A    between atoms: C_3  and  C_6
REMARK    2  A    between atoms: N_4  and  C_12
REMARK                            x       y       z     vdW  Elec       q    Type
REMARK                         _______ _______ _______ _____ _____    ______ ____
ROOT
ATOM      1  C   UNL     1      10.954  -2.372   0.929  0.00  0.00    +0.017 C 
ATOM      2  C   UNL     1      10.659  -2.264   2.448  0.00  0.00    +0.025 C 
ATOM      3  C   UNL     1      10.389  -3.728   2.855  0.00  0.00    +0.088 C 
ATOM      4  N   UNL     1       9.996  -4.455   1.634  0.00  0.00    -0.298 NA
ATOM      5  C   UNL     1       9.986  -3.504   0.502  0.00  0.00    +0.085 C 
ATOM      6  C   UNL     1      10.907  -5.577   1.372  0.00  0.00    +0.105 C 
ENDROOT
BRANCH   3   7
ATOM      7  C   UNL     1       9.274  -3.783   3.867  0.00  0.00    -0.012 A 
ATOM      8  C   UNL     1       9.555  -3.964   5.208  0.00  0.00    +0.115 A 
ATOM      9  N   UNL     1       8.585  -4.012   6.100  0.00  0.00    -0.263 NA
ATOM     10  C   UNL     1       7.319  -3.891   5.754  0.00  0.00    +0.111 A 
ATOM     11  C   UNL     1       6.961  -3.707   4.432  0.00  0.00    +0.020 A 
ATOM     12  C   UNL     1       7.954  -3.646   3.466  0.00  0.00    +0.008 A 
ENDBRANCH   3   7
TORSDOF 1
ENDMDL
MODEL 9
REMARK VINA RESULT:    -2.086      2.318      3.705
REMARK INTER + INTRA:          -2.463
REMARK INTER:                  -2.285
REMARK INTRA:                  -0.178
REMARK UNBOUND:                -0.254
REMARK  Name = Nicotine.pdb
REMARK  2 active torsions:
REMARK  status: ('A' for Active; 'I' for Inactive)
REMARK    1  A    between atoms: C_3  and  C_6
REMARK    2  A    between atoms: N_4  and  C_12
REMARK                            x       y       z     vdW  Elec       q    Type
REMARK                         _______ _______ _______ _____ _____    ______ ____
ROOT
ATOM      1  C   UNL     1       5.266  -3.474   2.876  0.00  0.00    +0.017 C 
ATOM      2  C   UNL     1       6.200  -4.394   2.046  0.00  0.00    +0.025 C 
ATOM      3  C   UNL     1       7.423  -4.572   2.971  0.00  0.00    +0.088 C 
ATOM      4  N   UNL     1       7.431  -3.435   3.909  0.00  0.00    -0.298 NA
ATOM      5  C   UNL     1       6.288  -2.553   3.589  0.00  0.00    +0.085 C 
ATOM      6  C   UNL     1       7.366  -3.899   5.301  0.00  0.00    +0.105 C 
ENDROOT
BRANCH   3   7
ATOM      7  C   UNL     1       8.688  -4.574   2.153  0.00  0.00    -0.012 A 
ATOM      8  C   UNL     1       9.034  -3.469   1.398  0.00  0.00    +0.115 A 
ATOM      9  N   UNL     1      10.139  -3.461   0.680  0.00  0.00    -0.263 NA
ATOM     10  C   UNL     1      10.954  -4.498   0.651  0.00  0.00    +0.111 A 
ATOM     11  C   UNL     1      10.675  -5.638   1.381  0.00  0.00    +0.020 A 
ATOM     12  C   UNL     1       9.523  -5.680   2.153  0.00  0.00    +0.008 A 
ENDBRANCH   3   7
TORSDOF 1
ENDMDL
MODEL 10
REMARK VINA RESULT:    -0.769      2.097      3.195
REMARK INTER + INTRA:          -1.069
REMARK INTER:                  -0.871
REMARK INTRA:                  -0.198
REMARK UNBOUND:                -0.254
REMARK  Name = Nicotine.pdb
REMARK  2 active torsions:
REMARK  status: ('A' for Active; 'I' for Inactive)
REMARK    1  A    between atoms: C_3  and  C_6
REMARK    2  A    between atoms: N_4  and  C_12
REMARK                            x       y       z     vdW  Elec       q    Type
REMARK                         _______ _______ _______ _____ _____    ______ ____
ROOT
ATOM      1  C   UNL     1      10.665  -5.979   2.135  0.00  0.00    +0.017 C 
ATOM      2  C   UNL     1       9.138  -5.879   1.881  0.00  0.00    +0.025 C 
ATOM      3  C   UNL     1       8.934  -4.381   1.569  0.00  0.00    +0.088 C 
ATOM      4  N   UNL     1      10.074  -3.654   2.157  0.00  0.00    -0.298 NA
ATOM      5  C   UNL     1      10.954  -4.628   2.837  0.00  0.00    +0.085 C 
ATOM      6  C   UNL     1      10.809  -2.907   1.128  0.00  0.00    +0.105 C 
ENDROOT
BRANCH   3   7
ATOM      7  C   UNL     1       7.645  -3.900   2.183  0.00  0.00    -0.012 A 
ATOM      8  C   UNL     1       6.495  -4.660   2.079  0.00  0.00    +0.115 A 
ATOM      9  N   UNL     1       5.363  -4.246   2.614  0.00  0.00    -0.263 NA
ATOM     10  C   UNL     1       5.281  -3.101   3.262  0.00  0.00    +0.111 A 
ATOM     11  C   UNL     1       6.389  -2.288   3.407  0.00  0.00    +0.020 A 
ATOM     12  C   UNL     1       7.598  -2.693   2.863  0.00  0.00    +0.008 A 
ENDBRANCH   3   7
TORSDOF 1
ENDMDL
