MODEL 1
REMARK VINA RESULT:    -0.069      0.000      0.000
REMARK INTER + INTRA:          -0.293
REMARK INTER:                  -0.073
REMARK INTRA:                  -0.220
REMARK UNBOUND:                -0.220
REMARK  Name = Nicotine.pdb
REMARK  2 active torsions:
REMARK  status: ('A' for Active; 'I' for Inactive)
REMARK    1  A    between atoms: C_3  and  C_6
REMARK    2  A    between atoms: N_4  and  C_12
REMARK                            x       y       z     vdW  Elec       q    Type
REMARK                         _______ _______ _______ _____ _____    ______ ____
ROOT
ATOM      1  C   UNL     1      -1.044   4.163  -7.256  0.00  0.00    +0.017 C 
ATOM      2  C   UNL     1      -2.309   4.805  -6.627  0.00  0.00    +0.025 C 
ATOM      3  C   UNL     1      -1.782   6.150  -6.085  0.00  0.00    +0.088 C 
ATOM      4  N   UNL     1      -0.326   6.008  -5.902  0.00  0.00    -0.298 NA
ATOM      5  C   UNL     1       0.064   4.633  -6.280  0.00  0.00    +0.085 C 
ATOM      6  C   UNL     1       0.405   7.001  -6.698  0.00  0.00    +0.105 C 
ENDROOT
BRANCH   3   7
ATOM      7  C   UNL     1      -2.438   6.464  -4.765  0.00  0.00    -0.012 A 
ATOM      8  C   UNL     1      -1.678   6.574  -3.616  0.00  0.00    +0.115 A 
ATOM      9  N   UNL     1      -2.244   6.848  -2.457  0.00  0.00    -0.263 NA
ATOM     10  C   UNL     1      -3.546   7.026  -2.346  0.00  0.00    +0.111 A 
ATOM     11  C   UNL     1      -4.369   6.932  -3.452  0.00  0.00    +0.020 A 
ATOM     12  C   UNL     1      -3.809   6.651  -4.689  0.00  0.00    +0.008 A 
ENDBRANCH   3   7
TORSDOF 1
ENDMDL
