MODEL 1
REMARK VINA RESULT:    -2.841      0.000      0.000
REMARK INTER + INTRA:          -3.205
REMARK INTER:                  -3.007
REMARK INTRA:                  -0.199
REMARK UNBOUND:                -0.199
REMARK  Name = Nicotine.pdb
REMARK  2 active torsions:
REMARK  status: ('A' for Active; 'I' for Inactive)
REMARK    1  A    between atoms: C_3  and  C_6
REMARK    2  A    between atoms: N_4  and  C_12
REMARK                            x       y       z     vdW  Elec       q    Type
REMARK                         _______ _______ _______ _____ _____    ______ ____
ROOT
ATOM      1  C   UNL     1       7.954   7.013   1.938  0.00  0.00    +0.017 C 
ATOM      2  C   UNL     1       7.419   5.894   2.869  0.00  0.00    +0.025 C 
ATOM      3  C   UNL     1       8.644   5.556   3.745  0.00  0.00    +0.088 C 
ATOM      4  N   UNL     1       9.843   5.992   3.007  0.00  0.00    -0.298 NA
ATOM      5  C   UNL     1       9.417   6.557   1.709  0.00  0.00    +0.085 C 
ATOM      6  C   UNL     1      10.612   6.973   3.783  0.00  0.00    +0.105 C 
ENDROOT
BRANCH   3   7
ATOM      7  C   UNL     1       8.704   4.071   3.993  0.00  0.00    -0.012 A 
ATOM      8  C   UNL     1       8.411   3.558   5.242  0.00  0.00    +0.115 A 
ATOM      9  N   UNL     1       8.461   2.259   5.467  0.00  0.00    -0.263 NA
ATOM     10  C   UNL     1       8.789   1.404   4.519  0.00  0.00    +0.111 A 
ATOM     11  C   UNL     1       9.095   1.843   3.244  0.00  0.00    +0.020 A 
ATOM     12  C   UNL     1       9.048   3.201   2.969  0.00  0.00    +0.008 A 
ENDBRANCH   3   7
TORSDOF 1
ENDMDL
MODEL 2
REMARK VINA RESULT:    -2.804      1.187      4.450
REMARK INTER + INTRA:          -3.166
REMARK INTER:                  -2.970
REMARK INTRA:                  -0.196
REMARK UNBOUND:                -0.199
REMARK  Name = Nicotine.pdb
REMARK  2 active torsions:
REMARK  status: ('A' for Active; 'I' for Inactive)
REMARK    1  A    between atoms: C_3  and  C_6
REMARK    2  A    between atoms: N_4  and  C_12
REMARK                            x       y       z     vdW  Elec       q    Type
REMARK                         _______ _______ _______ _____ _____    ______ ____
ROOT
ATOM      1  C   UNL     1       8.927   1.390   4.450  0.00  0.00    +0.017 C 
ATOM      2  C   UNL     1       9.156   2.299   3.214  0.00  0.00    +0.025 C 
ATOM      3  C   UNL     1       9.618   3.631   3.844  0.00  0.00    +0.088 C 
ATOM      4  N   UNL     1       9.134   3.647   5.236  0.00  0.00    -0.298 NA
ATOM      5  C   UNL     1       8.376   2.402   5.485  0.00  0.00    +0.085 C 
ATOM      6  C   UNL     1      10.250   3.783   6.180  0.00  0.00    +0.105 C 
ENDROOT
BRANCH   3   7
ATOM      7  C   UNL     1       9.029   4.790   3.081  0.00  0.00    -0.012 A 
ATOM      8  C   UNL     1       9.815   5.530   2.219  0.00  0.00    +0.115 A 
ATOM      9  N   UNL     1       9.307   6.546   1.547  0.00  0.00    -0.263 NA
ATOM     10  C   UNL     1       8.042   6.894   1.670  0.00  0.00    +0.111 A 
ATOM     11  C   UNL     1       7.195   6.200   2.514  0.00  0.00    +0.020 A 
ATOM     12  C   UNL     1       7.692   5.123   3.232  0.00  0.00    +0.008 A 
ENDBRANCH   3   7
TORSDOF 1
ENDMDL
MODEL 3
REMARK VINA RESULT:    -2.629      1.317      2.390
REMARK INTER + INTRA:          -2.981
REMARK INTER:                  -2.784
REMARK INTRA:                  -0.198
REMARK UNBOUND:                -0.199
REMARK  Name = Nicotine.pdb
REMARK  2 active torsions:
REMARK  status: ('A' for Active; 'I' for Inactive)
REMARK    1  A    between atoms: C_3  and  C_6
REMARK    2  A    between atoms: N_4  and  C_12
REMARK                            x       y       z     vdW  Elec       q    Type
REMARK                         _______ _______ _______ _____ _____    ______ ____
ROOT
ATOM      1  C   UNL     1       9.923   5.948   1.932  0.00  0.00    +0.017 C 
ATOM      2  C   UNL     1      10.079   4.425   2.183  0.00  0.00    +0.025 C 
ATOM      3  C   UNL     1       8.756   4.052   2.887  0.00  0.00    +0.088 C 
ATOM      4  N   UNL     1       8.214   5.287   3.480  0.00  0.00    -0.298 NA
ATOM      5  C   UNL     1       9.150   6.396   3.197  0.00  0.00    +0.085 C 
ATOM      6  C   UNL     1       6.875   5.581   2.954  0.00  0.00    +0.105 C 
ENDROOT
BRANCH   3   7
ATOM      7  C   UNL     1       9.020   3.035   3.967  0.00  0.00    -0.012 A 
ATOM      8  C   UNL     1       9.082   1.689   3.660  0.00  0.00    +0.115 A 
ATOM      9  N   UNL     1       9.312   0.793   4.600  0.00  0.00    -0.263 NA
ATOM     10  C   UNL     1       9.490   1.139   5.860  0.00  0.00    +0.111 A 
ATOM     11  C   UNL     1       9.443   2.467   6.242  0.00  0.00    +0.020 A 
ATOM     12  C   UNL     1       9.208   3.438   5.281  0.00  0.00    +0.008 A 
ENDBRANCH   3   7
TORSDOF 1
ENDMDL
MODEL 4
REMARK VINA RESULT:    -2.234      2.244      4.371
REMARK INTER + INTRA:          -2.563
REMARK INTER:                  -2.320
REMARK INTRA:                  -0.243
REMARK UNBOUND:                -0.199
REMARK  Name = Nicotine.pdb
REMARK  2 active torsions:
REMARK  status: ('A' for Active; 'I' for Inactive)
REMARK    1  A    between atoms: C_3  and  C_6
REMARK    2  A    between atoms: N_4  and  C_12
REMARK                            x       y       z     vdW  Elec       q    Type
REMARK                         _______ _______ _______ _____ _____    ______ ____
ROOT
ATOM      1  C   UNL     1       9.129   1.814   3.209  0.00  0.00    +0.017 C 
ATOM      2  C   UNL     1       8.932   3.353   3.200  0.00  0.00    +0.025 C 
ATOM      3  C   UNL     1       9.485   3.781   4.576  0.00  0.00    +0.088 C 
ATOM      4  N   UNL     1       9.434   2.598   5.455  0.00  0.00    -0.298 NA
ATOM      5  C   UNL     1       8.854   1.471   4.694  0.00  0.00    +0.085 C 
ATOM      6  C   UNL     1      10.771   2.260   5.961  0.00  0.00    +0.105 C 
ENDROOT
BRANCH   3   7
ATOM      7  C   UNL     1       8.634   4.884   5.150  0.00  0.00    -0.012 A 
ATOM      8  C   UNL     1       9.224   5.987   5.739  0.00  0.00    +0.115 A 
ATOM      9  N   UNL     1       8.486   6.957   6.244  0.00  0.00    -0.263 NA
ATOM     10  C   UNL     1       7.169   6.917   6.208  0.00  0.00    +0.111 A 
ATOM     11  C   UNL     1       6.509   5.846   5.634  0.00  0.00    +0.020 A 
ATOM     12  C   UNL     1       7.251   4.810   5.088  0.00  0.00    +0.008 A 
ENDBRANCH   3   7
TORSDOF 1
ENDMDL
MODEL 5
REMARK VINA RESULT:    -2.021      2.064      4.721
REMARK INTER + INTRA:          -2.337
REMARK INTER:                  -2.121
REMARK INTRA:                  -0.217
REMARK UNBOUND:                -0.199
REMARK  Name = Nicotine.pdb
REMARK  2 active torsions:
REMARK  status: ('A' for Active; 'I' for Inactive)
REMARK    1  A    between atoms: C_3  and  C_6
REMARK    2  A    between atoms: N_4  and  C_12
REMARK                            x       y       z     vdW  Elec       q    Type
REMARK                         _______ _______ _______ _____ _____    ______ ____
ROOT
ATOM      1  C   UNL     1      10.327   2.373   3.623  0.00  0.00    +0.017 C 
ATOM      2  C   UNL     1      10.885   3.015   2.326  0.00  0.00    +0.025 C 
ATOM      3  C   UNL     1      10.830   4.526   2.635  0.00  0.00    +0.088 C 
ATOM      4  N   UNL     1       9.830   4.718   3.701  0.00  0.00    -0.298 NA
ATOM      5  C   UNL     1       9.249   3.403   4.044  0.00  0.00    +0.085 C 
ATOM      6  C   UNL     1      10.433   5.352   4.881  0.00  0.00    +0.105 C 
ENDROOT
BRANCH   3   7
ATOM      7  C   UNL     1      10.420   5.288   1.402  0.00  0.00    -0.012 A 
ATOM      8  C   UNL     1       9.542   6.351   1.497  0.00  0.00    +0.115 A 
ATOM      9  N   UNL     1       9.178   7.023   0.422  0.00  0.00    -0.263 NA
ATOM     10  C   UNL     1       9.630   6.712  -0.776  0.00  0.00    +0.111 A 
ATOM     11  C   UNL     1      10.512   5.661  -0.949  0.00  0.00    +0.020 A 
ATOM     12  C   UNL     1      10.922   4.935   0.159  0.00  0.00    +0.008 A 
ENDBRANCH   3   7
TORSDOF 1
ENDMDL
MODEL 6
REMARK VINA RESULT:    -1.806      1.949      3.978
REMARK INTER + INTRA:          -2.110
REMARK INTER:                  -1.895
REMARK INTRA:                  -0.214
REMARK UNBOUND:                -0.199
REMARK  Name = Nicotine.pdb
REMARK  2 active torsions:
REMARK  status: ('A' for Active; 'I' for Inactive)
REMARK    1  A    between atoms: C_3  and  C_6
REMARK    2  A    between atoms: N_4  and  C_12
REMARK                            x       y       z     vdW  Elec       q    Type
REMARK                         _______ _______ _______ _____ _____    ______ ____
ROOT
ATOM      1  C   UNL     1       5.387   5.518   4.262  0.00  0.00    +0.017 C 
ATOM      2  C   UNL     1       6.194   5.336   2.950  0.00  0.00    +0.025 C 
ATOM      3  C   UNL     1       7.512   4.698   3.439  0.00  0.00    +0.088 C 
ATOM      4  N   UNL     1       7.657   5.034   4.866  0.00  0.00    -0.298 NA
ATOM      5  C   UNL     1       6.507   5.870   5.273  0.00  0.00    +0.085 C 
ATOM      6  C   UNL     1       7.744   3.820   5.688  0.00  0.00    +0.105 C 
ENDROOT
BRANCH   3   7
ATOM      7  C   UNL     1       8.673   5.256   2.658  0.00  0.00    -0.012 A 
ATOM      8  C   UNL     1       8.610   6.531   2.128  0.00  0.00    +0.115 A 
ATOM      9  N   UNL     1       9.622   7.028   1.444  0.00  0.00    -0.263 NA
ATOM     10  C   UNL     1      10.725   6.336   1.237  0.00  0.00    +0.111 A 
ATOM     11  C   UNL     1      10.861   5.054   1.737  0.00  0.00    +0.020 A 
ATOM     12  C   UNL     1       9.820   4.501   2.466  0.00  0.00    +0.008 A 
ENDBRANCH   3   7
TORSDOF 1
ENDMDL
MODEL 7
REMARK VINA RESULT:    -1.339      1.937      4.528
REMARK INTER + INTRA:          -1.615
REMARK INTER:                  -1.400
REMARK INTRA:                  -0.215
REMARK UNBOUND:                -0.199
REMARK  Name = Nicotine.pdb
REMARK  2 active torsions:
REMARK  status: ('A' for Active; 'I' for Inactive)
REMARK    1  A    between atoms: C_3  and  C_6
REMARK    2  A    between atoms: N_4  and  C_12
REMARK                            x       y       z     vdW  Elec       q    Type
REMARK                         _______ _______ _______ _____ _____    ______ ____
ROOT
ATOM      1  C   UNL     1       8.513   1.586   3.177  0.00  0.00    +0.017 C 
ATOM      2  C   UNL     1       9.025   3.043   3.034  0.00  0.00    +0.025 C 
ATOM      3  C   UNL     1      10.037   3.171   4.192  0.00  0.00    +0.088 C 
ATOM      4  N   UNL     1       9.690   2.144   5.191  0.00  0.00    -0.298 NA
ATOM      5  C   UNL     1       8.498   1.409   4.716  0.00  0.00    +0.085 C 
ATOM      6  C   UNL     1      10.816   1.230   5.422  0.00  0.00    +0.105 C 
ENDROOT
BRANCH   3   7
ATOM      7  C   UNL     1       9.940   4.542   4.809  0.00  0.00    -0.012 A 
ATOM      8  C   UNL     1       8.844   5.345   4.559  0.00  0.00    +0.115 A 
ATOM      9  N   UNL     1       8.751   6.547   5.095  0.00  0.00    -0.263 NA
ATOM     10  C   UNL     1       9.691   7.028   5.883  0.00  0.00    +0.111 A 
ATOM     11  C   UNL     1      10.817   6.282   6.179  0.00  0.00    +0.020 A 
ATOM     12  C   UNL     1      10.947   5.012   5.638  0.00  0.00    +0.008 A 
ENDBRANCH   3   7
TORSDOF 1
ENDMDL
MODEL 8
REMARK VINA RESULT:    -1.001      2.034      2.529
REMARK INTER + INTRA:          -1.258
REMARK INTER:                  -1.042
REMARK INTRA:                  -0.216
REMARK UNBOUND:                -0.199
REMARK  Name = Nicotine.pdb
REMARK  2 active torsions:
REMARK  status: ('A' for Active; 'I' for Inactive)
REMARK    1  A    between atoms: C_3  and  C_6
REMARK    2  A    between atoms: N_4  and  C_12
REMARK                            x       y       z     vdW  Elec       q    Type
REMARK                         _______ _______ _______ _____ _____    ______ ____
ROOT
ATOM      1  C   UNL     1       8.228   6.972   0.182  0.00  0.00    +0.017 C 
ATOM      2  C   UNL     1       7.482   7.024   1.541  0.00  0.00    +0.025 C 
ATOM      3  C   UNL     1       8.620   6.853   2.569  0.00  0.00    +0.088 C 
ATOM      4  N   UNL     1       9.742   6.198   1.873  0.00  0.00    -0.298 NA
ATOM      5  C   UNL     1       9.340   5.935   0.475  0.00  0.00    +0.085 C 
ATOM      6  C   UNL     1      10.952   7.028   1.926  0.00  0.00    +0.105 C 
ENDROOT
BRANCH   3   7
ATOM      7  C   UNL     1       8.152   5.992   3.714  0.00  0.00    -0.012 A 
ATOM      8  C   UNL     1       9.061   5.262   4.456  0.00  0.00    +0.115 A 
ATOM      9  N   UNL     1       8.659   4.506   5.460  0.00  0.00    -0.263 NA
ATOM     10  C   UNL     1       7.387   4.416   5.794  0.00  0.00    +0.111 A 
ATOM     11  C   UNL     1       6.421   5.118   5.097  0.00  0.00    +0.020 A 
ATOM     12  C   UNL     1       6.806   5.927   4.039  0.00  0.00    +0.008 A 
ENDBRANCH   3   7
TORSDOF 1
ENDMDL
