MODEL 1
REMARK VINA RESULT:    -3.330      0.000      0.000
REMARK INTER + INTRA:          -3.725
REMARK INTER:                  -3.525
REMARK INTRA:                  -0.200
REMARK UNBOUND:                -0.200
REMARK  Name = Nicotine.pdb
REMARK  2 active torsions:
REMARK  status: ('A' for Active; 'I' for Inactive)
REMARK    1  A    between atoms: C_3  and  C_6
REMARK    2  A    between atoms: N_4  and  C_12
REMARK                            x       y       z     vdW  Elec       q    Type
REMARK                         _______ _______ _______ _____ _____    ______ ____
ROOT
ATOM      1  C   UNL     1       7.501   4.423   4.484  0.00  0.00    +0.017 C 
ATOM      2  C   UNL     1       6.693   4.797   3.214  0.00  0.00    +0.025 C 
ATOM      3  C   UNL     1       5.452   5.512   3.789  0.00  0.00    +0.088 C 
ATOM      4  N   UNL     1       5.299   5.065   5.185  0.00  0.00    -0.298 NA
ATOM      5  C   UNL     1       6.369   4.091   5.489  0.00  0.00    +0.085 C 
ATOM      6  C   UNL     1       5.345   6.204   6.111  0.00  0.00    +0.105 C 
ENDROOT
BRANCH   3   7
ATOM      7  C   UNL     1       4.229   5.138   2.992  0.00  0.00    -0.012 A 
ATOM      8  C   UNL     1       3.309   4.243   3.503  0.00  0.00    +0.115 A 
ATOM      9  N   UNL     1       2.236   3.910   2.813  0.00  0.00    -0.263 NA
ATOM     10  C   UNL     1       1.998   4.413   1.617  0.00  0.00    +0.111 A 
ATOM     11  C   UNL     1       2.874   5.315   1.041  0.00  0.00    +0.020 A 
ATOM     12  C   UNL     1       4.010   5.692   1.740  0.00  0.00    +0.008 A 
ENDBRANCH   3   7
TORSDOF 1
ENDMDL
MODEL 2
REMARK VINA RESULT:    -3.301      1.424      4.550
REMARK INTER + INTRA:          -3.694
REMARK INTER:                  -3.454
REMARK INTRA:                  -0.240
REMARK UNBOUND:                -0.200
REMARK  Name = Nicotine.pdb
REMARK  2 active torsions:
REMARK  status: ('A' for Active; 'I' for Inactive)
REMARK    1  A    between atoms: C_3  and  C_6
REMARK    2  A    between atoms: N_4  and  C_12
REMARK                            x       y       z     vdW  Elec       q    Type
REMARK                         _______ _______ _______ _____ _____    ______ ____
ROOT
ATOM      1  C   UNL     1       2.010   4.017   4.882  0.00  0.00    +0.017 C 
ATOM      2  C   UNL     1       3.311   4.733   5.331  0.00  0.00    +0.025 C 
ATOM      3  C   UNL     1       3.970   5.126   3.992  0.00  0.00    +0.088 C 
ATOM      4  N   UNL     1       3.423   4.232   2.956  0.00  0.00    -0.298 NA
ATOM      5  C   UNL     1       2.480   3.291   3.597  0.00  0.00    +0.085 C 
ATOM      6  C   UNL     1       2.762   4.999   1.893  0.00  0.00    +0.105 C 
ENDROOT
BRANCH   3   7
ATOM      7  C   UNL     1       5.464   4.952   4.085  0.00  0.00    -0.012 A 
ATOM      8  C   UNL     1       6.272   5.252   3.005  0.00  0.00    +0.115 A 
ATOM      9  N   UNL     1       7.580   5.103   3.078  0.00  0.00    -0.263 NA
ATOM     10  C   UNL     1       8.167   4.665   4.174  0.00  0.00    +0.111 A 
ATOM     11  C   UNL     1       7.424   4.345   5.295  0.00  0.00    +0.020 A 
ATOM     12  C   UNL     1       6.047   4.494   5.257  0.00  0.00    +0.008 A 
ENDBRANCH   3   7
TORSDOF 1
ENDMDL
MODEL 3
REMARK VINA RESULT:    -3.300      1.240      4.389
REMARK INTER + INTRA:          -3.693
REMARK INTER:                  -3.479
REMARK INTRA:                  -0.213
REMARK UNBOUND:                -0.200
REMARK  Name = Nicotine.pdb
REMARK  2 active torsions:
REMARK  status: ('A' for Active; 'I' for Inactive)
REMARK    1  A    between atoms: C_3  and  C_6
REMARK    2  A    between atoms: N_4  and  C_12
REMARK                            x       y       z     vdW  Elec       q    Type
REMARK                         _______ _______ _______ _____ _____    ______ ____
ROOT
ATOM      1  C   UNL     1       1.698   4.086   2.486  0.00  0.00    +0.017 C 
ATOM      2  C   UNL     1       2.681   3.987   3.682  0.00  0.00    +0.025 C 
ATOM      3  C   UNL     1       3.556   5.248   3.518  0.00  0.00    +0.088 C 
ATOM      4  N   UNL     1       3.469   5.659   2.105  0.00  0.00    -0.298 NA
ATOM      5  C   UNL     1       2.603   4.699   1.388  0.00  0.00    +0.085 C 
ATOM      6  C   UNL     1       2.950   7.028   1.986  0.00  0.00    +0.105 C 
ENDROOT
BRANCH   3   7
ATOM      7  C   UNL     1       4.985   4.929   3.873  0.00  0.00    -0.012 A 
ATOM      8  C   UNL     1       5.328   4.608   5.173  0.00  0.00    +0.115 A 
ATOM      9  N   UNL     1       6.576   4.328   5.492  0.00  0.00    -0.263 NA
ATOM     10  C   UNL     1       7.541   4.342   4.594  0.00  0.00    +0.111 A 
ATOM     11  C   UNL     1       7.274   4.654   3.274  0.00  0.00    +0.020 A 
ATOM     12  C   UNL     1       5.973   4.949   2.900  0.00  0.00    +0.008 A 
ENDBRANCH   3   7
TORSDOF 1
ENDMDL
MODEL 4
REMARK VINA RESULT:    -3.291      2.499      3.811
REMARK INTER + INTRA:          -3.683
REMARK INTER:                  -3.498
REMARK INTRA:                  -0.185
REMARK UNBOUND:                -0.200
REMARK  Name = Nicotine.pdb
REMARK  2 active torsions:
REMARK  status: ('A' for Active; 'I' for Inactive)
REMARK    1  A    between atoms: C_3  and  C_6
REMARK    2  A    between atoms: N_4  and  C_12
REMARK                            x       y       z     vdW  Elec       q    Type
REMARK                         _______ _______ _______ _____ _____    ______ ____
ROOT
ATOM      1  C   UNL     1       5.125   5.858   2.511  0.00  0.00    +0.017 C 
ATOM      2  C   UNL     1       4.081   4.774   2.887  0.00  0.00    +0.025 C 
ATOM      3  C   UNL     1       2.961   4.995   1.849  0.00  0.00    +0.088 C 
ATOM      4  N   UNL     1       3.087   6.379   1.358  0.00  0.00    -0.298 NA
ATOM      5  C   UNL     1       4.214   7.028   2.063  0.00  0.00    +0.085 C 
ATOM      6  C   UNL     1       3.289   6.407  -0.096  0.00  0.00    +0.105 C 
ENDROOT
BRANCH   3   7
ATOM      7  C   UNL     1       1.615   4.800   2.497  0.00  0.00    -0.012 A 
ATOM      8  C   UNL     1       1.503   4.083   3.674  0.00  0.00    +0.115 A 
ATOM      9  N   UNL     1       0.329   3.908   4.248  0.00  0.00    -0.263 NA
ATOM     10  C   UNL     1      -0.777   4.404   3.729  0.00  0.00    +0.111 A 
ATOM     11  C   UNL     1      -0.743   5.132   2.554  0.00  0.00    +0.020 A 
ATOM     12  C   UNL     1       0.474   5.342   1.925  0.00  0.00    +0.008 A 
ENDBRANCH   3   7
TORSDOF 1
ENDMDL
MODEL 5
REMARK VINA RESULT:    -3.245      1.763      2.991
REMARK INTER + INTRA:          -3.635
REMARK INTER:                  -3.408
REMARK INTRA:                  -0.227
REMARK UNBOUND:                -0.200
REMARK  Name = Nicotine.pdb
REMARK  2 active torsions:
REMARK  status: ('A' for Active; 'I' for Inactive)
REMARK    1  A    between atoms: C_3  and  C_6
REMARK    2  A    between atoms: N_4  and  C_12
REMARK                            x       y       z     vdW  Elec       q    Type
REMARK                         _______ _______ _______ _____ _____    ______ ____
ROOT
ATOM      1  C   UNL     1       2.507   3.644   5.271  0.00  0.00    +0.017 C 
ATOM      2  C   UNL     1       2.624   3.472   3.733  0.00  0.00    +0.025 C 
ATOM      3  C   UNL     1       3.771   4.436   3.362  0.00  0.00    +0.088 C 
ATOM      4  N   UNL     1       3.865   5.438   4.439  0.00  0.00    -0.298 NA
ATOM      5  C   UNL     1       2.817   5.152   5.441  0.00  0.00    +0.085 C 
ATOM      6  C   UNL     1       5.199   5.426   5.054  0.00  0.00    +0.105 C 
ENDROOT
BRANCH   3   7
ATOM      7  C   UNL     1       3.465   5.116   2.053  0.00  0.00    -0.012 A 
ATOM      8  C   UNL     1       4.248   6.166   1.611  0.00  0.00    +0.115 A 
ATOM      9  N   UNL     1       3.988   6.766   0.466  0.00  0.00    -0.263 NA
ATOM     10  C   UNL     1       2.980   6.394  -0.298  0.00  0.00    +0.111 A 
ATOM     11  C   UNL     1       2.154   5.352   0.078  0.00  0.00    +0.020 A 
ATOM     12  C   UNL     1       2.400   4.693   1.273  0.00  0.00    +0.008 A 
ENDBRANCH   3   7
TORSDOF 1
ENDMDL
MODEL 6
REMARK VINA RESULT:    -3.157      3.186      5.474
REMARK INTER + INTRA:          -3.542
REMARK INTER:                  -3.326
REMARK INTRA:                  -0.216
REMARK UNBOUND:                -0.200
REMARK  Name = Nicotine.pdb
REMARK  2 active torsions:
REMARK  status: ('A' for Active; 'I' for Inactive)
REMARK    1  A    between atoms: C_3  and  C_6
REMARK    2  A    between atoms: N_4  and  C_12
REMARK                            x       y       z     vdW  Elec       q    Type
REMARK                         _______ _______ _______ _____ _____    ______ ____
ROOT
ATOM      1  C   UNL     1       2.026   6.139  -0.418  0.00  0.00    +0.017 C 
ATOM      2  C   UNL     1       0.687   6.524   0.265  0.00  0.00    +0.025 C 
ATOM      3  C   UNL     1       0.867   5.996   1.704  0.00  0.00    +0.088 C 
ATOM      4  N   UNL     1       1.898   4.943   1.657  0.00  0.00    -0.298 NA
ATOM      5  C   UNL     1       2.342   4.781   0.257  0.00  0.00    +0.085 C 
ATOM      6  C   UNL     1       3.028   5.274   2.534  0.00  0.00    +0.105 C 
ENDROOT
BRANCH   3   7
ATOM      7  C   UNL     1      -0.433   5.421   2.205  0.00  0.00    -0.012 A 
ATOM      8  C   UNL     1      -0.434   4.442   3.181  0.00  0.00    +0.115 A 
ATOM      9  N   UNL     1      -1.567   3.934   3.625  0.00  0.00    -0.263 NA
ATOM     10  C   UNL     1      -2.735   4.333   3.161  0.00  0.00    +0.111 A 
ATOM     11  C   UNL     1      -2.812   5.308   2.184  0.00  0.00    +0.020 A 
ATOM     12  C   UNL     1      -1.642   5.870   1.697  0.00  0.00    +0.008 A 
ENDBRANCH   3   7
TORSDOF 1
ENDMDL
MODEL 7
REMARK VINA RESULT:    -3.157      1.762      4.941
REMARK INTER + INTRA:          -3.542
REMARK INTER:                  -3.326
REMARK INTRA:                  -0.215
REMARK UNBOUND:                -0.200
REMARK  Name = Nicotine.pdb
REMARK  2 active torsions:
REMARK  status: ('A' for Active; 'I' for Inactive)
REMARK    1  A    between atoms: C_3  and  C_6
REMARK    2  A    between atoms: N_4  and  C_12
REMARK                            x       y       z     vdW  Elec       q    Type
REMARK                         _______ _______ _______ _____ _____    ______ ____
ROOT
ATOM      1  C   UNL     1       1.562   5.724   0.555  0.00  0.00    +0.017 C 
ATOM      2  C   UNL     1       2.582   4.764   1.222  0.00  0.00    +0.025 C 
ATOM      3  C   UNL     1       1.845   4.307   2.499  0.00  0.00    +0.088 C 
ATOM      4  N   UNL     1       0.824   5.326   2.803  0.00  0.00    -0.298 NA
ATOM      5  C   UNL     1       0.914   6.399   1.790  0.00  0.00    +0.085 C 
ATOM      6  C   UNL     1      -0.520   4.735   2.826  0.00  0.00    +0.105 C 
ENDROOT
BRANCH   3   7
ATOM      7  C   UNL     1       2.820   4.199   3.643  0.00  0.00    -0.012 A 
ATOM      8  C   UNL     1       4.058   4.809   3.566  0.00  0.00    +0.115 A 
ATOM      9  N   UNL     1       4.917   4.719   4.562  0.00  0.00    -0.263 NA
ATOM     10  C   UNL     1       4.635   4.051   5.663  0.00  0.00    +0.111 A 
ATOM     11  C   UNL     1       3.416   3.416   5.812  0.00  0.00    +0.020 A 
ATOM     12  C   UNL     1       2.485   3.492   4.787  0.00  0.00    +0.008 A 
ENDBRANCH   3   7
TORSDOF 1
ENDMDL
MODEL 8
REMARK VINA RESULT:    -3.147      2.046      3.037
REMARK INTER + INTRA:          -3.530
REMARK INTER:                  -3.343
REMARK INTRA:                  -0.188
REMARK UNBOUND:                -0.200
REMARK  Name = Nicotine.pdb
REMARK  2 active torsions:
REMARK  status: ('A' for Active; 'I' for Inactive)
REMARK    1  A    between atoms: C_3  and  C_6
REMARK    2  A    between atoms: N_4  and  C_12
REMARK                            x       y       z     vdW  Elec       q    Type
REMARK                         _______ _______ _______ _____ _____    ______ ____
ROOT
ATOM      1  C   UNL     1       4.783   4.780   5.365  0.00  0.00    +0.017 C 
ATOM      2  C   UNL     1       3.505   3.964   5.034  0.00  0.00    +0.025 C 
ATOM      3  C   UNL     1       3.213   4.355   3.570  0.00  0.00    +0.088 C 
ATOM      4  N   UNL     1       3.873   5.650   3.323  0.00  0.00    -0.298 NA
ATOM      5  C   UNL     1       4.534   6.087   4.572  0.00  0.00    +0.085 C 
ATOM      6  C   UNL     1       4.839   5.549   2.223  0.00  0.00    +0.105 C 
ENDROOT
BRANCH   3   7
ATOM      7  C   UNL     1       1.727   4.487   3.360  0.00  0.00    -0.012 A 
ATOM      8  C   UNL     1       0.842   3.963   4.284  0.00  0.00    +0.115 A 
ATOM      9  N   UNL     1      -0.460   4.074   4.108  0.00  0.00    -0.263 NA
ATOM     10  C   UNL     1      -0.968   4.683   3.055  0.00  0.00    +0.111 A 
ATOM     11  C   UNL     1      -0.145   5.231   2.089  0.00  0.00    +0.020 A 
ATOM     12  C   UNL     1       1.230   5.139   2.242  0.00  0.00    +0.008 A 
ENDBRANCH   3   7
TORSDOF 1
ENDMDL
MODEL 9
REMARK VINA RESULT:    -3.124      1.661      4.451
REMARK INTER + INTRA:          -3.507
REMARK INTER:                  -3.270
REMARK INTRA:                  -0.237
REMARK UNBOUND:                -0.200
REMARK  Name = Nicotine.pdb
REMARK  2 active torsions:
REMARK  status: ('A' for Active; 'I' for Inactive)
REMARK    1  A    between atoms: C_3  and  C_6
REMARK    2  A    between atoms: N_4  and  C_12
REMARK                            x       y       z     vdW  Elec       q    Type
REMARK                         _______ _______ _______ _____ _____    ______ ____
ROOT
ATOM      1  C   UNL     1       0.272   5.212   2.111  0.00  0.00    +0.017 C 
ATOM      2  C   UNL     1       1.707   4.671   1.872  0.00  0.00    +0.025 C 
ATOM      3  C   UNL     1       2.177   4.294   3.293  0.00  0.00    +0.088 C 
ATOM      4  N   UNL     1       1.361   5.071   4.244  0.00  0.00    -0.298 NA
ATOM      5  C   UNL     1       0.430   5.926   3.477  0.00  0.00    +0.085 C 
ATOM      6  C   UNL     1       0.630   4.184   5.158  0.00  0.00    +0.105 C 
ENDROOT
BRANCH   3   7
ATOM      7  C   UNL     1       3.633   4.642   3.461  0.00  0.00    -0.012 A 
ATOM      8  C   UNL     1       4.266   4.436   4.672  0.00  0.00    +0.115 A 
ATOM      9  N   UNL     1       5.540   4.738   4.828  0.00  0.00    -0.263 NA
ATOM     10  C   UNL     1       6.257   5.245   3.844  0.00  0.00    +0.111 A 
ATOM     11  C   UNL     1       5.692   5.479   2.604  0.00  0.00    +0.020 A 
ATOM     12  C   UNL     1       4.356   5.169   2.402  0.00  0.00    +0.008 A 
ENDBRANCH   3   7
TORSDOF 1
ENDMDL
MODEL 10
REMARK VINA RESULT:    -3.046      1.952      3.250
REMARK INTER + INTRA:          -3.424
REMARK INTER:                  -3.180
REMARK INTRA:                  -0.244
REMARK UNBOUND:                -0.200
REMARK  Name = Nicotine.pdb
REMARK  2 active torsions:
REMARK  status: ('A' for Active; 'I' for Inactive)
REMARK    1  A    between atoms: C_3  and  C_6
REMARK    2  A    between atoms: N_4  and  C_12
REMARK                            x       y       z     vdW  Elec       q    Type
REMARK                         _______ _______ _______ _____ _____    ______ ____
ROOT
ATOM      1  C   UNL     1       3.370   3.423   5.493  0.00  0.00    +0.017 C 
ATOM      2  C   UNL     1       2.339   3.286   4.342  0.00  0.00    +0.025 C 
ATOM      3  C   UNL     1       2.996   4.078   3.192  0.00  0.00    +0.088 C 
ATOM      4  N   UNL     1       3.954   5.018   3.800  0.00  0.00    -0.298 NA
ATOM      5  C   UNL     1       3.900   4.861   5.269  0.00  0.00    +0.085 C 
ATOM      6  C   UNL     1       5.313   4.786   3.294  0.00  0.00    +0.105 C 
ENDROOT
BRANCH   3   7
ATOM      7  C   UNL     1       1.944   4.839   2.427  0.00  0.00    -0.012 A 
ATOM      8  C   UNL     1       2.287   5.574   1.309  0.00  0.00    +0.115 A 
ATOM      9  N   UNL     1       1.373   6.243   0.634  0.00  0.00    -0.263 NA
ATOM     10  C   UNL     1       0.105   6.239   0.994  0.00  0.00    +0.111 A 
ATOM     11  C   UNL     1      -0.314   5.525   2.101  0.00  0.00    +0.020 A 
ATOM     12  C   UNL     1       0.618   4.806   2.832  0.00  0.00    +0.008 A 
ENDBRANCH   3   7
TORSDOF 1
ENDMDL
