MODEL 1
REMARK VINA RESULT:    -4.154      0.000      0.000
REMARK INTER + INTRA:          -4.620
REMARK INTER:                  -4.397
REMARK INTRA:                  -0.224
REMARK UNBOUND:                -0.224
REMARK  Name = Nicotine.pdb
REMARK  2 active torsions:
REMARK  status: ('A' for Active; 'I' for Inactive)
REMARK    1  A    between atoms: C_3  and  C_6
REMARK    2  A    between atoms: N_4  and  C_12
REMARK                            x       y       z     vdW  Elec       q    Type
REMARK                         _______ _______ _______ _____ _____    ______ ____
ROOT
ATOM      1  C   UNL     1       2.928   0.437   3.243  0.00  0.00    +0.017 C 
ATOM      2  C   UNL     1       2.940   1.959   2.944  0.00  0.00    +0.025 C 
ATOM      3  C   UNL     1       2.327   2.569   4.223  0.00  0.00    +0.088 C 
ATOM      4  N   UNL     1       1.537   1.510   4.877  0.00  0.00    -0.298 NA
ATOM      5  C   UNL     1       1.614   0.287   4.050  0.00  0.00    +0.085 C 
ATOM      6  C   UNL     1       2.022   1.256   6.239  0.00  0.00    +0.105 C 
ENDROOT
BRANCH   3   7
ATOM      7  C   UNL     1       1.434   3.727   3.861  0.00  0.00    -0.012 A 
ATOM      8  C   UNL     1       0.115   3.748   4.275  0.00  0.00    +0.115 A 
ATOM      9  N   UNL     1      -0.674   4.758   3.963  0.00  0.00    -0.263 NA
ATOM     10  C   UNL     1      -0.242   5.780   3.250  0.00  0.00    +0.111 A 
ATOM     11  C   UNL     1       1.065   5.829   2.802  0.00  0.00    +0.020 A 
ATOM     12  C   UNL     1       1.925   4.787   3.115  0.00  0.00    +0.008 A 
ENDBRANCH   3   7
TORSDOF 1
ENDMDL
MODEL 2
REMARK VINA RESULT:    -4.091      1.636      4.321
REMARK INTER + INTRA:          -4.554
REMARK INTER:                  -4.302
REMARK INTRA:                  -0.252
REMARK UNBOUND:                -0.224
REMARK  Name = Nicotine.pdb
REMARK  2 active torsions:
REMARK  status: ('A' for Active; 'I' for Inactive)
REMARK    1  A    between atoms: C_3  and  C_6
REMARK    2  A    between atoms: N_4  and  C_12
REMARK                            x       y       z     vdW  Elec       q    Type
REMARK                         _______ _______ _______ _____ _____    ______ ____
ROOT
ATOM      1  C   UNL     1       2.211   6.135   2.323  0.00  0.00    +0.017 C 
ATOM      2  C   UNL     1       1.555   4.734   2.445  0.00  0.00    +0.025 C 
ATOM      3  C   UNL     1       1.324   4.590   3.965  0.00  0.00    +0.088 C 
ATOM      4  N   UNL     1       2.261   5.507   4.638  0.00  0.00    -0.298 NA
ATOM      5  C   UNL     1       3.075   6.188   3.608  0.00  0.00    +0.085 C 
ATOM      6  C   UNL     1       1.542   6.480   5.470  0.00  0.00    +0.105 C 
ENDROOT
BRANCH   3   7
ATOM      7  C   UNL     1       1.595   3.172   4.392  0.00  0.00    -0.012 A 
ATOM      8  C   UNL     1       1.246   2.744   5.660  0.00  0.00    +0.115 A 
ATOM      9  N   UNL     1       1.480   1.504   6.042  0.00  0.00    -0.263 NA
ATOM     10  C   UNL     1       2.052   0.628   5.240  0.00  0.00    +0.111 A 
ATOM     11  C   UNL     1       2.428   0.982   3.958  0.00  0.00    +0.020 A 
ATOM     12  C   UNL     1       2.193   2.276   3.519  0.00  0.00    +0.008 A 
ENDBRANCH   3   7
TORSDOF 1
ENDMDL
MODEL 3
REMARK VINA RESULT:    -3.900      1.462      2.230
REMARK INTER + INTRA:          -4.352
REMARK INTER:                  -4.139
REMARK INTRA:                  -0.213
REMARK UNBOUND:                -0.224
REMARK  Name = Nicotine.pdb
REMARK  2 active torsions:
REMARK  status: ('A' for Active; 'I' for Inactive)
REMARK    1  A    between atoms: C_3  and  C_6
REMARK    2  A    between atoms: N_4  and  C_12
REMARK                            x       y       z     vdW  Elec       q    Type
REMARK                         _______ _______ _______ _____ _____    ______ ____
ROOT
ATOM      1  C   UNL     1       2.713   2.182   3.008  0.00  0.00    +0.017 C 
ATOM      2  C   UNL     1       2.045   3.575   3.151  0.00  0.00    +0.025 C 
ATOM      3  C   UNL     1       1.757   3.669   4.664  0.00  0.00    +0.088 C 
ATOM      4  N   UNL     1       1.717   2.291   5.188  0.00  0.00    -0.298 NA
ATOM      5  C   UNL     1       1.941   1.355   4.066  0.00  0.00    +0.085 C 
ATOM      6  C   UNL     1       2.720   2.099   6.243  0.00  0.00    +0.105 C 
ENDROOT
BRANCH   3   7
ATOM      7  C   UNL     1       0.430   4.344   4.893  0.00  0.00    -0.012 A 
ATOM      8  C   UNL     1       0.267   5.684   4.593  0.00  0.00    +0.115 A 
ATOM      9  N   UNL     1      -0.892   6.283   4.791  0.00  0.00    -0.263 NA
ATOM     10  C   UNL     1      -1.932   5.636   5.277  0.00  0.00    +0.111 A 
ATOM     11  C   UNL     1      -1.844   4.294   5.600  0.00  0.00    +0.020 A 
ATOM     12  C   UNL     1      -0.644   3.630   5.401  0.00  0.00    +0.008 A 
ENDBRANCH   3   7
TORSDOF 1
ENDMDL
MODEL 4
REMARK VINA RESULT:    -3.230      2.200      3.686
REMARK INTER + INTRA:          -3.643
REMARK INTER:                  -3.393
REMARK INTRA:                  -0.250
REMARK UNBOUND:                -0.224
REMARK  Name = Nicotine.pdb
REMARK  2 active torsions:
REMARK  status: ('A' for Active; 'I' for Inactive)
REMARK    1  A    between atoms: C_3  and  C_6
REMARK    2  A    between atoms: N_4  and  C_12
REMARK                            x       y       z     vdW  Elec       q    Type
REMARK                         _______ _______ _______ _____ _____    ______ ____
ROOT
ATOM      1  C   UNL     1       2.669   5.870   3.623  0.00  0.00    +0.017 C 
ATOM      2  C   UNL     1       1.679   6.125   4.790  0.00  0.00    +0.025 C 
ATOM      3  C   UNL     1       1.156   4.710   5.118  0.00  0.00    +0.088 C 
ATOM      4  N   UNL     1       1.363   3.879   3.918  0.00  0.00    -0.298 NA
ATOM      5  C   UNL     1       1.964   4.720   2.861  0.00  0.00    +0.085 C 
ATOM      6  C   UNL     1       2.216   2.722   4.219  0.00  0.00    +0.105 C 
ENDROOT
BRANCH   3   7
ATOM      7  C   UNL     1      -0.311   4.771   5.454  0.00  0.00    -0.012 A 
ATOM      8  C   UNL     1      -0.962   3.656   5.947  0.00  0.00    +0.115 A 
ATOM      9  N   UNL     1      -2.246   3.701   6.244  0.00  0.00    -0.263 NA
ATOM     10  C   UNL     1      -2.956   4.800   6.085  0.00  0.00    +0.111 A 
ATOM     11  C   UNL     1      -2.373   5.955   5.598  0.00  0.00    +0.020 A 
ATOM     12  C   UNL     1      -1.024   5.947   5.280  0.00  0.00    +0.008 A 
ENDBRANCH   3   7
TORSDOF 1
ENDMDL
MODEL 5
REMARK VINA RESULT:    -3.211     10.719     11.960
REMARK INTER + INTRA:          -3.622
REMARK INTER:                  -3.447
REMARK INTRA:                  -0.175
REMARK UNBOUND:                -0.224
REMARK  Name = Nicotine.pdb
REMARK  2 active torsions:
REMARK  status: ('A' for Active; 'I' for Inactive)
REMARK    1  A    between atoms: C_3  and  C_6
REMARK    2  A    between atoms: N_4  and  C_12
REMARK                            x       y       z     vdW  Elec       q    Type
REMARK                         _______ _______ _______ _____ _____    ______ ____
ROOT
ATOM      1  C   UNL     1       6.327   3.807  -3.131  0.00  0.00    +0.017 C 
ATOM      2  C   UNL     1       7.210   3.290  -4.297  0.00  0.00    +0.025 C 
ATOM      3  C   UNL     1       8.630   3.725  -3.876  0.00  0.00    +0.088 C 
ATOM      4  N   UNL     1       8.482   4.841  -2.926  0.00  0.00    -0.298 NA
ATOM      5  C   UNL     1       7.041   5.131  -2.761  0.00  0.00    +0.085 C 
ATOM      6  C   UNL     1       9.106   4.522  -1.635  0.00  0.00    +0.105 C 
ENDROOT
BRANCH   3   7
ATOM      7  C   UNL     1       9.407   4.178  -5.085  0.00  0.00    -0.012 A 
ATOM      8  C   UNL     1       9.360   5.498  -5.491  0.00  0.00    +0.115 A 
ATOM      9  N   UNL     1      10.037   5.904  -6.548  0.00  0.00    -0.263 NA
ATOM     10  C   UNL     1      10.779   5.075  -7.255  0.00  0.00    +0.111 A 
ATOM     11  C   UNL     1      10.875   3.740  -6.909  0.00  0.00    +0.020 A 
ATOM     12  C   UNL     1      10.182   3.278  -5.801  0.00  0.00    +0.008 A 
ENDBRANCH   3   7
TORSDOF 1
ENDMDL
MODEL 6
REMARK VINA RESULT:    -3.194      2.285      3.087
REMARK INTER + INTRA:          -3.604
REMARK INTER:                  -3.398
REMARK INTRA:                  -0.206
REMARK UNBOUND:                -0.224
REMARK  Name = Nicotine.pdb
REMARK  2 active torsions:
REMARK  status: ('A' for Active; 'I' for Inactive)
REMARK    1  A    between atoms: C_3  and  C_6
REMARK    2  A    between atoms: N_4  and  C_12
REMARK                            x       y       z     vdW  Elec       q    Type
REMARK                         _______ _______ _______ _____ _____    ______ ____
ROOT
ATOM      1  C   UNL     1       2.635   2.344   4.729  0.00  0.00    +0.017 C 
ATOM      2  C   UNL     1       1.304   2.930   4.190  0.00  0.00    +0.025 C 
ATOM      3  C   UNL     1       1.249   4.327   4.846  0.00  0.00    +0.088 C 
ATOM      4  N   UNL     1       2.110   4.282   6.041  0.00  0.00    -0.298 NA
ATOM      5  C   UNL     1       2.672   2.920   6.167  0.00  0.00    +0.085 C 
ATOM      6  C   UNL     1       3.178   5.287   5.959  0.00  0.00    +0.105 C 
ENDROOT
BRANCH   3   7
ATOM      7  C   UNL     1      -0.168   4.650   5.245  0.00  0.00    -0.012 A 
ATOM      8  C   UNL     1      -0.970   3.683   5.821  0.00  0.00    +0.115 A 
ATOM      9  N   UNL     1      -2.211   3.958   6.173  0.00  0.00    -0.263 NA
ATOM     10  C   UNL     1      -2.734   5.155   5.992  0.00  0.00    +0.111 A 
ATOM     11  C   UNL     1      -1.992   6.172   5.422  0.00  0.00    +0.020 A 
ATOM     12  C   UNL     1      -0.682   5.922   5.044  0.00  0.00    +0.008 A 
ENDBRANCH   3   7
TORSDOF 1
ENDMDL
MODEL 7
REMARK VINA RESULT:    -3.029     10.304     11.313
REMARK INTER + INTRA:          -3.430
REMARK INTER:                  -3.217
REMARK INTRA:                  -0.213
REMARK UNBOUND:                -0.224
REMARK  Name = Nicotine.pdb
REMARK  2 active torsions:
REMARK  status: ('A' for Active; 'I' for Inactive)
REMARK    1  A    between atoms: C_3  and  C_6
REMARK    2  A    between atoms: N_4  and  C_12
REMARK                            x       y       z     vdW  Elec       q    Type
REMARK                         _______ _______ _______ _____ _____    ______ ____
ROOT
ATOM      1  C   UNL     1       9.205   4.621  -1.648  0.00  0.00    +0.017 C 
ATOM      2  C   UNL     1       7.961   4.385  -2.545  0.00  0.00    +0.025 C 
ATOM      3  C   UNL     1       8.580   4.116  -3.933  0.00  0.00    +0.088 C 
ATOM      4  N   UNL     1       9.928   4.713  -3.933  0.00  0.00    -0.298 NA
ATOM      5  C   UNL     1      10.158   5.357  -2.622  0.00  0.00    +0.085 C 
ATOM      6  C   UNL     1      10.954   3.699  -4.209  0.00  0.00    +0.105 C 
ENDROOT
BRANCH   3   7
ATOM      7  C   UNL     1       7.735   4.756  -5.004  0.00  0.00    -0.012 A 
ATOM      8  C   UNL     1       6.459   4.290  -5.258  0.00  0.00    +0.115 A 
ATOM      9  N   UNL     1       5.712   4.845  -6.193  0.00  0.00    -0.263 NA
ATOM     10  C   UNL     1       6.148   5.855  -6.919  0.00  0.00    +0.111 A 
ATOM     11  C   UNL     1       7.414   6.375  -6.721  0.00  0.00    +0.020 A 
ATOM     12  C   UNL     1       8.225   5.822  -5.743  0.00  0.00    +0.008 A 
ENDBRANCH   3   7
TORSDOF 1
ENDMDL
MODEL 8
REMARK VINA RESULT:    -2.995     10.909     12.244
REMARK INTER + INTRA:          -3.394
REMARK INTER:                  -3.155
REMARK INTRA:                  -0.239
REMARK UNBOUND:                -0.224
REMARK  Name = Nicotine.pdb
REMARK  2 active torsions:
REMARK  status: ('A' for Active; 'I' for Inactive)
REMARK    1  A    between atoms: C_3  and  C_6
REMARK    2  A    between atoms: N_4  and  C_12
REMARK                            x       y       z     vdW  Elec       q    Type
REMARK                         _______ _______ _______ _____ _____    ______ ____
ROOT
ATOM      1  C   UNL     1      10.657   3.891  -7.227  0.00  0.00    +0.017 C 
ATOM      2  C   UNL     1      10.242   3.263  -5.870  0.00  0.00    +0.025 C 
ATOM      3  C   UNL     1       9.106   4.192  -5.391  0.00  0.00    +0.088 C 
ATOM      4  N   UNL     1       9.278   5.483  -6.081  0.00  0.00    -0.298 NA
ATOM      5  C   UNL     1      10.478   5.402  -6.941  0.00  0.00    +0.085 C 
ATOM      6  C   UNL     1       8.086   5.822  -6.870  0.00  0.00    +0.105 C 
ENDROOT
BRANCH   3   7
ATOM      7  C   UNL     1       9.199   4.389  -3.901  0.00  0.00    -0.012 A 
ATOM      8  C   UNL     1       8.289   5.195  -3.244  0.00  0.00    +0.115 A 
ATOM      9  N   UNL     1       8.363   5.373  -1.939  0.00  0.00    -0.263 NA
ATOM     10  C   UNL     1       9.300   4.795  -1.213  0.00  0.00    +0.111 A 
ATOM     11  C   UNL     1      10.244   3.975  -1.800  0.00  0.00    +0.020 A 
ATOM     12  C   UNL     1      10.195   3.760  -3.169  0.00  0.00    +0.008 A 
ENDBRANCH   3   7
TORSDOF 1
ENDMDL
MODEL 9
REMARK VINA RESULT:    -2.966     10.274     11.435
REMARK INTER + INTRA:          -3.363
REMARK INTER:                  -3.147
REMARK INTRA:                  -0.216
REMARK UNBOUND:                -0.224
REMARK  Name = Nicotine.pdb
REMARK  2 active torsions:
REMARK  status: ('A' for Active; 'I' for Inactive)
REMARK    1  A    between atoms: C_3  and  C_6
REMARK    2  A    between atoms: N_4  and  C_12
REMARK                            x       y       z     vdW  Elec       q    Type
REMARK                         _______ _______ _______ _____ _____    ______ ____
ROOT
ATOM      1  C   UNL     1       9.896   3.486  -6.041  0.00  0.00    +0.017 C 
ATOM      2  C   UNL     1       9.193   3.520  -4.659  0.00  0.00    +0.025 C 
ATOM      3  C   UNL     1       8.299   4.774  -4.754  0.00  0.00    +0.088 C 
ATOM      4  N   UNL     1       8.875   5.643  -5.796  0.00  0.00    -0.298 NA
ATOM      5  C   UNL     1      10.093   4.996  -6.329  0.00  0.00    +0.085 C 
ATOM      6  C   UNL     1       7.902   5.897  -6.867  0.00  0.00    +0.105 C 
ENDROOT
BRANCH   3   7
ATOM      7  C   UNL     1       8.287   5.497  -3.432  0.00  0.00    -0.012 A 
ATOM      8  C   UNL     1       9.292   5.281  -2.508  0.00  0.00    +0.115 A 
ATOM      9  N   UNL     1       9.289   5.910  -1.349  0.00  0.00    -0.263 NA
ATOM     10  C   UNL     1       8.337   6.761  -1.024  0.00  0.00    +0.111 A 
ATOM     11  C   UNL     1       7.299   7.028  -1.898  0.00  0.00    +0.020 A 
ATOM     12  C   UNL     1       7.271   6.390  -3.128  0.00  0.00    +0.008 A 
ENDBRANCH   3   7
TORSDOF 1
ENDMDL
MODEL 10
REMARK VINA RESULT:    -2.964     10.117     11.033
REMARK INTER + INTRA:          -3.361
REMARK INTER:                  -3.140
REMARK INTRA:                  -0.221
REMARK UNBOUND:                -0.224
REMARK  Name = Nicotine.pdb
REMARK  2 active torsions:
REMARK  status: ('A' for Active; 'I' for Inactive)
REMARK    1  A    between atoms: C_3  and  C_6
REMARK    2  A    between atoms: N_4  and  C_12
REMARK                            x       y       z     vdW  Elec       q    Type
REMARK                         _______ _______ _______ _____ _____    ______ ____
ROOT
ATOM      1  C   UNL     1      10.871   4.027  -2.022  0.00  0.00    +0.017 C 
ATOM      2  C   UNL     1      10.637   4.608  -3.441  0.00  0.00    +0.025 C 
ATOM      3  C   UNL     1       9.507   5.635  -3.213  0.00  0.00    +0.088 C 
ATOM      4  N   UNL     1       8.806   5.246  -1.977  0.00  0.00    -0.298 NA
ATOM      5  C   UNL     1       9.433   4.016  -1.447  0.00  0.00    +0.085 C 
ATOM      6  C   UNL     1       8.847   6.328  -0.984  0.00  0.00    +0.105 C 
ENDROOT
BRANCH   3   7
ATOM      7  C   UNL     1       8.550   5.611  -4.376  0.00  0.00    -0.012 A 
ATOM      8  C   UNL     1       7.225   5.266  -4.185  0.00  0.00    +0.115 A 
ATOM      9  N   UNL     1       6.381   5.242  -5.197  0.00  0.00    -0.263 NA
ATOM     10  C   UNL     1       6.761   5.543  -6.423  0.00  0.00    +0.111 A 
ATOM     11  C   UNL     1       8.069   5.898  -6.692  0.00  0.00    +0.020 A 
ATOM     12  C   UNL     1       8.985   5.939  -5.651  0.00  0.00    +0.008 A 
ENDBRANCH   3   7
TORSDOF 1
ENDMDL
