MODEL 1
REMARK VINA RESULT:    -4.447      0.000      0.000
REMARK INTER + INTRA:          -4.921
REMARK INTER:                  -4.707
REMARK INTRA:                  -0.214
REMARK UNBOUND:                -0.214
REMARK  Name = Nicotine.pdb
REMARK  2 active torsions:
REMARK  status: ('A' for Active; 'I' for Inactive)
REMARK    1  A    between atoms: C_3  and  C_6
REMARK    2  A    between atoms: N_4  and  C_12
REMARK                            x       y       z     vdW  Elec       q    Type
REMARK                         _______ _______ _______ _____ _____    ______ ____
ROOT
ATOM      1  C   UNL     1      -1.274   3.258   5.019  0.00  0.00    +0.017 C 
ATOM      2  C   UNL     1      -1.111   4.410   3.993  0.00  0.00    +0.025 C 
ATOM      3  C   UNL     1      -2.441   5.182   4.123  0.00  0.00    +0.088 C 
ATOM      4  N   UNL     1      -3.433   4.251   4.691  0.00  0.00    -0.298 NA
ATOM      5  C   UNL     1      -2.784   2.937   4.892  0.00  0.00    +0.085 C 
ATOM      6  C   UNL     1      -3.979   4.768   5.952  0.00  0.00    +0.105 C 
ENDROOT
BRANCH   3   7
ATOM      7  C   UNL     1      -2.896   5.653   2.766  0.00  0.00    -0.012 A 
ATOM      8  C   UNL     1      -4.031   5.119   2.185  0.00  0.00    +0.115 A 
ATOM      9  N   UNL     1      -4.436   5.526   0.998  0.00  0.00    -0.263 NA
ATOM     10  C   UNL     1      -3.781   6.448   0.321  0.00  0.00    +0.111 A 
ATOM     11  C   UNL     1      -2.638   7.028   0.838  0.00  0.00    +0.020 A 
ATOM     12  C   UNL     1      -2.185   6.630   2.086  0.00  0.00    +0.008 A 
ENDBRANCH   3   7
TORSDOF 1
ENDMDL
MODEL 2
REMARK VINA RESULT:    -4.105      3.838      7.314
REMARK INTER + INTRA:          -4.559
REMARK INTER:                  -4.358
REMARK INTRA:                  -0.201
REMARK UNBOUND:                -0.214
REMARK  Name = Nicotine.pdb
REMARK  2 active torsions:
REMARK  status: ('A' for Active; 'I' for Inactive)
REMARK    1  A    between atoms: C_3  and  C_6
REMARK    2  A    between atoms: N_4  and  C_12
REMARK                            x       y       z     vdW  Elec       q    Type
REMARK                         _______ _______ _______ _____ _____    ______ ____
ROOT
ATOM      1  C   UNL     1      -4.868   6.207  -5.351  0.00  0.00    +0.017 C 
ATOM      2  C   UNL     1      -4.790   6.936  -3.983  0.00  0.00    +0.025 C 
ATOM      3  C   UNL     1      -3.460   6.422  -3.392  0.00  0.00    +0.088 C 
ATOM      4  N   UNL     1      -3.152   5.143  -4.057  0.00  0.00    -0.298 NA
ATOM      5  C   UNL     1      -4.239   4.833  -5.010  0.00  0.00    +0.085 C 
ATOM      6  C   UNL     1      -1.853   5.204  -4.740  0.00  0.00    +0.105 C 
ENDROOT
BRANCH   3   7
ATOM      7  C   UNL     1      -3.608   6.207  -1.908  0.00  0.00    -0.012 A 
ATOM      8  C   UNL     1      -2.949   7.028  -1.013  0.00  0.00    +0.115 A 
ATOM      9  N   UNL     1      -3.073   6.847   0.287  0.00  0.00    -0.263 NA
ATOM     10  C   UNL     1      -3.824   5.884   0.784  0.00  0.00    +0.111 A 
ATOM     11  C   UNL     1      -4.515   5.024  -0.049  0.00  0.00    +0.020 A 
ATOM     12  C   UNL     1      -4.412   5.187  -1.422  0.00  0.00    +0.008 A 
ENDBRANCH   3   7
TORSDOF 1
ENDMDL
MODEL 3
REMARK VINA RESULT:    -3.966      8.348      9.783
REMARK INTER + INTRA:          -4.413
REMARK INTER:                  -4.210
REMARK INTRA:                  -0.203
REMARK UNBOUND:                -0.214
REMARK  Name = Nicotine.pdb
REMARK  2 active torsions:
REMARK  status: ('A' for Active; 'I' for Inactive)
REMARK    1  A    between atoms: C_3  and  C_6
REMARK    2  A    between atoms: N_4  and  C_12
REMARK                            x       y       z     vdW  Elec       q    Type
REMARK                         _______ _______ _______ _____ _____    ______ ____
ROOT
ATOM      1  C   UNL     1       0.399  -0.378  -5.552  0.00  0.00    +0.017 C 
ATOM      2  C   UNL     1      -0.427   0.455  -6.567  0.00  0.00    +0.025 C 
ATOM      3  C   UNL     1      -0.901   1.659  -5.725  0.00  0.00    +0.088 C 
ATOM      4  N   UNL     1      -0.854   1.248  -4.311  0.00  0.00    -0.298 NA
ATOM      5  C   UNL     1      -0.400  -0.157  -4.243  0.00  0.00    +0.085 C 
ATOM      6  C   UNL     1       0.032   2.126  -3.536  0.00  0.00    +0.105 C 
ENDROOT
BRANCH   3   7
ATOM      7  C   UNL     1      -2.310   2.029  -6.107  0.00  0.00    -0.012 A 
ATOM      8  C   UNL     1      -3.269   1.048  -6.279  0.00  0.00    +0.115 A 
ATOM      9  N   UNL     1      -4.505   1.363  -6.613  0.00  0.00    -0.263 NA
ATOM     10  C   UNL     1      -4.875   2.615  -6.796  0.00  0.00    +0.111 A 
ATOM     11  C   UNL     1      -3.972   3.650  -6.642  0.00  0.00    +0.020 A 
ATOM     12  C   UNL     1      -2.664   3.358  -6.286  0.00  0.00    +0.008 A 
ENDBRANCH   3   7
TORSDOF 1
ENDMDL
MODEL 4
REMARK VINA RESULT:    -3.849      9.068     10.348
REMARK INTER + INTRA:          -4.288
REMARK INTER:                  -4.074
REMARK INTRA:                  -0.215
REMARK UNBOUND:                -0.214
REMARK  Name = Nicotine.pdb
REMARK  2 active torsions:
REMARK  status: ('A' for Active; 'I' for Inactive)
REMARK    1  A    between atoms: C_3  and  C_6
REMARK    2  A    between atoms: N_4  and  C_12
REMARK                            x       y       z     vdW  Elec       q    Type
REMARK                         _______ _______ _______ _____ _____    ______ ____
ROOT
ATOM      1  C   UNL     1      -3.198   4.959  -7.153  0.00  0.00    +0.017 C 
ATOM      2  C   UNL     1      -1.937   4.055  -7.189  0.00  0.00    +0.025 C 
ATOM      3  C   UNL     1      -2.481   2.683  -6.735  0.00  0.00    +0.088 C 
ATOM      4  N   UNL     1      -3.722   2.933  -5.981  0.00  0.00    -0.298 NA
ATOM      5  C   UNL     1      -3.954   4.392  -5.926  0.00  0.00    +0.085 C 
ATOM      6  C   UNL     1      -4.861   2.240  -6.596  0.00  0.00    +0.105 C 
ENDROOT
BRANCH   3   7
ATOM      7  C   UNL     1      -1.471   1.998  -5.852  0.00  0.00    -0.012 A 
ATOM      8  C   UNL     1      -0.415   2.710  -5.314  0.00  0.00    +0.115 A 
ATOM      9  N   UNL     1       0.473   2.118  -4.540  0.00  0.00    -0.263 NA
ATOM     10  C   UNL     1       0.393   0.835  -4.249  0.00  0.00    +0.111 A 
ATOM     11  C   UNL     1      -0.635   0.058  -4.750  0.00  0.00    +0.020 A 
ATOM     12  C   UNL     1      -1.591   0.647  -5.564  0.00  0.00    +0.008 A 
ENDBRANCH   3   7
TORSDOF 1
ENDMDL
MODEL 5
REMARK VINA RESULT:    -3.815      8.433      9.790
REMARK INTER + INTRA:          -4.252
REMARK INTER:                  -4.004
REMARK INTRA:                  -0.248
REMARK UNBOUND:                -0.214
REMARK  Name = Nicotine.pdb
REMARK  2 active torsions:
REMARK  status: ('A' for Active; 'I' for Inactive)
REMARK    1  A    between atoms: C_3  and  C_6
REMARK    2  A    between atoms: N_4  and  C_12
REMARK                            x       y       z     vdW  Elec       q    Type
REMARK                         _______ _______ _______ _____ _____    ______ ____
ROOT
ATOM      1  C   UNL     1       0.044  -0.180  -5.999  0.00  0.00    +0.017 C 
ATOM      2  C   UNL     1      -0.714   0.861  -6.864  0.00  0.00    +0.025 C 
ATOM      3  C   UNL     1      -1.025   1.988  -5.856  0.00  0.00    +0.088 C 
ATOM      4  N   UNL     1      -0.984   1.393  -4.508  0.00  0.00    -0.298 NA
ATOM      5  C   UNL     1      -0.688  -0.049  -4.640  0.00  0.00    +0.085 C 
ATOM      6  C   UNL     1       0.016   2.063  -3.667  0.00  0.00    +0.105 C 
ENDROOT
BRANCH   3   7
ATOM      7  C   UNL     1      -2.395   2.554  -6.127  0.00  0.00    -0.012 A 
ATOM      8  C   UNL     1      -2.617   3.916  -6.050  0.00  0.00    +0.115 A 
ATOM      9  N   UNL     1      -3.814   4.419  -6.285  0.00  0.00    -0.263 NA
ATOM     10  C   UNL     1      -4.838   3.651  -6.601  0.00  0.00    +0.111 A 
ATOM     11  C   UNL     1      -4.692   2.280  -6.697  0.00  0.00    +0.020 A 
ATOM     12  C   UNL     1      -3.448   1.716  -6.461  0.00  0.00    +0.008 A 
ENDBRANCH   3   7
TORSDOF 1
ENDMDL
MODEL 6
REMARK VINA RESULT:    -3.700      1.180      2.320
REMARK INTER + INTRA:          -4.131
REMARK INTER:                  -3.915
REMARK INTRA:                  -0.215
REMARK UNBOUND:                -0.214
REMARK  Name = Nicotine.pdb
REMARK  2 active torsions:
REMARK  status: ('A' for Active; 'I' for Inactive)
REMARK    1  A    between atoms: C_3  and  C_6
REMARK    2  A    between atoms: N_4  and  C_12
REMARK                            x       y       z     vdW  Elec       q    Type
REMARK                         _______ _______ _______ _____ _____    ______ ____
ROOT
ATOM      1  C   UNL     1      -4.073   4.317   6.078  0.00  0.00    +0.017 C 
ATOM      2  C   UNL     1      -4.604   4.463   4.628  0.00  0.00    +0.025 C 
ATOM      3  C   UNL     1      -3.338   4.250   3.771  0.00  0.00    +0.088 C 
ATOM      4  N   UNL     1      -2.176   4.546   4.628  0.00  0.00    -0.298 NA
ATOM      5  C   UNL     1      -2.666   4.956   5.962  0.00  0.00    +0.085 C 
ATOM      6  C   UNL     1      -1.284   3.384   4.728  0.00  0.00    +0.105 C 
ENDROOT
BRANCH   3   7
ATOM      7  C   UNL     1      -3.357   5.183   2.589  0.00  0.00    -0.012 A 
ATOM      8  C   UNL     1      -2.432   6.206   2.491  0.00  0.00    +0.115 A 
ATOM      9  N   UNL     1      -2.441   7.027   1.459  0.00  0.00    -0.263 NA
ATOM     10  C   UNL     1      -3.324   6.909   0.487  0.00  0.00    +0.111 A 
ATOM     11  C   UNL     1      -4.279   5.909   0.516  0.00  0.00    +0.020 A 
ATOM     12  C   UNL     1      -4.297   5.024   1.582  0.00  0.00    +0.008 A 
ENDBRANCH   3   7
TORSDOF 1
ENDMDL
MODEL 7
REMARK VINA RESULT:    -3.593      7.683      9.265
REMARK INTER + INTRA:          -4.017
REMARK INTER:                  -3.831
REMARK INTRA:                  -0.186
REMARK UNBOUND:                -0.214
REMARK  Name = Nicotine.pdb
REMARK  2 active torsions:
REMARK  status: ('A' for Active; 'I' for Inactive)
REMARK    1  A    between atoms: C_3  and  C_6
REMARK    2  A    between atoms: N_4  and  C_12
REMARK                            x       y       z     vdW  Elec       q    Type
REMARK                         _______ _______ _______ _____ _____    ______ ____
ROOT
ATOM      1  C   UNL     1      -3.979   6.307  -3.705  0.00  0.00    +0.017 C 
ATOM      2  C   UNL     1      -2.568   5.876  -4.184  0.00  0.00    +0.025 C 
ATOM      3  C   UNL     1      -2.872   5.026  -5.436  0.00  0.00    +0.088 C 
ATOM      4  N   UNL     1      -4.263   4.554  -5.317  0.00  0.00    -0.298 NA
ATOM      5  C   UNL     1      -4.821   5.051  -4.041  0.00  0.00    +0.085 C 
ATOM      6  C   UNL     1      -5.072   5.004  -6.457  0.00  0.00    +0.105 C 
ENDROOT
BRANCH   3   7
ATOM      7  C   UNL     1      -1.933   3.849  -5.496  0.00  0.00    -0.012 A 
ATOM      8  C   UNL     1      -0.767   3.847  -4.756  0.00  0.00    +0.115 A 
ATOM      9  N   UNL     1       0.060   2.820  -4.803  0.00  0.00    -0.263 NA
ATOM     10  C   UNL     1      -0.188   1.764  -5.551  0.00  0.00    +0.111 A 
ATOM     11  C   UNL     1      -1.336   1.694  -6.318  0.00  0.00    +0.020 A 
ATOM     12  C   UNL     1      -2.232   2.752  -6.290  0.00  0.00    +0.008 A 
ENDBRANCH   3   7
TORSDOF 1
ENDMDL
MODEL 8
REMARK VINA RESULT:    -3.539      8.744      9.710
REMARK INTER + INTRA:          -3.961
REMARK INTER:                  -3.763
REMARK INTRA:                  -0.197
REMARK UNBOUND:                -0.214
REMARK  Name = Nicotine.pdb
REMARK  2 active torsions:
REMARK  status: ('A' for Active; 'I' for Inactive)
REMARK    1  A    between atoms: C_3  and  C_6
REMARK    2  A    between atoms: N_4  and  C_12
REMARK                            x       y       z     vdW  Elec       q    Type
REMARK                         _______ _______ _______ _____ _____    ______ ____
ROOT
ATOM      1  C   UNL     1       0.121  -0.458  -4.411  0.00  0.00    +0.017 C 
ATOM      2  C   UNL     1      -1.150   0.323  -4.835  0.00  0.00    +0.025 C 
ATOM      3  C   UNL     1      -0.617   1.300  -5.905  0.00  0.00    +0.088 C 
ATOM      4  N   UNL     1       0.830   1.456  -5.671  0.00  0.00    -0.298 NA
ATOM      5  C   UNL     1       1.207   0.644  -4.495  0.00  0.00    +0.085 C 
ATOM      6  C   UNL     1       1.601   1.059  -6.856  0.00  0.00    +0.105 C 
ENDROOT
BRANCH   3   7
ATOM      7  C   UNL     1      -1.307   2.633  -5.771  0.00  0.00    -0.012 A 
ATOM      8  C   UNL     1      -2.526   2.854  -6.383  0.00  0.00    +0.115 A 
ATOM      9  N   UNL     1      -3.136   4.018  -6.271  0.00  0.00    -0.263 NA
ATOM     10  C   UNL     1      -2.614   5.010  -5.577  0.00  0.00    +0.111 A 
ATOM     11  C   UNL     1      -1.398   4.862  -4.936  0.00  0.00    +0.020 A 
ATOM     12  C   UNL     1      -0.730   3.651  -5.027  0.00  0.00    +0.008 A 
ENDBRANCH   3   7
TORSDOF 1
ENDMDL
MODEL 9
REMARK VINA RESULT:    -3.426      1.998      2.933
REMARK INTER + INTRA:          -3.841
REMARK INTER:                  -3.619
REMARK INTRA:                  -0.222
REMARK UNBOUND:                -0.214
REMARK  Name = Nicotine.pdb
REMARK  2 active torsions:
REMARK  status: ('A' for Active; 'I' for Inactive)
REMARK    1  A    between atoms: C_3  and  C_6
REMARK    2  A    between atoms: N_4  and  C_12
REMARK                            x       y       z     vdW  Elec       q    Type
REMARK                         _______ _______ _______ _____ _____    ______ ____
ROOT
ATOM      1  C   UNL     1      -2.118   0.295   5.806  0.00  0.00    +0.017 C 
ATOM      2  C   UNL     1      -1.744   1.791   5.632  0.00  0.00    +0.025 C 
ATOM      3  C   UNL     1      -3.120   2.490   5.598  0.00  0.00    +0.088 C 
ATOM      4  N   UNL     1      -4.115   1.477   5.203  0.00  0.00    -0.298 NA
ATOM      5  C   UNL     1      -3.416   0.196   4.967  0.00  0.00    +0.085 C 
ATOM      6  C   UNL     1      -5.154   1.329   6.230  0.00  0.00    +0.105 C 
ENDROOT
BRANCH   3   7
ATOM      7  C   UNL     1      -3.100   3.612   4.592  0.00  0.00    -0.012 A 
ATOM      8  C   UNL     1      -4.095   3.712   3.638  0.00  0.00    +0.115 A 
ATOM      9  N   UNL     1      -4.086   4.691   2.754  0.00  0.00    -0.263 NA
ATOM     10  C   UNL     1      -3.136   5.605   2.743  0.00  0.00    +0.111 A 
ATOM     11  C   UNL     1      -2.109   5.570   3.667  0.00  0.00    +0.020 A 
ATOM     12  C   UNL     1      -2.088   4.559   4.615  0.00  0.00    +0.008 A 
ENDBRANCH   3   7
TORSDOF 1
ENDMDL
MODEL 10
REMARK VINA RESULT:    -3.313      1.831      4.644
REMARK INTER + INTRA:          -3.721
REMARK INTER:                  -3.507
REMARK INTRA:                  -0.214
REMARK UNBOUND:                -0.214
REMARK  Name = Nicotine.pdb
REMARK  2 active torsions:
REMARK  status: ('A' for Active; 'I' for Inactive)
REMARK    1  A    between atoms: C_3  and  C_6
REMARK    2  A    between atoms: N_4  and  C_12
REMARK                            x       y       z     vdW  Elec       q    Type
REMARK                         _______ _______ _______ _____ _____    ______ ____
ROOT
ATOM      1  C   UNL     1      -3.337   5.766   2.386  0.00  0.00    +0.017 C 
ATOM      2  C   UNL     1      -4.003   4.453   2.874  0.00  0.00    +0.025 C 
ATOM      3  C   UNL     1      -3.586   4.383   4.358  0.00  0.00    +0.088 C 
ATOM      4  N   UNL     1      -2.374   5.208   4.511  0.00  0.00    -0.298 NA
ATOM      5  C   UNL     1      -2.012   5.762   3.189  0.00  0.00    +0.085 C 
ATOM      6  C   UNL     1      -2.587   6.281   5.491  0.00  0.00    +0.105 C 
ENDROOT
BRANCH   3   7
ATOM      7  C   UNL     1      -3.287   2.956   4.740  0.00  0.00    -0.012 A 
ATOM      8  C   UNL     1      -4.295   2.010   4.753  0.00  0.00    +0.115 A 
ATOM      9  N   UNL     1      -4.042   0.759   5.086  0.00  0.00    -0.263 NA
ATOM     10  C   UNL     1      -2.830   0.362   5.417  0.00  0.00    +0.111 A 
ATOM     11  C   UNL     1      -1.771   1.251   5.426  0.00  0.00    +0.020 A 
ATOM     12  C   UNL     1      -1.998   2.573   5.077  0.00  0.00    +0.008 A 
ENDBRANCH   3   7
TORSDOF 1
ENDMDL
