MODEL 1
REMARK VINA RESULT:    -3.076      0.000      0.000
REMARK INTER + INTRA:          -3.473
REMARK INTER:                  -3.256
REMARK INTRA:                  -0.217
REMARK UNBOUND:                -0.217
REMARK  Name = Nicotine.pdb
REMARK  2 active torsions:
REMARK  status: ('A' for Active; 'I' for Inactive)
REMARK    1  A    between atoms: C_3  and  C_6
REMARK    2  A    between atoms: N_4  and  C_12
REMARK                            x       y       z     vdW  Elec       q    Type
REMARK                         _______ _______ _______ _____ _____    ______ ____
ROOT
ATOM      1  C   UNL     1       6.841   4.774  -6.830  0.00  0.00    +0.017 C 
ATOM      2  C   UNL     1       6.433   5.582  -5.570  0.00  0.00    +0.025 C 
ATOM      3  C   UNL     1       7.617   6.554  -5.383  0.00  0.00    +0.088 C 
ATOM      4  N   UNL     1       8.780   5.964  -6.069  0.00  0.00    -0.298 NA
ATOM      5  C   UNL     1       8.376   4.665  -6.648  0.00  0.00    +0.085 C 
ATOM      6  C   UNL     1       9.293   6.867  -7.108  0.00  0.00    +0.105 C 
ENDROOT
BRANCH   3   7
ATOM      7  C   UNL     1       7.916   6.721  -3.916  0.00  0.00    -0.012 A 
ATOM      8  C   UNL     1       9.219   6.880  -3.481  0.00  0.00    +0.115 A 
ATOM      9  N   UNL     1       9.489   7.027  -2.199  0.00  0.00    -0.263 NA
ATOM     10  C   UNL     1       8.538   7.028  -1.286  0.00  0.00    +0.111 A 
ATOM     11  C   UNL     1       7.212   6.874  -1.645  0.00  0.00    +0.020 A 
ATOM     12  C   UNL     1       6.889   6.723  -2.984  0.00  0.00    +0.008 A 
ENDBRANCH   3   7
TORSDOF 1
ENDMDL
MODEL 2
REMARK VINA RESULT:    -2.832      1.115      1.548
REMARK INTER + INTRA:          -3.214
REMARK INTER:                  -3.030
REMARK INTRA:                  -0.184
REMARK UNBOUND:                -0.217
REMARK  Name = Nicotine.pdb
REMARK  2 active torsions:
REMARK  status: ('A' for Active; 'I' for Inactive)
REMARK    1  A    between atoms: C_3  and  C_6
REMARK    2  A    between atoms: N_4  and  C_12
REMARK                            x       y       z     vdW  Elec       q    Type
REMARK                         _______ _______ _______ _____ _____    ______ ____
ROOT
ATOM      1  C   UNL     1       7.728   4.836  -7.132  0.00  0.00    +0.017 C 
ATOM      2  C   UNL     1       6.976   5.683  -6.072  0.00  0.00    +0.025 C 
ATOM      3  C   UNL     1       8.102   6.531  -5.442  0.00  0.00    +0.088 C 
ATOM      4  N   UNL     1       9.371   5.824  -5.692  0.00  0.00    -0.298 NA
ATOM      5  C   UNL     1       9.078   4.572  -6.421  0.00  0.00    +0.085 C 
ATOM      6  C   UNL     1      10.305   6.669  -6.448  0.00  0.00    +0.105 C 
ENDROOT
BRANCH   3   7
ATOM      7  C   UNL     1       7.873   6.667  -3.959  0.00  0.00    -0.012 A 
ATOM      8  C   UNL     1       6.597   6.564  -3.437  0.00  0.00    +0.115 A 
ATOM      9  N   UNL     1       6.388   6.683  -2.140  0.00  0.00    -0.263 NA
ATOM     10  C   UNL     1       7.376   6.903  -1.296  0.00  0.00    +0.111 A 
ATOM     11  C   UNL     1       8.679   7.017  -1.745  0.00  0.00    +0.020 A 
ATOM     12  C   UNL     1       8.938   6.893  -3.101  0.00  0.00    +0.008 A 
ENDBRANCH   3   7
TORSDOF 1
ENDMDL
MODEL 3
REMARK VINA RESULT:    -1.873      1.638      4.499
REMARK INTER + INTRA:          -2.199
REMARK INTER:                  -2.002
REMARK INTRA:                  -0.197
REMARK UNBOUND:                -0.217
REMARK  Name = Nicotine.pdb
REMARK  2 active torsions:
REMARK  status: ('A' for Active; 'I' for Inactive)
REMARK    1  A    between atoms: C_3  and  C_6
REMARK    2  A    between atoms: N_4  and  C_12
REMARK                            x       y       z     vdW  Elec       q    Type
REMARK                         _______ _______ _______ _____ _____    ______ ____
ROOT
ATOM      1  C   UNL     1       8.061   7.020  -2.216  0.00  0.00    +0.017 C 
ATOM      2  C   UNL     1       9.177   7.028  -3.294  0.00  0.00    +0.025 C 
ATOM      3  C   UNL     1       8.391   6.826  -4.607  0.00  0.00    +0.088 C 
ATOM      4  N   UNL     1       7.107   6.194  -4.255  0.00  0.00    -0.298 NA
ATOM      5  C   UNL     1       7.075   5.975  -2.794  0.00  0.00    +0.085 C 
ATOM      6  C   UNL     1       5.975   7.024  -4.688  0.00  0.00    +0.105 C 
ENDROOT
BRANCH   3   7
ATOM      7  C   UNL     1       9.167   5.930  -5.537  0.00  0.00    -0.012 A 
ATOM      8  C   UNL     1       8.810   4.603  -5.689  0.00  0.00    +0.115 A 
ATOM      9  N   UNL     1       9.484   3.812  -6.500  0.00  0.00    -0.263 NA
ATOM     10  C   UNL     1      10.517   4.248  -7.194  0.00  0.00    +0.111 A 
ATOM     11  C   UNL     1      10.933   5.562  -7.094  0.00  0.00    +0.020 A 
ATOM     12  C   UNL     1      10.245   6.426  -6.255  0.00  0.00    +0.008 A 
ENDBRANCH   3   7
TORSDOF 1
ENDMDL
