MODEL 1
REMARK VINA RESULT:    -3.551      0.000      0.000
REMARK INTER + INTRA:          -3.974
REMARK INTER:                  -3.759
REMARK INTRA:                  -0.216
REMARK UNBOUND:                -0.216
REMARK  Name = Nicotine.pdb
REMARK  2 active torsions:
REMARK  status: ('A' for Active; 'I' for Inactive)
REMARK    1  A    between atoms: C_3  and  C_6
REMARK    2  A    between atoms: N_4  and  C_12
REMARK                            x       y       z     vdW  Elec       q    Type
REMARK                         _______ _______ _______ _____ _____    ______ ____
ROOT
ATOM      1  C   UNL     1      -1.012   2.367   1.995  0.00  0.00    +0.017 C 
ATOM      2  C   UNL     1      -0.486   0.912   2.120  0.00  0.00    +0.025 C 
ATOM      3  C   UNL     1      -0.115   0.551   0.666  0.00  0.00    +0.088 C 
ATOM      4  N   UNL     1      -0.885   1.446  -0.217  0.00  0.00    -0.298 NA
ATOM      5  C   UNL     1      -1.729   2.323   0.622  0.00  0.00    +0.085 C 
ATOM      6  C   UNL     1       0.008   2.236  -1.073  0.00  0.00    +0.105 C 
ENDROOT
BRANCH   3   7
ATOM      7  C   UNL     1      -0.479  -0.885   0.387  0.00  0.00    -0.012 A 
ATOM      8  C   UNL     1      -1.374  -1.551   1.202  0.00  0.00    +0.115 A 
ATOM      9  N   UNL     1      -1.698  -2.807   0.964  0.00  0.00    -0.263 NA
ATOM     10  C   UNL     1      -1.186  -3.474  -0.051  0.00  0.00    +0.111 A 
ATOM     11  C   UNL     1      -0.284  -2.873  -0.910  0.00  0.00    +0.020 A 
ATOM     12  C   UNL     1       0.076  -1.552  -0.695  0.00  0.00    +0.008 A 
ENDBRANCH   3   7
TORSDOF 1
ENDMDL
MODEL 2
REMARK VINA RESULT:    -3.492      1.691      4.630
REMARK INTER + INTRA:          -3.911
REMARK INTER:                  -3.693
REMARK INTRA:                  -0.219
REMARK UNBOUND:                -0.216
REMARK  Name = Nicotine.pdb
REMARK  2 active torsions:
REMARK  status: ('A' for Active; 'I' for Inactive)
REMARK    1  A    between atoms: C_3  and  C_6
REMARK    2  A    between atoms: N_4  and  C_12
REMARK                            x       y       z     vdW  Elec       q    Type
REMARK                         _______ _______ _______ _____ _____    ______ ____
ROOT
ATOM      1  C   UNL     1      -0.427  -1.576   0.873  0.00  0.00    +0.017 C 
ATOM      2  C   UNL     1       0.135  -0.313   0.169  0.00  0.00    +0.025 C 
ATOM      3  C   UNL     1      -0.283   0.829   1.120  0.00  0.00    +0.088 C 
ATOM      4  N   UNL     1      -1.426   0.341   1.913  0.00  0.00    -0.298 NA
ATOM      5  C   UNL     1      -1.746  -1.035   1.479  0.00  0.00    +0.085 C 
ATOM      6  C   UNL     1      -1.126   0.384   3.350  0.00  0.00    +0.105 C 
ENDROOT
BRANCH   3   7
ATOM      7  C   UNL     1      -0.692   2.039   0.320  0.00  0.00    -0.012 A 
ATOM      8  C   UNL     1      -1.455   3.035   0.899  0.00  0.00    +0.115 A 
ATOM      9  N   UNL     1      -1.817   4.097   0.206  0.00  0.00    -0.263 NA
ATOM     10  C   UNL     1      -1.470   4.251  -1.056  0.00  0.00    +0.111 A 
ATOM     11  C   UNL     1      -0.707   3.297  -1.703  0.00  0.00    +0.020 A 
ATOM     12  C   UNL     1      -0.303   2.170  -1.005  0.00  0.00    +0.008 A 
ENDBRANCH   3   7
TORSDOF 1
ENDMDL
MODEL 3
REMARK VINA RESULT:    -3.379      2.216      5.076
REMARK INTER + INTRA:          -3.792
REMARK INTER:                  -3.605
REMARK INTRA:                  -0.187
REMARK UNBOUND:                -0.216
REMARK  Name = Nicotine.pdb
REMARK  2 active torsions:
REMARK  status: ('A' for Active; 'I' for Inactive)
REMARK    1  A    between atoms: C_3  and  C_6
REMARK    2  A    between atoms: N_4  and  C_12
REMARK                            x       y       z     vdW  Elec       q    Type
REMARK                         _______ _______ _______ _____ _____    ______ ____
ROOT
ATOM      1  C   UNL     1      -0.297   1.492   3.795  0.00  0.00    +0.017 C 
ATOM      2  C   UNL     1      -1.192   2.582   3.149  0.00  0.00    +0.025 C 
ATOM      3  C   UNL     1      -1.441   2.030   1.729  0.00  0.00    +0.088 C 
ATOM      4  N   UNL     1      -0.354   1.080   1.433  0.00  0.00    -0.298 NA
ATOM      5  C   UNL     1       0.565   1.040   2.590  0.00  0.00    +0.085 C 
ATOM      6  C   UNL     1      -0.887  -0.256   1.137  0.00  0.00    +0.105 C 
ENDROOT
BRANCH   3   7
ATOM      7  C   UNL     1      -1.425   3.158   0.730  0.00  0.00    -0.012 A 
ATOM      8  C   UNL     1      -1.508   4.470   1.156  0.00  0.00    +0.115 A 
ATOM      9  N   UNL     1      -1.494   5.463   0.288  0.00  0.00    -0.263 NA
ATOM     10  C   UNL     1      -1.403   5.248  -1.009  0.00  0.00    +0.111 A 
ATOM     11  C   UNL     1      -1.317   3.962  -1.509  0.00  0.00    +0.020 A 
ATOM     12  C   UNL     1      -1.322   2.893  -0.627  0.00  0.00    +0.008 A 
ENDBRANCH   3   7
TORSDOF 1
ENDMDL
MODEL 4
REMARK VINA RESULT:    -3.372      2.383      5.264
REMARK INTER + INTRA:          -3.784
REMARK INTER:                  -3.572
REMARK INTRA:                  -0.212
REMARK UNBOUND:                -0.216
REMARK  Name = Nicotine.pdb
REMARK  2 active torsions:
REMARK  status: ('A' for Active; 'I' for Inactive)
REMARK    1  A    between atoms: C_3  and  C_6
REMARK    2  A    between atoms: N_4  and  C_12
REMARK                            x       y       z     vdW  Elec       q    Type
REMARK                         _______ _______ _______ _____ _____    ______ ____
ROOT
ATOM      1  C   UNL     1      -0.902   0.149   1.588  0.00  0.00    +0.017 C 
ATOM      2  C   UNL     1      -1.776   1.373   1.208  0.00  0.00    +0.025 C 
ATOM      3  C   UNL     1      -1.182   1.818  -0.145  0.00  0.00    +0.088 C 
ATOM      4  N   UNL     1       0.196   1.298  -0.210  0.00  0.00    -0.298 NA
ATOM      5  C   UNL     1       0.486   0.577   1.048  0.00  0.00    +0.085 C 
ATOM      6  C   UNL     1       0.374   0.420  -1.373  0.00  0.00    +0.105 C 
ENDROOT
BRANCH   3   7
ATOM      7  C   UNL     1      -1.168   3.322  -0.230  0.00  0.00    -0.012 A 
ATOM      8  C   UNL     1      -1.456   4.088   0.884  0.00  0.00    +0.115 A 
ATOM      9  N   UNL     1      -1.446   5.405   0.819  0.00  0.00    -0.263 NA
ATOM     10  C   UNL     1      -1.163   6.041  -0.300  0.00  0.00    +0.111 A 
ATOM     11  C   UNL     1      -0.864   5.343  -1.455  0.00  0.00    +0.020 A 
ATOM     12  C   UNL     1      -0.860   3.957  -1.423  0.00  0.00    +0.008 A 
ENDBRANCH   3   7
TORSDOF 1
ENDMDL
MODEL 5
REMARK VINA RESULT:    -3.359      3.413      4.937
REMARK INTER + INTRA:          -3.771
REMARK INTER:                  -3.547
REMARK INTRA:                  -0.223
REMARK UNBOUND:                -0.216
REMARK  Name = Nicotine.pdb
REMARK  2 active torsions:
REMARK  status: ('A' for Active; 'I' for Inactive)
REMARK    1  A    between atoms: C_3  and  C_6
REMARK    2  A    between atoms: N_4  and  C_12
REMARK                            x       y       z     vdW  Elec       q    Type
REMARK                         _______ _______ _______ _____ _____    ______ ____
ROOT
ATOM      1  C   UNL     1      -2.161   0.599   4.384  0.00  0.00    +0.017 C 
ATOM      2  C   UNL     1      -1.659   0.640   2.917  0.00  0.00    +0.025 C 
ATOM      3  C   UNL     1      -0.844   1.949   2.866  0.00  0.00    +0.088 C 
ATOM      4  N   UNL     1      -1.326   2.807   3.963  0.00  0.00    -0.298 NA
ATOM      5  C   UNL     1      -2.414   2.100   4.670  0.00  0.00    +0.085 C 
ATOM      6  C   UNL     1      -0.234   3.149   4.884  0.00  0.00    +0.105 C 
ENDROOT
BRANCH   3   7
ATOM      7  C   UNL     1      -1.060   2.637   1.543  0.00  0.00    -0.012 A 
ATOM      8  C   UNL     1      -1.469   3.956   1.499  0.00  0.00    +0.115 A 
ATOM      9  N   UNL     1      -1.661   4.565   0.345  0.00  0.00    -0.263 NA
ATOM     10  C   UNL     1      -1.473   3.948  -0.804  0.00  0.00    +0.111 A 
ATOM     11  C   UNL     1      -1.063   2.628  -0.840  0.00  0.00    +0.020 A 
ATOM     12  C   UNL     1      -0.846   1.956   0.354  0.00  0.00    +0.008 A 
ENDBRANCH   3   7
TORSDOF 1
ENDMDL
MODEL 6
REMARK VINA RESULT:    -3.333      1.246      4.541
REMARK INTER + INTRA:          -3.743
REMARK INTER:                  -3.527
REMARK INTRA:                  -0.216
REMARK UNBOUND:                -0.216
REMARK  Name = Nicotine.pdb
REMARK  2 active torsions:
REMARK  status: ('A' for Active; 'I' for Inactive)
REMARK    1  A    between atoms: C_3  and  C_6
REMARK    2  A    between atoms: N_4  and  C_12
REMARK                            x       y       z     vdW  Elec       q    Type
REMARK                         _______ _______ _______ _____ _____    ______ ____
ROOT
ATOM      1  C   UNL     1       0.542  -2.937  -1.754  0.00  0.00    +0.017 C 
ATOM      2  C   UNL     1       0.824  -1.417  -1.620  0.00  0.00    +0.025 C 
ATOM      3  C   UNL     1       0.425  -1.118  -0.159  0.00  0.00    +0.088 C 
ATOM      4  N   UNL     1      -0.506  -2.178   0.266  0.00  0.00    -0.298 NA
ATOM      5  C   UNL     1      -0.719  -3.100  -0.870  0.00  0.00    +0.085 C 
ATOM      6  C   UNL     1       0.012  -2.896   1.437  0.00  0.00    +0.105 C 
ENDROOT
BRANCH   3   7
ATOM      7  C   UNL     1      -0.253   0.225  -0.078  0.00  0.00    -0.012 A 
ATOM      8  C   UNL     1      -1.099   0.518   0.975  0.00  0.00    +0.115 A 
ATOM      9  N   UNL     1      -1.697   1.691   1.054  0.00  0.00    -0.263 NA
ATOM     10  C   UNL     1      -1.515   2.624   0.141  0.00  0.00    +0.111 A 
ATOM     11  C   UNL     1      -0.684   2.404  -0.941  0.00  0.00    +0.020 A 
ATOM     12  C   UNL     1      -0.034   1.184  -1.055  0.00  0.00    +0.008 A 
ENDBRANCH   3   7
TORSDOF 1
ENDMDL
MODEL 7
REMARK VINA RESULT:    -3.305      2.108      3.805
REMARK INTER + INTRA:          -3.714
REMARK INTER:                  -3.465
REMARK INTRA:                  -0.249
REMARK UNBOUND:                -0.216
REMARK  Name = Nicotine.pdb
REMARK  2 active torsions:
REMARK  status: ('A' for Active; 'I' for Inactive)
REMARK    1  A    between atoms: C_3  and  C_6
REMARK    2  A    between atoms: N_4  and  C_12
REMARK                            x       y       z     vdW  Elec       q    Type
REMARK                         _______ _______ _______ _____ _____    ______ ____
ROOT
ATOM      1  C   UNL     1       0.705   4.960  -2.385  0.00  0.00    +0.017 C 
ATOM      2  C   UNL     1       0.061   3.549  -2.407  0.00  0.00    +0.025 C 
ATOM      3  C   UNL     1      -0.807   3.543  -1.131  0.00  0.00    +0.088 C 
ATOM      4  N   UNL     1      -0.256   4.564  -0.223  0.00  0.00    -0.298 NA
ATOM      5  C   UNL     1       0.924   5.180  -0.867  0.00  0.00    +0.085 C 
ATOM      6  C   UNL     1      -1.266   5.578   0.106  0.00  0.00    +0.105 C 
ENDROOT
BRANCH   3   7
ATOM      7  C   UNL     1      -0.748   2.187  -0.477  0.00  0.00    -0.012 A 
ATOM      8  C   UNL     1      -1.564   1.894   0.599  0.00  0.00    +0.115 A 
ATOM      9  N   UNL     1      -1.518   0.710   1.178  0.00  0.00    -0.263 NA
ATOM     10  C   UNL     1      -0.700  -0.235   0.759  0.00  0.00    +0.111 A 
ATOM     11  C   UNL     1       0.146  -0.015  -0.313  0.00  0.00    +0.020 A 
ATOM     12  C   UNL     1       0.122   1.216  -0.949  0.00  0.00    +0.008 A 
ENDBRANCH   3   7
TORSDOF 1
ENDMDL
MODEL 8
REMARK VINA RESULT:    -3.241      2.692      3.855
REMARK INTER + INTRA:          -3.646
REMARK INTER:                  -3.428
REMARK INTRA:                  -0.218
REMARK UNBOUND:                -0.216
REMARK  Name = Nicotine.pdb
REMARK  2 active torsions:
REMARK  status: ('A' for Active; 'I' for Inactive)
REMARK    1  A    between atoms: C_3  and  C_6
REMARK    2  A    between atoms: N_4  and  C_12
REMARK                            x       y       z     vdW  Elec       q    Type
REMARK                         _______ _______ _______ _____ _____    ______ ____
ROOT
ATOM      1  C   UNL     1       0.775   2.298  -2.138  0.00  0.00    +0.017 C 
ATOM      2  C   UNL     1       0.036   1.271  -1.240  0.00  0.00    +0.025 C 
ATOM      3  C   UNL     1      -1.050   2.127  -0.555  0.00  0.00    +0.088 C 
ATOM      4  N   UNL     1      -0.597   3.529  -0.603  0.00  0.00    -0.298 NA
ATOM      5  C   UNL     1       0.727   3.574  -1.260  0.00  0.00    +0.085 C 
ATOM      6  C   UNL     1      -1.567   4.373  -1.313  0.00  0.00    +0.105 C 
ENDROOT
BRANCH   3   7
ATOM      7  C   UNL     1      -1.221   1.691   0.877  0.00  0.00    -0.012 A 
ATOM      8  C   UNL     1      -1.320   2.629   1.887  0.00  0.00    +0.115 A 
ATOM      9  N   UNL     1      -1.469   2.255   3.142  0.00  0.00    -0.263 NA
ATOM     10  C   UNL     1      -1.530   0.983   3.484  0.00  0.00    +0.111 A 
ATOM     11  C   UNL     1      -1.439  -0.012   2.529  0.00  0.00    +0.020 A 
ATOM     12  C   UNL     1      -1.287   0.343   1.197  0.00  0.00    +0.008 A 
ENDBRANCH   3   7
TORSDOF 1
ENDMDL
MODEL 9
REMARK VINA RESULT:    -3.201      2.973      4.216
REMARK INTER + INTRA:          -3.604
REMARK INTER:                  -3.355
REMARK INTRA:                  -0.249
REMARK UNBOUND:                -0.216
REMARK  Name = Nicotine.pdb
REMARK  2 active torsions:
REMARK  status: ('A' for Active; 'I' for Inactive)
REMARK    1  A    between atoms: C_3  and  C_6
REMARK    2  A    between atoms: N_4  and  C_12
REMARK                            x       y       z     vdW  Elec       q    Type
REMARK                         _______ _______ _______ _____ _____    ______ ____
ROOT
ATOM      1  C   UNL     1      -1.020   5.873  -0.594  0.00  0.00    +0.017 C 
ATOM      2  C   UNL     1      -1.095   4.719  -1.629  0.00  0.00    +0.025 C 
ATOM      3  C   UNL     1      -1.032   3.455  -0.745  0.00  0.00    +0.088 C 
ATOM      4  N   UNL     1      -0.406   3.845   0.531  0.00  0.00    -0.298 NA
ATOM      5  C   UNL     1      -0.057   5.281   0.465  0.00  0.00    +0.085 C 
ATOM      6  C   UNL     1      -1.301   3.572   1.663  0.00  0.00    +0.105 C 
ENDROOT
BRANCH   3   7
ATOM      7  C   UNL     1      -0.202   2.396  -1.422  0.00  0.00    -0.012 A 
ATOM      8  C   UNL     1      -0.120   1.124  -0.888  0.00  0.00    +0.115 A 
ATOM      9  N   UNL     1       0.604   0.191  -1.475  0.00  0.00    -0.263 NA
ATOM     10  C   UNL     1       1.275   0.430  -2.585  0.00  0.00    +0.111 A 
ATOM     11  C   UNL     1       1.241   1.679  -3.177  0.00  0.00    +0.020 A 
ATOM     12  C   UNL     1       0.485   2.683  -2.592  0.00  0.00    +0.008 A 
ENDBRANCH   3   7
TORSDOF 1
ENDMDL
MODEL 10
REMARK VINA RESULT:    -3.107      1.475      4.214
REMARK INTER + INTRA:          -3.504
REMARK INTER:                  -3.309
REMARK INTRA:                  -0.195
REMARK UNBOUND:                -0.216
REMARK  Name = Nicotine.pdb
REMARK  2 active torsions:
REMARK  status: ('A' for Active; 'I' for Inactive)
REMARK    1  A    between atoms: C_3  and  C_6
REMARK    2  A    between atoms: N_4  and  C_12
REMARK                            x       y       z     vdW  Elec       q    Type
REMARK                         _______ _______ _______ _____ _____    ______ ____
ROOT
ATOM      1  C   UNL     1       0.907  -1.791   2.467  0.00  0.00    +0.017 C 
ATOM      2  C   UNL     1       0.224  -0.399   2.428  0.00  0.00    +0.025 C 
ATOM      3  C   UNL     1      -0.793  -0.542   1.276  0.00  0.00    +0.088 C 
ATOM      4  N   UNL     1      -0.323  -1.640   0.413  0.00  0.00    -0.298 NA
ATOM      5  C   UNL     1       0.946  -2.162   0.963  0.00  0.00    +0.085 C 
ATOM      6  C   UNL     1      -1.332  -2.704   0.316  0.00  0.00    +0.105 C 
ENDROOT
BRANCH   3   7
ATOM      7  C   UNL     1      -0.860   0.740   0.488  0.00  0.00    -0.012 A 
ATOM      8  C   UNL     1      -1.743   1.739   0.850  0.00  0.00    +0.115 A 
ATOM      9  N   UNL     1      -1.807   2.864   0.165  0.00  0.00    -0.263 NA
ATOM     10  C   UNL     1      -1.039   3.081  -0.884  0.00  0.00    +0.111 A 
ATOM     11  C   UNL     1      -0.131   2.128  -1.306  0.00  0.00    +0.020 A 
ATOM     12  C   UNL     1      -0.032   0.935  -0.607  0.00  0.00    +0.008 A 
ENDBRANCH   3   7
TORSDOF 1
ENDMDL
