MODEL 1
REMARK VINA RESULT:    -3.884      0.000      0.000
REMARK INTER + INTRA:          -4.304
REMARK INTER:                  -4.111
REMARK INTRA:                  -0.193
REMARK UNBOUND:                -0.193
REMARK  Name = Nicotine.pdb
REMARK  2 active torsions:
REMARK  status: ('A' for Active; 'I' for Inactive)
REMARK    1  A    between atoms: C_3  and  C_6
REMARK    2  A    between atoms: N_4  and  C_12
REMARK                            x       y       z     vdW  Elec       q    Type
REMARK                         _______ _______ _______ _____ _____    ______ ____
ROOT
ATOM      1  C   UNL     1       1.974   0.644  -2.819  0.00  0.00    +0.017 C 
ATOM      2  C   UNL     1       1.095  -0.465  -3.456  0.00  0.00    +0.025 C 
ATOM      3  C   UNL     1       0.089  -0.798  -2.334  0.00  0.00    +0.088 C 
ATOM      4  N   UNL     1       0.698  -0.374  -1.061  0.00  0.00    -0.298 NA
ATOM      5  C   UNL     1       2.039   0.181  -1.342  0.00  0.00    +0.085 C 
ATOM      6  C   UNL     1      -0.147   0.613  -0.376  0.00  0.00    +0.105 C 
ENDROOT
BRANCH   3   7
ATOM      7  C   UNL     1      -0.177  -2.281  -2.308  0.00  0.00    -0.012 A 
ATOM      8  C   UNL     1      -1.232  -2.815  -3.023  0.00  0.00    +0.115 A 
ATOM      9  N   UNL     1      -1.472  -4.112  -3.005  0.00  0.00    -0.263 NA
ATOM     10  C   UNL     1      -0.723  -4.945  -2.311  0.00  0.00    +0.111 A 
ATOM     11  C   UNL     1       0.351  -4.485  -1.572  0.00  0.00    +0.020 A 
ATOM     12  C   UNL     1       0.636  -3.128  -1.571  0.00  0.00    +0.008 A 
ENDBRANCH   3   7
TORSDOF 1
ENDMDL
MODEL 2
REMARK VINA RESULT:    -3.831      1.473      4.570
REMARK INTER + INTRA:          -4.247
REMARK INTER:                  -4.046
REMARK INTRA:                  -0.201
REMARK UNBOUND:                -0.193
REMARK  Name = Nicotine.pdb
REMARK  2 active torsions:
REMARK  status: ('A' for Active; 'I' for Inactive)
REMARK    1  A    between atoms: C_3  and  C_6
REMARK    2  A    between atoms: N_4  and  C_12
REMARK                            x       y       z     vdW  Elec       q    Type
REMARK                         _______ _______ _______ _____ _____    ______ ____
ROOT
ATOM      1  C   UNL     1      -0.805  -3.676  -1.928  0.00  0.00    +0.017 C 
ATOM      2  C   UNL     1       0.297  -2.698  -1.441  0.00  0.00    +0.025 C 
ATOM      3  C   UNL     1      -0.356  -1.314  -1.639  0.00  0.00    +0.088 C 
ATOM      4  N   UNL     1      -1.419  -1.472  -2.648  0.00  0.00    -0.298 NA
ATOM      5  C   UNL     1      -1.435  -2.880  -3.098  0.00  0.00    +0.085 C 
ATOM      6  C   UNL     1      -2.725  -1.078  -2.104  0.00  0.00    +0.105 C 
ENDROOT
BRANCH   3   7
ATOM      7  C   UNL     1       0.672  -0.327  -2.127  0.00  0.00    -0.012 A 
ATOM      8  C   UNL     1       1.099   0.701  -1.308  0.00  0.00    +0.115 A 
ATOM      9  N   UNL     1       1.999   1.569  -1.727  0.00  0.00    -0.263 NA
ATOM     10  C   UNL     1       2.524   1.494  -2.934  0.00  0.00    +0.111 A 
ATOM     11  C   UNL     1       2.147   0.493  -3.809  0.00  0.00    +0.020 A 
ATOM     12  C   UNL     1       1.207  -0.441  -3.401  0.00  0.00    +0.008 A 
ENDBRANCH   3   7
TORSDOF 1
ENDMDL
MODEL 3
REMARK VINA RESULT:    -3.823      1.501      4.579
REMARK INTER + INTRA:          -4.239
REMARK INTER:                  -4.051
REMARK INTRA:                  -0.189
REMARK UNBOUND:                -0.193
REMARK  Name = Nicotine.pdb
REMARK  2 active torsions:
REMARK  status: ('A' for Active; 'I' for Inactive)
REMARK    1  A    between atoms: C_3  and  C_6
REMARK    2  A    between atoms: N_4  and  C_12
REMARK                            x       y       z     vdW  Elec       q    Type
REMARK                         _______ _______ _______ _____ _____    ______ ____
ROOT
ATOM      1  C   UNL     1      -2.405  -2.069  -1.557  0.00  0.00    +0.017 C 
ATOM      2  C   UNL     1      -1.746  -0.945  -2.399  0.00  0.00    +0.025 C 
ATOM      3  C   UNL     1      -0.382  -1.556  -2.785  0.00  0.00    +0.088 C 
ATOM      4  N   UNL     1      -0.081  -2.611  -1.801  0.00  0.00    -0.298 NA
ATOM      5  C   UNL     1      -1.181  -2.662  -0.815  0.00  0.00    +0.085 C 
ATOM      6  C   UNL     1       0.096  -3.911  -2.461  0.00  0.00    +0.105 C 
ENDROOT
BRANCH   3   7
ATOM      7  C   UNL     1       0.686  -0.493  -2.742  0.00  0.00    -0.012 A 
ATOM      8  C   UNL     1       0.865   0.272  -1.605  0.00  0.00    +0.115 A 
ATOM      9  N   UNL     1       1.797   1.204  -1.559  0.00  0.00    -0.263 NA
ATOM     10  C   UNL     1       2.589   1.443  -2.585  0.00  0.00    +0.111 A 
ATOM     11  C   UNL     1       2.470   0.717  -3.755  0.00  0.00    +0.020 A 
ATOM     12  C   UNL     1       1.504  -0.274  -3.839  0.00  0.00    +0.008 A 
ENDBRANCH   3   7
TORSDOF 1
ENDMDL
MODEL 4
REMARK VINA RESULT:    -3.752      1.521      2.680
REMARK INTER + INTRA:          -4.164
REMARK INTER:                  -3.963
REMARK INTRA:                  -0.200
REMARK UNBOUND:                -0.193
REMARK  Name = Nicotine.pdb
REMARK  2 active torsions:
REMARK  status: ('A' for Active; 'I' for Inactive)
REMARK    1  A    between atoms: C_3  and  C_6
REMARK    2  A    between atoms: N_4  and  C_12
REMARK                            x       y       z     vdW  Elec       q    Type
REMARK                         _______ _______ _______ _____ _____    ______ ____
ROOT
ATOM      1  C   UNL     1       2.194  -0.924  -0.833  0.00  0.00    +0.017 C 
ATOM      2  C   UNL     1       1.147  -2.028  -1.138  0.00  0.00    +0.025 C 
ATOM      3  C   UNL     1       0.535  -1.565  -2.477  0.00  0.00    +0.088 C 
ATOM      4  N   UNL     1       0.774  -0.115  -2.588  0.00  0.00    -0.298 NA
ATOM      5  C   UNL     1       1.480   0.341  -1.372  0.00  0.00    +0.085 C 
ATOM      6  C   UNL     1       1.546   0.201  -3.796  0.00  0.00    +0.105 C 
ENDROOT
BRANCH   3   7
ATOM      7  C   UNL     1      -0.946  -1.844  -2.488  0.00  0.00    -0.012 A 
ATOM      8  C   UNL     1      -1.418  -3.099  -2.823  0.00  0.00    +0.115 A 
ATOM      9  N   UNL     1      -2.712  -3.352  -2.834  0.00  0.00    -0.263 NA
ATOM     10  C   UNL     1      -3.602  -2.428  -2.530  0.00  0.00    +0.111 A 
ATOM     11  C   UNL     1      -3.204  -1.150  -2.183  0.00  0.00    +0.020 A 
ATOM     12  C   UNL     1      -1.851  -0.848  -2.155  0.00  0.00    +0.008 A 
ENDBRANCH   3   7
TORSDOF 1
ENDMDL
MODEL 5
REMARK VINA RESULT:    -3.686      1.504      4.645
REMARK INTER + INTRA:          -4.094
REMARK INTER:                  -3.908
REMARK INTRA:                  -0.186
REMARK UNBOUND:                -0.193
REMARK  Name = Nicotine.pdb
REMARK  2 active torsions:
REMARK  status: ('A' for Active; 'I' for Inactive)
REMARK    1  A    between atoms: C_3  and  C_6
REMARK    2  A    between atoms: N_4  and  C_12
REMARK                            x       y       z     vdW  Elec       q    Type
REMARK                         _______ _______ _______ _____ _____    ______ ____
ROOT
ATOM      1  C   UNL     1       0.251  -4.201  -0.771  0.00  0.00    +0.017 C 
ATOM      2  C   UNL     1       0.908  -2.818  -0.525  0.00  0.00    +0.025 C 
ATOM      3  C   UNL     1       0.269  -1.930  -1.614  0.00  0.00    +0.088 C 
ATOM      4  N   UNL     1      -0.208  -2.826  -2.683  0.00  0.00    -0.298 NA
ATOM      5  C   UNL     1       0.129  -4.218  -2.316  0.00  0.00    +0.085 C 
ATOM      6  C   UNL     1      -1.653  -2.672  -2.894  0.00  0.00    +0.105 C 
ENDROOT
BRANCH   3   7
ATOM      7  C   UNL     1       1.296  -0.975  -2.164  0.00  0.00    -0.012 A 
ATOM      8  C   UNL     1       2.466  -0.730  -1.471  0.00  0.00    +0.115 A 
ATOM      9  N   UNL     1       3.370   0.105  -1.945  0.00  0.00    -0.263 NA
ATOM     10  C   UNL     1       3.197   0.735  -3.090  0.00  0.00    +0.111 A 
ATOM     11  C   UNL     1       2.052   0.540  -3.840  0.00  0.00    +0.020 A 
ATOM     12  C   UNL     1       1.082  -0.335  -3.375  0.00  0.00    +0.008 A 
ENDBRANCH   3   7
TORSDOF 1
ENDMDL
MODEL 6
REMARK VINA RESULT:    -3.538      1.161      1.634
REMARK INTER + INTRA:          -3.938
REMARK INTER:                  -3.683
REMARK INTRA:                  -0.255
REMARK UNBOUND:                -0.193
REMARK  Name = Nicotine.pdb
REMARK  2 active torsions:
REMARK  status: ('A' for Active; 'I' for Inactive)
REMARK    1  A    between atoms: C_3  and  C_6
REMARK    2  A    between atoms: N_4  and  C_12
REMARK                            x       y       z     vdW  Elec       q    Type
REMARK                         _______ _______ _______ _____ _____    ______ ____
ROOT
ATOM      1  C   UNL     1       0.478   0.771  -0.852  0.00  0.00    +0.017 C 
ATOM      2  C   UNL     1       0.785  -0.410  -1.811  0.00  0.00    +0.025 C 
ATOM      3  C   UNL     1      -0.604  -1.043  -2.037  0.00  0.00    +0.088 C 
ATOM      4  N   UNL     1      -1.455  -0.648  -0.900  0.00  0.00    -0.298 NA
ATOM      5  C   UNL     1      -0.650   0.175   0.027  0.00  0.00    +0.085 C 
ATOM      6  C   UNL     1      -2.643   0.083  -1.359  0.00  0.00    +0.105 C 
ENDROOT
BRANCH   3   7
ATOM      7  C   UNL     1      -0.481  -2.544  -2.090  0.00  0.00    -0.012 A 
ATOM      8  C   UNL     1      -1.356  -3.290  -2.857  0.00  0.00    +0.115 A 
ATOM      9  N   UNL     1      -1.255  -4.604  -2.909  0.00  0.00    -0.263 NA
ATOM     10  C   UNL     1      -0.325  -5.255  -2.238  0.00  0.00    +0.111 A 
ATOM     11  C   UNL     1       0.586  -4.576  -1.450  0.00  0.00    +0.020 A 
ATOM     12  C   UNL     1       0.514  -3.193  -1.375  0.00  0.00    +0.008 A 
ENDBRANCH   3   7
TORSDOF 1
ENDMDL
MODEL 7
REMARK VINA RESULT:    -3.443      1.497      4.510
REMARK INTER + INTRA:          -3.837
REMARK INTER:                  -3.593
REMARK INTRA:                  -0.243
REMARK UNBOUND:                -0.193
REMARK  Name = Nicotine.pdb
REMARK  2 active torsions:
REMARK  status: ('A' for Active; 'I' for Inactive)
REMARK    1  A    between atoms: C_3  and  C_6
REMARK    2  A    between atoms: N_4  and  C_12
REMARK                            x       y       z     vdW  Elec       q    Type
REMARK                         _______ _______ _______ _____ _____    ______ ____
ROOT
ATOM      1  C   UNL     1       1.208  -5.269   0.253  0.00  0.00    +0.017 C 
ATOM      2  C   UNL     1       1.071  -3.724   0.295  0.00  0.00    +0.025 C 
ATOM      3  C   UNL     1       0.206  -3.419  -0.946  0.00  0.00    +0.088 C 
ATOM      4  N   UNL     1       0.350  -4.558  -1.871  0.00  0.00    -0.298 NA
ATOM      5  C   UNL     1       1.282  -5.536  -1.271  0.00  0.00    +0.085 C 
ATOM      6  C   UNL     1      -0.951  -5.176  -2.154  0.00  0.00    +0.105 C 
ENDROOT
BRANCH   3   7
ATOM      7  C   UNL     1       0.687  -2.155  -1.609  0.00  0.00    -0.012 A 
ATOM      8  C   UNL     1       0.030  -1.652  -2.716  0.00  0.00    +0.115 A 
ATOM      9  N   UNL     1       0.445  -0.546  -3.302  0.00  0.00    -0.263 NA
ATOM     10  C   UNL     1       1.493   0.121  -2.861  0.00  0.00    +0.111 A 
ATOM     11  C   UNL     1       2.200  -0.321  -1.758  0.00  0.00    +0.020 A 
ATOM     12  C   UNL     1       1.790  -1.477  -1.113  0.00  0.00    +0.008 A 
ENDBRANCH   3   7
TORSDOF 1
ENDMDL
MODEL 8
REMARK VINA RESULT:    -3.441      1.842      4.327
REMARK INTER + INTRA:          -3.835
REMARK INTER:                  -3.621
REMARK INTRA:                  -0.214
REMARK UNBOUND:                -0.193
REMARK  Name = Nicotine.pdb
REMARK  2 active torsions:
REMARK  status: ('A' for Active; 'I' for Inactive)
REMARK    1  A    between atoms: C_3  and  C_6
REMARK    2  A    between atoms: N_4  and  C_12
REMARK                            x       y       z     vdW  Elec       q    Type
REMARK                         _______ _______ _______ _____ _____    ______ ____
ROOT
ATOM      1  C   UNL     1      -1.519  -1.186  -0.591  0.00  0.00    +0.017 C 
ATOM      2  C   UNL     1      -0.690  -0.158  -1.405  0.00  0.00    +0.025 C 
ATOM      3  C   UNL     1       0.010  -1.037  -2.464  0.00  0.00    +0.088 C 
ATOM      4  N   UNL     1       0.041  -2.414  -1.937  0.00  0.00    -0.298 NA
ATOM      5  C   UNL     1      -0.581  -2.419  -0.596  0.00  0.00    +0.085 C 
ATOM      6  C   UNL     1      -0.649  -3.341  -2.843  0.00  0.00    +0.105 C 
ENDROOT
BRANCH   3   7
ATOM      7  C   UNL     1       1.414  -0.543  -2.694  0.00  0.00    -0.012 A 
ATOM      8  C   UNL     1       1.803  -0.098  -3.944  0.00  0.00    +0.115 A 
ATOM      9  N   UNL     1       3.030   0.337  -4.154  0.00  0.00    -0.263 NA
ATOM     10  C   UNL     1       3.929   0.365  -3.190  0.00  0.00    +0.111 A 
ATOM     11  C   UNL     1       3.614  -0.063  -1.914  0.00  0.00    +0.020 A 
ATOM     12  C   UNL     1       2.332  -0.522  -1.655  0.00  0.00    +0.008 A 
ENDBRANCH   3   7
TORSDOF 1
ENDMDL
MODEL 9
REMARK VINA RESULT:    -3.335      2.174      3.933
REMARK INTER + INTRA:          -3.723
REMARK INTER:                  -3.509
REMARK INTRA:                  -0.214
REMARK UNBOUND:                -0.193
REMARK  Name = Nicotine.pdb
REMARK  2 active torsions:
REMARK  status: ('A' for Active; 'I' for Inactive)
REMARK    1  A    between atoms: C_3  and  C_6
REMARK    2  A    between atoms: N_4  and  C_12
REMARK                            x       y       z     vdW  Elec       q    Type
REMARK                         _______ _______ _______ _____ _____    ______ ____
ROOT
ATOM      1  C   UNL     1       0.458  -4.932  -1.874  0.00  0.00    +0.017 C 
ATOM      2  C   UNL     1      -0.683  -4.381  -2.769  0.00  0.00    +0.025 C 
ATOM      3  C   UNL     1      -0.649  -2.865  -2.479  0.00  0.00    +0.088 C 
ATOM      4  N   UNL     1       0.004  -2.685  -1.170  0.00  0.00    -0.298 NA
ATOM      5  C   UNL     1       0.351  -4.016  -0.630  0.00  0.00    +0.085 C 
ATOM      6  C   UNL     1       1.197  -1.837  -1.289  0.00  0.00    +0.105 C 
ENDROOT
BRANCH   3   7
ATOM      7  C   UNL     1      -2.054  -2.321  -2.432  0.00  0.00    -0.012 A 
ATOM      8  C   UNL     1      -3.135  -3.180  -2.387  0.00  0.00    +0.115 A 
ATOM      9  N   UNL     1      -4.368  -2.712  -2.346  0.00  0.00    -0.263 NA
ATOM     10  C   UNL     1      -4.617  -1.418  -2.346  0.00  0.00    +0.111 A 
ATOM     11  C   UNL     1      -3.586  -0.498  -2.389  0.00  0.00    +0.020 A 
ATOM     12  C   UNL     1      -2.277  -0.953  -2.428  0.00  0.00    +0.008 A 
ENDBRANCH   3   7
TORSDOF 1
ENDMDL
MODEL 10
REMARK VINA RESULT:    -3.003      2.303      3.234
REMARK INTER + INTRA:          -3.371
REMARK INTER:                  -3.202
REMARK INTRA:                  -0.169
REMARK UNBOUND:                -0.193
REMARK  Name = Nicotine.pdb
REMARK  2 active torsions:
REMARK  status: ('A' for Active; 'I' for Inactive)
REMARK    1  A    between atoms: C_3  and  C_6
REMARK    2  A    between atoms: N_4  and  C_12
REMARK                            x       y       z     vdW  Elec       q    Type
REMARK                         _______ _______ _______ _____ _____    ______ ____
ROOT
ATOM      1  C   UNL     1       3.640  -0.270  -0.267  0.00  0.00    +0.017 C 
ATOM      2  C   UNL     1       2.486  -1.197  -0.731  0.00  0.00    +0.025 C 
ATOM      3  C   UNL     1       1.883  -0.430  -1.927  0.00  0.00    +0.088 C 
ATOM      4  N   UNL     1       2.254   0.988  -1.768  0.00  0.00    -0.298 NA
ATOM      5  C   UNL     1       3.034   1.134  -0.521  0.00  0.00    +0.085 C 
ATOM      6  C   UNL     1       3.019   1.465  -2.927  0.00  0.00    +0.105 C 
ENDROOT
BRANCH   3   7
ATOM      7  C   UNL     1       0.383  -0.572  -1.923  0.00  0.00    -0.012 A 
ATOM      8  C   UNL     1      -0.389   0.188  -1.064  0.00  0.00    +0.115 A 
ATOM      9  N   UNL     1      -1.703   0.070  -1.055  0.00  0.00    -0.263 NA
ATOM     10  C   UNL     1      -2.329  -0.770  -1.855  0.00  0.00    +0.111 A 
ATOM     11  C   UNL     1      -1.623  -1.562  -2.742  0.00  0.00    +0.020 A 
ATOM     12  C   UNL     1      -0.241  -1.461  -2.784  0.00  0.00    +0.008 A 
ENDBRANCH   3   7
TORSDOF 1
ENDMDL
