MODEL 1
REMARK VINA RESULT:     0.000      0.000      0.000
REMARK INTER + INTRA:          -0.256
REMARK INTER:                   0.000
REMARK INTRA:                  -0.256
REMARK UNBOUND:                -0.256
REMARK  Name = Nicotine.pdb
REMARK  2 active torsions:
REMARK  status: ('A' for Active; 'I' for Inactive)
REMARK    1  A    between atoms: C_3  and  C_6
REMARK    2  A    between atoms: N_4  and  C_12
REMARK                            x       y       z     vdW  Elec       q    Type
REMARK                         _______ _______ _______ _____ _____    ______ ____
ROOT
ATOM      1  C   UNL     1      -2.070  -2.200  -4.437  0.00  0.00    +0.017 C 
ATOM      2  C   UNL     1      -1.309  -2.373  -3.096  0.00  0.00    +0.025 C 
ATOM      3  C   UNL     1      -1.540  -1.021  -2.389  0.00  0.00    +0.088 C 
ATOM      4  N   UNL     1      -1.864  -0.031  -3.432  0.00  0.00    -0.298 NA
ATOM      5  C   UNL     1      -1.819  -0.703  -4.748  0.00  0.00    +0.085 C 
ATOM      6  C   UNL     1      -3.181   0.573  -3.194  0.00  0.00    +0.105 C 
ENDROOT
BRANCH   3   7
ATOM      7  C   UNL     1      -0.290  -0.605  -1.657  0.00  0.00    -0.012 A 
ATOM      8  C   UNL     1      -0.358   0.303  -0.617  0.00  0.00    +0.115 A 
ATOM      9  N   UNL     1       0.731   0.672   0.029  0.00  0.00    -0.263 NA
ATOM     10  C   UNL     1       1.919   0.196  -0.287  0.00  0.00    +0.111 A 
ATOM     11  C   UNL     1       2.065  -0.716  -1.316  0.00  0.00    +0.020 A 
ATOM     12  C   UNL     1       0.942  -1.131  -2.014  0.00  0.00    +0.008 A 
ENDBRANCH   3   7
TORSDOF 1
ENDMDL
MODEL 2
REMARK VINA RESULT:     0.000      4.035      5.765
REMARK INTER + INTRA:          -0.256
REMARK INTER:                   0.000
REMARK INTRA:                  -0.256
REMARK UNBOUND:                -0.256
REMARK  Name = Nicotine.pdb
REMARK  2 active torsions:
REMARK  status: ('A' for Active; 'I' for Inactive)
REMARK    1  A    between atoms: C_3  and  C_6
REMARK    2  A    between atoms: N_4  and  C_12
REMARK                            x       y       z     vdW  Elec       q    Type
REMARK                         _______ _______ _______ _____ _____    ______ ____
ROOT
ATOM      1  C   UNL     1      -1.185  -1.873   2.372  0.00  0.00    +0.017 C 
ATOM      2  C   UNL     1      -0.736  -0.450   2.799  0.00  0.00    +0.025 C 
ATOM      3  C   UNL     1       0.523  -0.211   1.939  0.00  0.00    +0.088 C 
ATOM      4  N   UNL     1       1.041  -1.533   1.545  0.00  0.00    -0.298 NA
ATOM      5  C   UNL     1       0.178  -2.574   2.141  0.00  0.00    +0.085 C 
ATOM      6  C   UNL     1       1.093  -1.665   0.083  0.00  0.00    +0.105 C 
ENDROOT
BRANCH   3   7
ATOM      7  C   UNL     1       1.560   0.529   2.744  0.00  0.00    -0.012 A 
ATOM      8  C   UNL     1       2.563   1.237   2.110  0.00  0.00    +0.115 A 
ATOM      9  N   UNL     1       3.474   1.887   2.806  0.00  0.00    -0.263 NA
ATOM     10  C   UNL     1       3.467   1.890   4.125  0.00  0.00    +0.111 A 
ATOM     11  C   UNL     1       2.494   1.204   4.829  0.00  0.00    +0.020 A 
ATOM     12  C   UNL     1       1.517   0.514   4.130  0.00  0.00    +0.008 A 
ENDBRANCH   3   7
TORSDOF 1
ENDMDL
MODEL 3
REMARK VINA RESULT:     0.000      3.428      6.398
REMARK INTER + INTRA:          -0.256
REMARK INTER:                   0.000
REMARK INTRA:                  -0.256
REMARK UNBOUND:                -0.256
REMARK  Name = Nicotine.pdb
REMARK  2 active torsions:
REMARK  status: ('A' for Active; 'I' for Inactive)
REMARK    1  A    between atoms: C_3  and  C_6
REMARK    2  A    between atoms: N_4  and  C_12
REMARK                            x       y       z     vdW  Elec       q    Type
REMARK                         _______ _______ _______ _____ _____    ______ ____
ROOT
ATOM      1  C   UNL     1       4.618   4.810  -0.865  0.00  0.00    +0.017 C 
ATOM      2  C   UNL     1       3.120   4.417  -0.776  0.00  0.00    +0.025 C 
ATOM      3  C   UNL     1       3.174   2.928  -0.374  0.00  0.00    +0.088 C 
ATOM      4  N   UNL     1       4.498   2.416  -0.774  0.00  0.00    -0.298 NA
ATOM      5  C   UNL     1       5.249   3.511  -1.424  0.00  0.00    +0.085 C 
ATOM      6  C   UNL     1       5.230   1.889   0.385  0.00  0.00    +0.105 C 
ENDROOT
BRANCH   3   7
ATOM      7  C   UNL     1       2.090   2.164  -1.090  0.00  0.00    -0.012 A 
ATOM      8  C   UNL     1       1.646   0.953  -0.595  0.00  0.00    +0.115 A 
ATOM      9  N   UNL     1       0.697   0.277  -1.214  0.00  0.00    -0.263 NA
ATOM     10  C   UNL     1       0.139   0.725  -2.321  0.00  0.00    +0.111 A 
ATOM     11  C   UNL     1       0.531   1.929  -2.876  0.00  0.00    +0.020 A 
ATOM     12  C   UNL     1       1.522   2.669  -2.249  0.00  0.00    +0.008 A 
ENDBRANCH   3   7
TORSDOF 1
ENDMDL
MODEL 4
REMARK VINA RESULT:     0.000      2.388      3.513
REMARK INTER + INTRA:          -0.256
REMARK INTER:                   0.000
REMARK INTRA:                  -0.256
REMARK UNBOUND:                -0.256
REMARK  Name = Nicotine.pdb
REMARK  2 active torsions:
REMARK  status: ('A' for Active; 'I' for Inactive)
REMARK    1  A    between atoms: C_3  and  C_6
REMARK    2  A    between atoms: N_4  and  C_12
REMARK                            x       y       z     vdW  Elec       q    Type
REMARK                         _______ _______ _______ _____ _____    ______ ____
ROOT
ATOM      1  C   UNL     1      -2.777  -1.492  -2.294  0.00  0.00    +0.017 C 
ATOM      2  C   UNL     1      -1.539  -2.164  -2.945  0.00  0.00    +0.025 C 
ATOM      3  C   UNL     1      -0.429  -1.109  -2.750  0.00  0.00    +0.088 C 
ATOM      4  N   UNL     1      -1.092   0.194  -2.565  0.00  0.00    -0.298 NA
ATOM      5  C   UNL     1      -2.554  -0.003  -2.661  0.00  0.00    +0.085 C 
ATOM      6  C   UNL     1      -0.725   0.794  -1.275  0.00  0.00    +0.105 C 
ENDROOT
BRANCH   3   7
ATOM      7  C   UNL     1       0.457  -1.067  -3.968  0.00  0.00    -0.012 A 
ATOM      8  C   UNL     1       1.738  -0.554  -3.883  0.00  0.00    +0.115 A 
ATOM      9  N   UNL     1       2.520  -0.513  -4.944  0.00  0.00    -0.263 NA
ATOM     10  C   UNL     1       2.117  -0.955  -6.119  0.00  0.00    +0.111 A 
ATOM     11  C   UNL     1       0.849  -1.482  -6.280  0.00  0.00    +0.020 A 
ATOM     12  C   UNL     1       0.001  -1.546  -5.186  0.00  0.00    +0.008 A 
ENDBRANCH   3   7
TORSDOF 1
ENDMDL
MODEL 5
REMARK VINA RESULT:     0.000      1.862      2.347
REMARK INTER + INTRA:          -0.256
REMARK INTER:                   0.000
REMARK INTRA:                  -0.256
REMARK UNBOUND:                -0.256
REMARK  Name = Nicotine.pdb
REMARK  2 active torsions:
REMARK  status: ('A' for Active; 'I' for Inactive)
REMARK    1  A    between atoms: C_3  and  C_6
REMARK    2  A    between atoms: N_4  and  C_12
REMARK                            x       y       z     vdW  Elec       q    Type
REMARK                         _______ _______ _______ _____ _____    ______ ____
ROOT
ATOM      1  C   UNL     1      -0.090  -2.704  -2.564  0.00  0.00    +0.017 C 
ATOM      2  C   UNL     1       0.042  -1.650  -1.433  0.00  0.00    +0.025 C 
ATOM      3  C   UNL     1      -1.077  -0.640  -1.768  0.00  0.00    +0.088 C 
ATOM      4  N   UNL     1      -1.384  -0.788  -3.202  0.00  0.00    -0.298 NA
ATOM      5  C   UNL     1      -0.491  -1.820  -3.771  0.00  0.00    +0.085 C 
ATOM      6  C   UNL     1      -2.795  -1.140  -3.406  0.00  0.00    +0.105 C 
ENDROOT
BRANCH   3   7
ATOM      7  C   UNL     1      -0.604   0.762  -1.485  0.00  0.00    -0.012 A 
ATOM      8  C   UNL     1      -1.517   1.779  -1.279  0.00  0.00    +0.115 A 
ATOM      9  N   UNL     1      -1.111   3.009  -1.031  0.00  0.00    -0.263 NA
ATOM     10  C   UNL     1       0.169   3.318  -0.969  0.00  0.00    +0.111 A 
ATOM     11  C   UNL     1       1.140   2.353  -1.164  0.00  0.00    +0.020 A 
ATOM     12  C   UNL     1       0.751   1.047  -1.422  0.00  0.00    +0.008 A 
ENDBRANCH   3   7
TORSDOF 1
ENDMDL
MODEL 6
REMARK VINA RESULT:     0.000      3.667      6.415
REMARK INTER + INTRA:          -0.256
REMARK INTER:                   0.000
REMARK INTRA:                  -0.256
REMARK UNBOUND:                -0.256
REMARK  Name = Nicotine.pdb
REMARK  2 active torsions:
REMARK  status: ('A' for Active; 'I' for Inactive)
REMARK    1  A    between atoms: C_3  and  C_6
REMARK    2  A    between atoms: N_4  and  C_12
REMARK                            x       y       z     vdW  Elec       q    Type
REMARK                         _______ _______ _______ _____ _____    ______ ____
ROOT
ATOM      1  C   UNL     1       5.845   2.102  -0.296  0.00  0.00    +0.017 C 
ATOM      2  C   UNL     1       4.652   1.181  -0.665  0.00  0.00    +0.025 C 
ATOM      3  C   UNL     1       4.293   1.633  -2.096  0.00  0.00    +0.088 C 
ATOM      4  N   UNL     1       4.811   3.003  -2.264  0.00  0.00    -0.298 NA
ATOM      5  C   UNL     1       5.447   3.425  -0.998  0.00  0.00    +0.085 C 
ATOM      6  C   UNL     1       5.761   3.075  -3.381  0.00  0.00    +0.105 C 
ENDROOT
BRANCH   3   7
ATOM      7  C   UNL     1       2.798   1.622  -2.278  0.00  0.00    -0.012 A 
ATOM      8  C   UNL     1       2.248   1.554  -3.544  0.00  0.00    +0.115 A 
ATOM      9  N   UNL     1       0.940   1.544  -3.712  0.00  0.00    -0.263 NA
ATOM     10  C   UNL     1       0.110   1.598  -2.689  0.00  0.00    +0.111 A 
ATOM     11  C   UNL     1       0.586   1.668  -1.394  0.00  0.00    +0.020 A 
ATOM     12  C   UNL     1       1.956   1.675  -1.178  0.00  0.00    +0.008 A 
ENDBRANCH   3   7
TORSDOF 1
ENDMDL
MODEL 7
REMARK VINA RESULT:     0.000      3.292      4.524
REMARK INTER + INTRA:          -0.256
REMARK INTER:                   0.000
REMARK INTRA:                  -0.256
REMARK UNBOUND:                -0.256
REMARK  Name = Nicotine.pdb
REMARK  2 active torsions:
REMARK  status: ('A' for Active; 'I' for Inactive)
REMARK    1  A    between atoms: C_3  and  C_6
REMARK    2  A    between atoms: N_4  and  C_12
REMARK                            x       y       z     vdW  Elec       q    Type
REMARK                         _______ _______ _______ _____ _____    ______ ____
ROOT
ATOM      1  C   UNL     1       0.189  -1.700  -1.920  0.00  0.00    +0.017 C 
ATOM      2  C   UNL     1       0.957  -2.897  -1.302  0.00  0.00    +0.025 C 
ATOM      3  C   UNL     1       1.097  -2.492   0.181  0.00  0.00    +0.088 C 
ATOM      4  N   UNL     1       0.964  -1.025   0.247  0.00  0.00    -0.298 NA
ATOM      5  C   UNL     1       0.775  -0.507  -1.125  0.00  0.00    +0.085 C 
ATOM      6  C   UNL     1      -0.154  -0.636   1.116  0.00  0.00    +0.105 C 
ENDROOT
BRANCH   3   7
ATOM      7  C   UNL     1       2.448  -2.910   0.702  0.00  0.00    -0.012 A 
ATOM      8  C   UNL     1       2.656  -3.065   2.059  0.00  0.00    +0.115 A 
ATOM      9  N   UNL     1       3.835  -3.431   2.523  0.00  0.00    -0.263 NA
ATOM     10  C   UNL     1       4.855  -3.661   1.720  0.00  0.00    +0.111 A 
ATOM     11  C   UNL     1       4.722  -3.527   0.351  0.00  0.00    +0.020 A 
ATOM     12  C   UNL     1       3.496  -3.149  -0.174  0.00  0.00    +0.008 A 
ENDBRANCH   3   7
TORSDOF 1
ENDMDL
MODEL 8
REMARK VINA RESULT:     0.000      4.402      5.640
REMARK INTER + INTRA:          -0.256
REMARK INTER:                   0.000
REMARK INTRA:                  -0.256
REMARK UNBOUND:                -0.256
REMARK  Name = Nicotine.pdb
REMARK  2 active torsions:
REMARK  status: ('A' for Active; 'I' for Inactive)
REMARK    1  A    between atoms: C_3  and  C_6
REMARK    2  A    between atoms: N_4  and  C_12
REMARK                            x       y       z     vdW  Elec       q    Type
REMARK                         _______ _______ _______ _____ _____    ______ ____
ROOT
ATOM      1  C   UNL     1       4.155   2.764  -1.306  0.00  0.00    +0.017 C 
ATOM      2  C   UNL     1       3.130   1.629  -1.567  0.00  0.00    +0.025 C 
ATOM      3  C   UNL     1       2.644   1.268  -0.147  0.00  0.00    +0.088 C 
ATOM      4  N   UNL     1       3.684   1.712   0.797  0.00  0.00    -0.298 NA
ATOM      5  C   UNL     1       4.798   2.306   0.027  0.00  0.00    +0.085 C 
ATOM      6  C   UNL     1       3.141   2.674   1.765  0.00  0.00    +0.105 C 
ENDROOT
BRANCH   3   7
ATOM      7  C   UNL     1       2.451  -0.223  -0.035  0.00  0.00    -0.012 A 
ATOM      8  C   UNL     1       1.629  -0.749   0.943  0.00  0.00    +0.115 A 
ATOM      9  N   UNL     1       1.454  -2.052   1.047  0.00  0.00    -0.263 NA
ATOM     10  C   UNL     1       2.051  -2.899   0.232  0.00  0.00    +0.111 A 
ATOM     11  C   UNL     1       2.887  -2.446  -0.771  0.00  0.00    +0.020 A 
ATOM     12  C   UNL     1       3.091  -1.082  -0.915  0.00  0.00    +0.008 A 
ENDBRANCH   3   7
TORSDOF 1
ENDMDL
MODEL 9
REMARK VINA RESULT:     0.000      4.126      5.582
REMARK INTER + INTRA:          -0.256
REMARK INTER:                   0.000
REMARK INTRA:                  -0.256
REMARK UNBOUND:                -0.256
REMARK  Name = Nicotine.pdb
REMARK  2 active torsions:
REMARK  status: ('A' for Active; 'I' for Inactive)
REMARK    1  A    between atoms: C_3  and  C_6
REMARK    2  A    between atoms: N_4  and  C_12
REMARK                            x       y       z     vdW  Elec       q    Type
REMARK                         _______ _______ _______ _____ _____    ______ ____
ROOT
ATOM      1  C   UNL     1       4.752  -2.659  -6.509  0.00  0.00    +0.017 C 
ATOM      2  C   UNL     1       3.766  -1.466  -6.411  0.00  0.00    +0.025 C 
ATOM      3  C   UNL     1       3.816  -1.096  -4.914  0.00  0.00    +0.088 C 
ATOM      4  N   UNL     1       4.289  -2.286  -4.185  0.00  0.00    -0.298 NA
ATOM      5  C   UNL     1       4.509  -3.378  -5.158  0.00  0.00    +0.085 C 
ATOM      6  C   UNL     1       5.519  -1.992  -3.437  0.00  0.00    +0.105 C 
ENDROOT
BRANCH   3   7
ATOM      7  C   UNL     1       2.440  -0.713  -4.434  0.00  0.00    -0.012 A 
ATOM      8  C   UNL     1       2.285   0.059  -3.298  0.00  0.00    +0.115 A 
ATOM      9  N   UNL     1       1.084   0.398  -2.871  0.00  0.00    -0.263 NA
ATOM     10  C   UNL     1      -0.009   0.019  -3.503  0.00  0.00    +0.111 A 
ATOM     11  C   UNL     1       0.067  -0.755  -4.647  0.00  0.00    +0.020 A 
ATOM     12  C   UNL     1       1.313  -1.126  -5.128  0.00  0.00    +0.008 A 
ENDBRANCH   3   7
TORSDOF 1
ENDMDL
MODEL 10
REMARK VINA RESULT:     0.000      6.725      8.007
REMARK INTER + INTRA:          -0.256
REMARK INTER:                   0.000
REMARK INTRA:                  -0.256
REMARK UNBOUND:                -0.256
REMARK  Name = Nicotine.pdb
REMARK  2 active torsions:
REMARK  status: ('A' for Active; 'I' for Inactive)
REMARK    1  A    between atoms: C_3  and  C_6
REMARK    2  A    between atoms: N_4  and  C_12
REMARK                            x       y       z     vdW  Elec       q    Type
REMARK                         _______ _______ _______ _____ _____    ______ ____
ROOT
ATOM      1  C   UNL     1       4.909   0.853  -5.143  0.00  0.00    +0.017 C 
ATOM      2  C   UNL     1       5.006   0.057  -3.815  0.00  0.00    +0.025 C 
ATOM      3  C   UNL     1       6.479   0.254  -3.399  0.00  0.00    +0.088 C 
ATOM      4  N   UNL     1       7.235   0.596  -4.617  0.00  0.00    -0.298 NA
ATOM      5  C   UNL     1       6.304   0.594  -5.766  0.00  0.00    +0.085 C 
ATOM      6  C   UNL     1       7.897   1.899  -4.478  0.00  0.00    +0.105 C 
ENDROOT
BRANCH   3   7
ATOM      7  C   UNL     1       7.017  -1.020  -2.801  0.00  0.00    -0.012 A 
ATOM      8  C   UNL     1       8.122  -0.990  -1.971  0.00  0.00    +0.115 A 
ATOM      9  N   UNL     1       8.600  -2.100  -1.443  0.00  0.00    -0.263 NA
ATOM     10  C   UNL     1       8.049  -3.274  -1.683  0.00  0.00    +0.111 A 
ATOM     11  C   UNL     1       6.942  -3.382  -2.502  0.00  0.00    +0.020 A 
ATOM     12  C   UNL     1       6.408  -2.236  -3.071  0.00  0.00    +0.008 A 
ENDBRANCH   3   7
TORSDOF 1
ENDMDL
