MODEL 1
REMARK VINA RESULT:    -3.559      0.000      0.000
REMARK INTER + INTRA:          -3.985
REMARK INTER:                  -3.767
REMARK INTRA:                  -0.218
REMARK UNBOUND:                -0.218
REMARK  Name = Nicotine.pdb
REMARK  2 active torsions:
REMARK  status: ('A' for Active; 'I' for Inactive)
REMARK    1  A    between atoms: C_3  and  C_6
REMARK    2  A    between atoms: N_4  and  C_12
REMARK                            x       y       z     vdW  Elec       q    Type
REMARK                         _______ _______ _______ _____ _____    ______ ____
ROOT
ATOM      1  C   UNL     1       6.658   2.771  -5.851  0.00  0.00    +0.017 C 
ATOM      2  C   UNL     1       6.433   1.533  -4.944  0.00  0.00    +0.025 C 
ATOM      3  C   UNL     1       7.616   0.612  -5.316  0.00  0.00    +0.088 C 
ATOM      4  N   UNL     1       8.078   1.014  -6.656  0.00  0.00    -0.298 NA
ATOM      5  C   UNL     1       7.222   2.119  -7.138  0.00  0.00    +0.085 C 
ATOM      6  C   UNL     1       9.490   1.415  -6.628  0.00  0.00    +0.105 C 
ENDROOT
BRANCH   3   7
ATOM      7  C   UNL     1       7.160  -0.824  -5.338  0.00  0.00    -0.012 A 
ATOM      8  C   UNL     1       7.537  -1.661  -6.371  0.00  0.00    +0.115 A 
ATOM      9  N   UNL     1       7.143  -2.919  -6.398  0.00  0.00    -0.263 NA
ATOM     10  C   UNL     1       6.379  -3.427  -5.451  0.00  0.00    +0.111 A 
ATOM     11  C   UNL     1       5.962  -2.650  -4.386  0.00  0.00    +0.020 A 
ATOM     12  C   UNL     1       6.361  -1.324  -4.321  0.00  0.00    +0.008 A 
ENDBRANCH   3   7
TORSDOF 1
ENDMDL
MODEL 2
REMARK VINA RESULT:    -3.472      2.252      4.151
REMARK INTER + INTRA:          -3.893
REMARK INTER:                  -3.637
REMARK INTRA:                  -0.256
REMARK UNBOUND:                -0.218
REMARK  Name = Nicotine.pdb
REMARK  2 active torsions:
REMARK  status: ('A' for Active; 'I' for Inactive)
REMARK    1  A    between atoms: C_3  and  C_6
REMARK    2  A    between atoms: N_4  and  C_12
REMARK                            x       y       z     vdW  Elec       q    Type
REMARK                         _______ _______ _______ _____ _____    ______ ____
ROOT
ATOM      1  C   UNL     1       7.628  -4.513  -7.175  0.00  0.00    +0.017 C 
ATOM      2  C   UNL     1       6.487  -3.595  -6.664  0.00  0.00    +0.025 C 
ATOM      3  C   UNL     1       7.234  -2.307  -6.256  0.00  0.00    +0.088 C 
ATOM      4  N   UNL     1       8.639  -2.677  -6.009  0.00  0.00    -0.298 NA
ATOM      5  C   UNL     1       8.787  -4.133  -6.220  0.00  0.00    +0.085 C 
ATOM      6  C   UNL     1       9.544  -1.922  -6.885  0.00  0.00    +0.105 C 
ENDROOT
BRANCH   3   7
ATOM      7  C   UNL     1       6.624  -1.736  -5.002  0.00  0.00    -0.012 A 
ATOM      8  C   UNL     1       6.808  -0.405  -4.678  0.00  0.00    +0.115 A 
ATOM      9  N   UNL     1       6.278   0.102  -3.582  0.00  0.00    -0.263 NA
ATOM     10  C   UNL     1       5.558  -0.631  -2.757  0.00  0.00    +0.111 A 
ATOM     11  C   UNL     1       5.330  -1.971  -3.015  0.00  0.00    +0.020 A 
ATOM     12  C   UNL     1       5.867  -2.538  -4.160  0.00  0.00    +0.008 A 
ENDBRANCH   3   7
TORSDOF 1
ENDMDL
MODEL 3
REMARK VINA RESULT:    -3.362      1.188      1.785
REMARK INTER + INTRA:          -3.776
REMARK INTER:                  -3.592
REMARK INTRA:                  -0.185
REMARK UNBOUND:                -0.218
REMARK  Name = Nicotine.pdb
REMARK  2 active torsions:
REMARK  status: ('A' for Active; 'I' for Inactive)
REMARK    1  A    between atoms: C_3  and  C_6
REMARK    2  A    between atoms: N_4  and  C_12
REMARK                            x       y       z     vdW  Elec       q    Type
REMARK                         _______ _______ _______ _____ _____    ______ ____
ROOT
ATOM      1  C   UNL     1       5.881   2.322  -3.960  0.00  0.00    +0.017 C 
ATOM      2  C   UNL     1       6.120   0.842  -3.558  0.00  0.00    +0.025 C 
ATOM      3  C   UNL     1       7.197   0.379  -4.563  0.00  0.00    +0.088 C 
ATOM      4  N   UNL     1       7.123   1.279  -5.728  0.00  0.00    -0.298 NA
ATOM      5  C   UNL     1       6.038   2.257  -5.500  0.00  0.00    +0.085 C 
ATOM      6  C   UNL     1       8.406   1.959  -5.951  0.00  0.00    +0.105 C 
ENDROOT
BRANCH   3   7
ATOM      7  C   UNL     1       6.922  -1.039  -4.991  0.00  0.00    -0.012 A 
ATOM      8  C   UNL     1       6.130  -1.863  -4.214  0.00  0.00    +0.115 A 
ATOM      9  N   UNL     1       5.884  -3.105  -4.581  0.00  0.00    -0.263 NA
ATOM     10  C   UNL     1       6.380  -3.610  -5.694  0.00  0.00    +0.111 A 
ATOM     11  C   UNL     1       7.181  -2.845  -6.522  0.00  0.00    +0.020 A 
ATOM     12  C   UNL     1       7.456  -1.533  -6.171  0.00  0.00    +0.008 A 
ENDBRANCH   3   7
TORSDOF 1
ENDMDL
MODEL 4
REMARK VINA RESULT:    -3.280      0.997      1.333
REMARK INTER + INTRA:          -3.690
REMARK INTER:                  -3.455
REMARK INTRA:                  -0.235
REMARK UNBOUND:                -0.218
REMARK  Name = Nicotine.pdb
REMARK  2 active torsions:
REMARK  status: ('A' for Active; 'I' for Inactive)
REMARK    1  A    between atoms: C_3  and  C_6
REMARK    2  A    between atoms: N_4  and  C_12
REMARK                            x       y       z     vdW  Elec       q    Type
REMARK                         _______ _______ _______ _____ _____    ______ ____
ROOT
ATOM      1  C   UNL     1       6.037   2.477  -3.673  0.00  0.00    +0.017 C 
ATOM      2  C   UNL     1       6.482   1.017  -3.391  0.00  0.00    +0.025 C 
ATOM      3  C   UNL     1       7.261   0.639  -4.669  0.00  0.00    +0.088 C 
ATOM      4  N   UNL     1       6.798   1.537  -5.744  0.00  0.00    -0.298 NA
ATOM      5  C   UNL     1       5.756   2.430  -5.195  0.00  0.00    +0.085 C 
ATOM      6  C   UNL     1       7.915   2.310  -6.302  0.00  0.00    +0.105 C 
ENDROOT
BRANCH   3   7
ATOM      7  C   UNL     1       6.976  -0.793  -5.038  0.00  0.00    -0.012 A 
ATOM      8  C   UNL     1       7.515  -1.340  -6.187  0.00  0.00    +0.115 A 
ATOM      9  N   UNL     1       7.271  -2.593  -6.517  0.00  0.00    -0.263 NA
ATOM     10  C   UNL     1       6.510  -3.370  -5.773  0.00  0.00    +0.111 A 
ATOM     11  C   UNL     1       5.936  -2.893  -4.609  0.00  0.00    +0.020 A 
ATOM     12  C   UNL     1       6.174  -1.582  -4.227  0.00  0.00    +0.008 A 
ENDBRANCH   3   7
TORSDOF 1
ENDMDL
MODEL 5
REMARK VINA RESULT:    -3.210      1.409      4.410
REMARK INTER + INTRA:          -3.616
REMARK INTER:                  -3.407
REMARK INTRA:                  -0.210
REMARK UNBOUND:                -0.218
REMARK  Name = Nicotine.pdb
REMARK  2 active torsions:
REMARK  status: ('A' for Active; 'I' for Inactive)
REMARK    1  A    between atoms: C_3  and  C_6
REMARK    2  A    between atoms: N_4  and  C_12
REMARK                            x       y       z     vdW  Elec       q    Type
REMARK                         _______ _______ _______ _____ _____    ______ ____
ROOT
ATOM      1  C   UNL     1       6.151  -3.097  -4.655  0.00  0.00    +0.017 C 
ATOM      2  C   UNL     1       6.827  -2.181  -5.708  0.00  0.00    +0.025 C 
ATOM      3  C   UNL     1       7.491  -1.088  -4.843  0.00  0.00    +0.088 C 
ATOM      4  N   UNL     1       6.782  -1.063  -3.551  0.00  0.00    -0.298 NA
ATOM      5  C   UNL     1       5.698  -2.067  -3.589  0.00  0.00    +0.085 C 
ATOM      6  C   UNL     1       7.703  -1.323  -2.438  0.00  0.00    +0.105 C 
ENDROOT
BRANCH   3   7
ATOM      7  C   UNL     1       7.368   0.250  -5.524  0.00  0.00    -0.012 A 
ATOM      8  C   UNL     1       8.114   0.531  -6.653  0.00  0.00    +0.115 A 
ATOM      9  N   UNL     1       8.012   1.700  -7.255  0.00  0.00    -0.263 NA
ATOM     10  C   UNL     1       7.203   2.641  -6.810  0.00  0.00    +0.111 A 
ATOM     11  C   UNL     1       6.426   2.432  -5.686  0.00  0.00    +0.020 A 
ATOM     12  C   UNL     1       6.502   1.213  -5.029  0.00  0.00    +0.008 A 
ENDBRANCH   3   7
TORSDOF 1
ENDMDL
MODEL 6
REMARK VINA RESULT:    -3.168      1.457      2.681
REMARK INTER + INTRA:          -3.572
REMARK INTER:                  -3.359
REMARK INTRA:                  -0.212
REMARK UNBOUND:                -0.218
REMARK  Name = Nicotine.pdb
REMARK  2 active torsions:
REMARK  status: ('A' for Active; 'I' for Inactive)
REMARK    1  A    between atoms: C_3  and  C_6
REMARK    2  A    between atoms: N_4  and  C_12
REMARK                            x       y       z     vdW  Elec       q    Type
REMARK                         _______ _______ _______ _____ _____    ______ ____
ROOT
ATOM      1  C   UNL     1      10.263  -0.766  -7.039  0.00  0.00    +0.017 C 
ATOM      2  C   UNL     1       9.141  -1.773  -6.674  0.00  0.00    +0.025 C 
ATOM      3  C   UNL     1       7.900  -0.870  -6.518  0.00  0.00    +0.088 C 
ATOM      4  N   UNL     1       8.385   0.494  -6.240  0.00  0.00    -0.298 NA
ATOM      5  C   UNL     1       9.862   0.469  -6.193  0.00  0.00    +0.085 C 
ATOM      6  C   UNL     1       7.906   1.441  -7.256  0.00  0.00    +0.105 C 
ENDROOT
BRANCH   3   7
ATOM      7  C   UNL     1       7.052  -1.357  -5.372  0.00  0.00    -0.012 A 
ATOM      8  C   UNL     1       6.574  -2.654  -5.358  0.00  0.00    +0.115 A 
ATOM      9  N   UNL     1       5.831  -3.088  -4.359  0.00  0.00    -0.263 NA
ATOM     10  C   UNL     1       5.515  -2.312  -3.341  0.00  0.00    +0.111 A 
ATOM     11  C   UNL     1       5.958  -1.004  -3.285  0.00  0.00    +0.020 A 
ATOM     12  C   UNL     1       6.745  -0.513  -4.315  0.00  0.00    +0.008 A 
ENDBRANCH   3   7
TORSDOF 1
ENDMDL
MODEL 7
REMARK VINA RESULT:    -3.054      2.012      2.799
REMARK INTER + INTRA:          -3.450
REMARK INTER:                  -3.200
REMARK INTRA:                  -0.251
REMARK UNBOUND:                -0.218
REMARK  Name = Nicotine.pdb
REMARK  2 active torsions:
REMARK  status: ('A' for Active; 'I' for Inactive)
REMARK    1  A    between atoms: C_3  and  C_6
REMARK    2  A    between atoms: N_4  and  C_12
REMARK                            x       y       z     vdW  Elec       q    Type
REMARK                         _______ _______ _______ _____ _____    ______ ____
ROOT
ATOM      1  C   UNL     1       7.325   2.688  -4.105  0.00  0.00    +0.017 C 
ATOM      2  C   UNL     1       6.375   1.603  -4.676  0.00  0.00    +0.025 C 
ATOM      3  C   UNL     1       6.436   0.491  -3.608  0.00  0.00    +0.088 C 
ATOM      4  N   UNL     1       7.694   0.670  -2.862  0.00  0.00    -0.298 NA
ATOM      5  C   UNL     1       8.422   1.822  -3.436  0.00  0.00    +0.085 C 
ATOM      6  C   UNL     1       7.435   0.870  -1.431  0.00  0.00    +0.105 C 
ENDROOT
BRANCH   3   7
ATOM      7  C   UNL     1       6.421  -0.861  -4.274  0.00  0.00    -0.012 A 
ATOM      8  C   UNL     1       5.725  -1.912  -3.707  0.00  0.00    +0.115 A 
ATOM      9  N   UNL     1       5.707  -3.098  -4.283  0.00  0.00    -0.263 NA
ATOM     10  C   UNL     1       6.346  -3.329  -5.413  0.00  0.00    +0.111 A 
ATOM     11  C   UNL     1       7.063  -2.326  -6.039  0.00  0.00    +0.020 A 
ATOM     12  C   UNL     1       7.100  -1.065  -5.465  0.00  0.00    +0.008 A 
ENDBRANCH   3   7
TORSDOF 1
ENDMDL
MODEL 8
REMARK VINA RESULT:    -2.835      2.451      3.945
REMARK INTER + INTRA:          -3.219
REMARK INTER:                  -3.033
REMARK INTRA:                  -0.186
REMARK UNBOUND:                -0.218
REMARK  Name = Nicotine.pdb
REMARK  2 active torsions:
REMARK  status: ('A' for Active; 'I' for Inactive)
REMARK    1  A    between atoms: C_3  and  C_6
REMARK    2  A    between atoms: N_4  and  C_12
REMARK                            x       y       z     vdW  Elec       q    Type
REMARK                         _______ _______ _______ _____ _____    ______ ____
ROOT
ATOM      1  C   UNL     1       7.123   0.694  -1.372  0.00  0.00    +0.017 C 
ATOM      2  C   UNL     1       7.105   0.604  -2.921  0.00  0.00    +0.025 C 
ATOM      3  C   UNL     1       5.995  -0.433  -3.196  0.00  0.00    +0.088 C 
ATOM      4  N   UNL     1       5.841  -1.242  -1.974  0.00  0.00    -0.298 NA
ATOM      5  C   UNL     1       6.819  -0.771  -0.970  0.00  0.00    +0.085 C 
ATOM      6  C   UNL     1       4.469  -1.156  -1.454  0.00  0.00    +0.105 C 
ENDROOT
BRANCH   3   7
ATOM      7  C   UNL     1       6.392  -1.316  -4.350  0.00  0.00    -0.012 A 
ATOM      8  C   UNL     1       7.211  -0.830  -5.352  0.00  0.00    +0.115 A 
ATOM      9  N   UNL     1       7.564  -1.596  -6.366  0.00  0.00    -0.263 NA
ATOM     10  C   UNL     1       7.154  -2.845  -6.466  0.00  0.00    +0.111 A 
ATOM     11  C   UNL     1       6.333  -3.400  -5.502  0.00  0.00    +0.020 A 
ATOM     12  C   UNL     1       5.946  -2.627  -4.418  0.00  0.00    +0.008 A 
ENDBRANCH   3   7
TORSDOF 1
ENDMDL
MODEL 9
REMARK VINA RESULT:    -2.641      2.311      3.395
REMARK INTER + INTRA:          -3.014
REMARK INTER:                  -2.764
REMARK INTRA:                  -0.250
REMARK UNBOUND:                -0.218
REMARK  Name = Nicotine.pdb
REMARK  2 active torsions:
REMARK  status: ('A' for Active; 'I' for Inactive)
REMARK    1  A    between atoms: C_3  and  C_6
REMARK    2  A    between atoms: N_4  and  C_12
REMARK                            x       y       z     vdW  Elec       q    Type
REMARK                         _______ _______ _______ _____ _____    ______ ____
ROOT
ATOM      1  C   UNL     1       8.801  -1.421  -6.533  0.00  0.00    +0.017 C 
ATOM      2  C   UNL     1       7.321  -1.492  -6.071  0.00  0.00    +0.025 C 
ATOM      3  C   UNL     1       7.174  -0.238  -5.183  0.00  0.00    +0.088 C 
ATOM      4  N   UNL     1       8.526   0.138  -4.731  0.00  0.00    -0.298 NA
ATOM      5  C   UNL     1       9.493  -0.838  -5.276  0.00  0.00    +0.085 C 
ATOM      6  C   UNL     1       8.861   1.504  -5.152  0.00  0.00    +0.105 C 
ENDROOT
BRANCH   3   7
ATOM      7  C   UNL     1       6.303  -0.551  -3.995  0.00  0.00    -0.012 A 
ATOM      8  C   UNL     1       5.884   0.460  -3.150  0.00  0.00    +0.115 A 
ATOM      9  N   UNL     1       5.121   0.195  -2.107  0.00  0.00    -0.263 NA
ATOM     10  C   UNL     1       4.730  -1.033  -1.829  0.00  0.00    +0.111 A 
ATOM     11  C   UNL     1       5.109  -2.095  -2.629  0.00  0.00    +0.020 A 
ATOM     12  C   UNL     1       5.906  -1.854  -3.737  0.00  0.00    +0.008 A 
ENDBRANCH   3   7
TORSDOF 1
ENDMDL
MODEL 10
REMARK VINA RESULT:    -2.570      5.936      6.983
REMARK INTER + INTRA:          -2.938
REMARK INTER:                  -2.750
REMARK INTRA:                  -0.187
REMARK UNBOUND:                -0.218
REMARK  Name = Nicotine.pdb
REMARK  2 active torsions:
REMARK  status: ('A' for Active; 'I' for Inactive)
REMARK    1  A    between atoms: C_3  and  C_6
REMARK    2  A    between atoms: N_4  and  C_12
REMARK                            x       y       z     vdW  Elec       q    Type
REMARK                         _______ _______ _______ _____ _____    ______ ____
ROOT
ATOM      1  C   UNL     1       4.680   4.685  -3.628  0.00  0.00    +0.017 C 
ATOM      2  C   UNL     1       4.094   3.481  -4.411  0.00  0.00    +0.025 C 
ATOM      3  C   UNL     1       3.128   4.153  -5.410  0.00  0.00    +0.088 C 
ATOM      4  N   UNL     1       2.776   5.473  -4.857  0.00  0.00    -0.298 NA
ATOM      5  C   UNL     1       3.458   5.634  -3.555  0.00  0.00    +0.085 C 
ATOM      6  C   UNL     1       3.147   6.549  -5.784  0.00  0.00    +0.105 C 
ENDROOT
BRANCH   3   7
ATOM      7  C   UNL     1       1.887   3.313  -5.567  0.00  0.00    -0.012 A 
ATOM      8  C   UNL     1       1.145   2.949  -4.459  0.00  0.00    +0.115 A 
ATOM      9  N   UNL     1       0.057   2.214  -4.588  0.00  0.00    -0.263 NA
ATOM     10  C   UNL     1      -0.364   1.800  -5.766  0.00  0.00    +0.111 A 
ATOM     11  C   UNL     1       0.326   2.125  -6.919  0.00  0.00    +0.020 A 
ATOM     12  C   UNL     1       1.471   2.901  -6.824  0.00  0.00    +0.008 A 
ENDBRANCH   3   7
TORSDOF 1
ENDMDL
