MODEL 1
REMARK VINA RESULT:    -4.755      0.000      0.000
REMARK INTER + INTRA:          -5.250
REMARK INTER:                  -5.033
REMARK INTRA:                  -0.217
REMARK UNBOUND:                -0.217
REMARK  Name = Nicotine.pdb
REMARK  2 active torsions:
REMARK  status: ('A' for Active; 'I' for Inactive)
REMARK    1  A    between atoms: C_3  and  C_6
REMARK    2  A    between atoms: N_4  and  C_12
REMARK                            x       y       z     vdW  Elec       q    Type
REMARK                         _______ _______ _______ _____ _____    ______ ____
ROOT
ATOM      1  C   UNL     1       7.804   1.688   4.691  0.00  0.00    +0.017 C 
ATOM      2  C   UNL     1       8.294   2.668   3.592  0.00  0.00    +0.025 C 
ATOM      3  C   UNL     1       9.789   2.848   3.929  0.00  0.00    +0.088 C 
ATOM      4  N   UNL     1       9.961   2.503   5.352  0.00  0.00    -0.298 NA
ATOM      5  C   UNL     1       8.640   2.144   5.912  0.00  0.00    +0.085 C 
ATOM      6  C   UNL     1      10.919   1.402   5.515  0.00  0.00    +0.105 C 
ENDROOT
BRANCH   3   7
ATOM      7  C   UNL     1      10.199   4.278   3.694  0.00  0.00    -0.012 A 
ATOM      8  C   UNL     1      10.584   5.078   4.753  0.00  0.00    +0.115 A 
ATOM      9  N   UNL     1      10.945   6.331   4.555  0.00  0.00    -0.263 NA
ATOM     10  C   UNL     1      10.953   6.869   3.352  0.00  0.00    +0.111 A 
ATOM     11  C   UNL     1      10.581   6.130   2.244  0.00  0.00    +0.020 A 
ATOM     12  C   UNL     1      10.201   4.807   2.412  0.00  0.00    +0.008 A 
ENDBRANCH   3   7
TORSDOF 1
ENDMDL
MODEL 2
REMARK VINA RESULT:    -4.705      1.427      2.174
REMARK INTER + INTRA:          -5.197
REMARK INTER:                  -4.985
REMARK INTRA:                  -0.212
REMARK UNBOUND:                -0.217
REMARK  Name = Nicotine.pdb
REMARK  2 active torsions:
REMARK  status: ('A' for Active; 'I' for Inactive)
REMARK    1  A    between atoms: C_3  and  C_6
REMARK    2  A    between atoms: N_4  and  C_12
REMARK                            x       y       z     vdW  Elec       q    Type
REMARK                         _______ _______ _______ _____ _____    ______ ____
ROOT
ATOM      1  C   UNL     1      10.565   1.771   5.326  0.00  0.00    +0.017 C 
ATOM      2  C   UNL     1      10.713   3.309   5.190  0.00  0.00    +0.025 C 
ATOM      3  C   UNL     1       9.446   3.712   4.406  0.00  0.00    +0.088 C 
ATOM      4  N   UNL     1       8.976   2.512   3.689  0.00  0.00    -0.298 NA
ATOM      5  C   UNL     1       9.906   1.399   3.974  0.00  0.00    +0.085 C 
ATOM      6  C   UNL     1       7.604   2.167   4.083  0.00  0.00    +0.105 C 
ENDROOT
BRANCH   3   7
ATOM      7  C   UNL     1       9.778   4.802   3.421  0.00  0.00    -0.012 A 
ATOM      8  C   UNL     1       9.186   6.047   3.530  0.00  0.00    +0.115 A 
ATOM      9  N   UNL     1       9.471   7.007   2.672  0.00  0.00    -0.263 NA
ATOM     10  C   UNL     1      10.323   6.822   1.683  0.00  0.00    +0.111 A 
ATOM     11  C   UNL     1      10.954   5.605   1.511  0.00  0.00    +0.020 A 
ATOM     12  C   UNL     1      10.684   4.573   2.397  0.00  0.00    +0.008 A 
ENDBRANCH   3   7
TORSDOF 1
ENDMDL
MODEL 3
REMARK VINA RESULT:    -4.234      1.296      4.542
REMARK INTER + INTRA:          -4.699
REMARK INTER:                  -4.499
REMARK INTRA:                  -0.200
REMARK UNBOUND:                -0.217
REMARK  Name = Nicotine.pdb
REMARK  2 active torsions:
REMARK  status: ('A' for Active; 'I' for Inactive)
REMARK    1  A    between atoms: C_3  and  C_6
REMARK    2  A    between atoms: N_4  and  C_12
REMARK                            x       y       z     vdW  Elec       q    Type
REMARK                         _______ _______ _______ _____ _____    ______ ____
ROOT
ATOM      1  C   UNL     1      10.952   6.734   4.200  0.00  0.00    +0.017 C 
ATOM      2  C   UNL     1      10.953   5.282   4.747  0.00  0.00    +0.025 C 
ATOM      3  C   UNL     1      10.749   4.432   3.475  0.00  0.00    +0.088 C 
ATOM      4  N   UNL     1      10.122   5.302   2.463  0.00  0.00    -0.298 NA
ATOM      5  C   UNL     1       9.908   6.638   3.060  0.00  0.00    +0.085 C 
ATOM      6  C   UNL     1      10.954   5.391   1.256  0.00  0.00    +0.105 C 
ENDROOT
BRANCH   3   7
ATOM      7  C   UNL     1       9.847   3.264   3.778  0.00  0.00    -0.012 A 
ATOM      8  C   UNL     1      10.358   2.118   4.358  0.00  0.00    +0.115 A 
ATOM      9  N   UNL     1       9.575   1.091   4.627  0.00  0.00    -0.263 NA
ATOM     10  C   UNL     1       8.285   1.114   4.356  0.00  0.00    +0.111 A 
ATOM     11  C   UNL     1       7.703   2.225   3.775  0.00  0.00    +0.020 A 
ATOM     12  C   UNL     1       8.494   3.326   3.483  0.00  0.00    +0.008 A 
ENDBRANCH   3   7
TORSDOF 1
ENDMDL
