MODEL 1
REMARK VINA RESULT:    -2.672      0.000      0.000
REMARK INTER + INTRA:          -3.045
REMARK INTER:                  -2.828
REMARK INTRA:                  -0.217
REMARK UNBOUND:                -0.217
REMARK  Name = Nicotine.pdb
REMARK  2 active torsions:
REMARK  status: ('A' for Active; 'I' for Inactive)
REMARK    1  A    between atoms: C_3  and  C_6
REMARK    2  A    between atoms: N_4  and  C_12
REMARK                            x       y       z     vdW  Elec       q    Type
REMARK                         _______ _______ _______ _____ _____    ______ ____
ROOT
ATOM      1  C   UNL     1      -2.819   1.720   2.739  0.00  0.00    +0.017 C 
ATOM      2  C   UNL     1      -2.968   2.848   1.684  0.00  0.00    +0.025 C 
ATOM      3  C   UNL     1      -2.495   2.169   0.381  0.00  0.00    +0.088 C 
ATOM      4  N   UNL     1      -1.642   1.031   0.766  0.00  0.00    -0.298 NA
ATOM      5  C   UNL     1      -1.546   0.991   2.241  0.00  0.00    +0.085 C 
ATOM      6  C   UNL     1      -2.178  -0.231   0.239  0.00  0.00    +0.105 C 
ENDROOT
BRANCH   3   7
ATOM      7  C   UNL     1      -1.704   3.147  -0.449  0.00  0.00    -0.012 A 
ATOM      8  C   UNL     1      -0.625   2.716  -1.197  0.00  0.00    +0.115 A 
ATOM      9  N   UNL     1       0.072   3.565  -1.926  0.00  0.00    -0.263 NA
ATOM     10  C   UNL     1      -0.226   4.848  -1.971  0.00  0.00    +0.111 A 
ATOM     11  C   UNL     1      -1.292   5.352  -1.250  0.00  0.00    +0.020 A 
ATOM     12  C   UNL     1      -2.052   4.489  -0.476  0.00  0.00    +0.008 A 
ENDBRANCH   3   7
TORSDOF 1
ENDMDL
MODEL 2
REMARK VINA RESULT:    -2.628      1.286      4.577
REMARK INTER + INTRA:          -2.998
REMARK INTER:                  -2.780
REMARK INTRA:                  -0.218
REMARK UNBOUND:                -0.217
REMARK  Name = Nicotine.pdb
REMARK  2 active torsions:
REMARK  status: ('A' for Active; 'I' for Inactive)
REMARK    1  A    between atoms: C_3  and  C_6
REMARK    2  A    between atoms: N_4  and  C_12
REMARK                            x       y       z     vdW  Elec       q    Type
REMARK                         _______ _______ _______ _____ _____    ______ ____
ROOT
ATOM      1  C   UNL     1      -1.892   6.581  -2.349  0.00  0.00    +0.017 C 
ATOM      2  C   UNL     1      -2.560   5.792  -1.192  0.00  0.00    +0.025 C 
ATOM      3  C   UNL     1      -1.382   4.996  -0.590  0.00  0.00    +0.088 C 
ATOM      4  N   UNL     1      -0.346   4.893  -1.632  0.00  0.00    -0.298 NA
ATOM      5  C   UNL     1      -0.838   5.564  -2.854  0.00  0.00    +0.085 C 
ATOM      6  C   UNL     1       0.919   5.486  -1.179  0.00  0.00    +0.105 C 
ENDROOT
BRANCH   3   7
ATOM      7  C   UNL     1      -1.846   3.620  -0.188  0.00  0.00    -0.012 A 
ATOM      8  C   UNL     1      -1.082   2.509  -0.490  0.00  0.00    +0.115 A 
ATOM      9  N   UNL     1      -1.480   1.301  -0.142  0.00  0.00    -0.263 NA
ATOM     10  C   UNL     1      -2.613   1.104   0.502  0.00  0.00    +0.111 A 
ATOM     11  C   UNL     1      -3.430   2.167   0.839  0.00  0.00    +0.020 A 
ATOM     12  C   UNL     1      -3.042   3.452   0.494  0.00  0.00    +0.008 A 
ENDBRANCH   3   7
TORSDOF 1
ENDMDL
MODEL 3
REMARK VINA RESULT:    -2.504      1.643      4.194
REMARK INTER + INTRA:          -2.867
REMARK INTER:                  -2.647
REMARK INTRA:                  -0.220
REMARK UNBOUND:                -0.217
REMARK  Name = Nicotine.pdb
REMARK  2 active torsions:
REMARK  status: ('A' for Active; 'I' for Inactive)
REMARK    1  A    between atoms: C_3  and  C_6
REMARK    2  A    between atoms: N_4  and  C_12
REMARK                            x       y       z     vdW  Elec       q    Type
REMARK                         _______ _______ _______ _____ _____    ______ ____
ROOT
ATOM      1  C   UNL     1      -0.260   4.768  -1.599  0.00  0.00    +0.017 C 
ATOM      2  C   UNL     1      -1.685   4.548  -1.026  0.00  0.00    +0.025 C 
ATOM      3  C   UNL     1      -1.428   3.662   0.211  0.00  0.00    +0.088 C 
ATOM      4  N   UNL     1      -0.131   2.991   0.007  0.00  0.00    -0.298 NA
ATOM      5  C   UNL     1       0.410   3.402  -1.306  0.00  0.00    +0.085 C 
ATOM      6  C   UNL     1       0.807   3.317   1.089  0.00  0.00    +0.105 C 
ENDROOT
BRANCH   3   7
ATOM      7  C   UNL     1      -2.523   2.635   0.342  0.00  0.00    -0.012 A 
ATOM      8  C   UNL     1      -2.213   1.310   0.587  0.00  0.00    +0.115 A 
ATOM      9  N   UNL     1      -3.165   0.405   0.703  0.00  0.00    -0.263 NA
ATOM     10  C   UNL     1      -4.440   0.722   0.591  0.00  0.00    +0.111 A 
ATOM     11  C   UNL     1      -4.826   2.027   0.347  0.00  0.00    +0.020 A 
ATOM     12  C   UNL     1      -3.853   3.007   0.224  0.00  0.00    +0.008 A 
ENDBRANCH   3   7
TORSDOF 1
ENDMDL
MODEL 4
REMARK VINA RESULT:    -2.464      1.881      4.462
REMARK INTER + INTRA:          -2.825
REMARK INTER:                  -2.592
REMARK INTRA:                  -0.233
REMARK UNBOUND:                -0.217
REMARK  Name = Nicotine.pdb
REMARK  2 active torsions:
REMARK  status: ('A' for Active; 'I' for Inactive)
REMARK    1  A    between atoms: C_3  and  C_6
REMARK    2  A    between atoms: N_4  and  C_12
REMARK                            x       y       z     vdW  Elec       q    Type
REMARK                         _______ _______ _______ _____ _____    ______ ____
ROOT
ATOM      1  C   UNL     1       0.910   3.608  -1.089  0.00  0.00    +0.017 C 
ATOM      2  C   UNL     1      -0.472   3.012  -1.466  0.00  0.00    +0.025 C 
ATOM      3  C   UNL     1      -1.405   3.584  -0.377  0.00  0.00    +0.088 C 
ATOM      4  N   UNL     1      -0.561   3.946   0.775  0.00  0.00    -0.298 NA
ATOM      5  C   UNL     1       0.842   3.602   0.458  0.00  0.00    +0.085 C 
ATOM      6  C   UNL     1      -0.693   5.373   1.098  0.00  0.00    +0.105 C 
ENDROOT
BRANCH   3   7
ATOM      7  C   UNL     1      -2.414   2.542   0.032  0.00  0.00    -0.012 A 
ATOM      8  C   UNL     1      -3.760   2.851   0.072  0.00  0.00    +0.115 A 
ATOM      9  N   UNL     1      -4.650   1.945   0.429  0.00  0.00    -0.263 NA
ATOM     10  C   UNL     1      -4.296   0.719   0.759  0.00  0.00    +0.111 A 
ATOM     11  C   UNL     1      -2.968   0.337   0.742  0.00  0.00    +0.020 A 
ATOM     12  C   UNL     1      -2.004   1.261   0.367  0.00  0.00    +0.008 A 
ENDBRANCH   3   7
TORSDOF 1
ENDMDL
MODEL 5
REMARK VINA RESULT:    -2.432      3.440      5.435
REMARK INTER + INTRA:          -2.791
REMARK INTER:                  -2.580
REMARK INTRA:                  -0.211
REMARK UNBOUND:                -0.217
REMARK  Name = Nicotine.pdb
REMARK  2 active torsions:
REMARK  status: ('A' for Active; 'I' for Inactive)
REMARK    1  A    between atoms: C_3  and  C_6
REMARK    2  A    between atoms: N_4  and  C_12
REMARK                            x       y       z     vdW  Elec       q    Type
REMARK                         _______ _______ _______ _____ _____    ______ ____
ROOT
ATOM      1  C   UNL     1       1.059   3.952  -0.199  0.00  0.00    +0.017 C 
ATOM      2  C   UNL     1       2.110   4.826  -0.932  0.00  0.00    +0.025 C 
ATOM      3  C   UNL     1       1.277   5.520  -2.032  0.00  0.00    +0.088 C 
ATOM      4  N   UNL     1       0.077   4.694  -2.257  0.00  0.00    -0.298 NA
ATOM      5  C   UNL     1       0.143   3.514  -1.369  0.00  0.00    +0.085 C 
ATOM      6  C   UNL     1      -1.147   5.468  -2.015  0.00  0.00    +0.105 C 
ENDROOT
BRANCH   3   7
ATOM      7  C   UNL     1       2.082   5.614  -3.302  0.00  0.00    -0.012 A 
ATOM      8  C   UNL     1       3.295   4.960  -3.411  0.00  0.00    +0.115 A 
ATOM      9  N   UNL     1       4.006   5.037  -4.519  0.00  0.00    -0.263 NA
ATOM     10  C   UNL     1       3.594   5.736  -5.559  0.00  0.00    +0.111 A 
ATOM     11  C   UNL     1       2.392   6.417  -5.523  0.00  0.00    +0.020 A 
ATOM     12  C   UNL     1       1.615   6.354  -4.377  0.00  0.00    +0.008 A 
ENDBRANCH   3   7
TORSDOF 1
ENDMDL
MODEL 6
REMARK VINA RESULT:    -2.398      2.494      3.748
REMARK INTER + INTRA:          -2.755
REMARK INTER:                  -2.501
REMARK INTRA:                  -0.254
REMARK UNBOUND:                -0.217
REMARK  Name = Nicotine.pdb
REMARK  2 active torsions:
REMARK  status: ('A' for Active; 'I' for Inactive)
REMARK    1  A    between atoms: C_3  and  C_6
REMARK    2  A    between atoms: N_4  and  C_12
REMARK                            x       y       z     vdW  Elec       q    Type
REMARK                         _______ _______ _______ _____ _____    ______ ____
ROOT
ATOM      1  C   UNL     1       0.487   3.684  -0.626  0.00  0.00    +0.017 C 
ATOM      2  C   UNL     1      -0.399   4.929  -0.357  0.00  0.00    +0.025 C 
ATOM      3  C   UNL     1      -1.769   4.310  -0.005  0.00  0.00    +0.088 C 
ATOM      4  N   UNL     1      -1.798   2.955  -0.584  0.00  0.00    -0.298 NA
ATOM      5  C   UNL     1      -0.523   2.720  -1.295  0.00  0.00    +0.085 C 
ATOM      6  C   UNL     1      -2.015   1.942   0.457  0.00  0.00    +0.105 C 
ENDROOT
BRANCH   3   7
ATOM      7  C   UNL     1      -2.876   5.145  -0.596  0.00  0.00    -0.012 A 
ATOM      8  C   UNL     1      -4.186   4.949  -0.202  0.00  0.00    +0.115 A 
ATOM      9  N   UNL     1      -5.160   5.675  -0.714  0.00  0.00    -0.263 NA
ATOM     10  C   UNL     1      -4.928   6.610  -1.615  0.00  0.00    +0.111 A 
ATOM     11  C   UNL     1      -3.643   6.863  -2.057  0.00  0.00    +0.020 A 
ATOM     12  C   UNL     1      -2.592   6.123  -1.537  0.00  0.00    +0.008 A 
ENDBRANCH   3   7
TORSDOF 1
ENDMDL
MODEL 7
REMARK VINA RESULT:    -2.349      9.431     10.733
REMARK INTER + INTRA:          -2.703
REMARK INTER:                  -2.480
REMARK INTRA:                  -0.223
REMARK UNBOUND:                -0.217
REMARK  Name = Nicotine.pdb
REMARK  2 active torsions:
REMARK  status: ('A' for Active; 'I' for Inactive)
REMARK    1  A    between atoms: C_3  and  C_6
REMARK    2  A    between atoms: N_4  and  C_12
REMARK                            x       y       z     vdW  Elec       q    Type
REMARK                         _______ _______ _______ _____ _____    ______ ____
ROOT
ATOM      1  C   UNL     1       5.738  -6.097  -4.875  0.00  0.00    +0.017 C 
ATOM      2  C   UNL     1       6.301  -4.686  -5.190  0.00  0.00    +0.025 C 
ATOM      3  C   UNL     1       6.651  -4.132  -3.793  0.00  0.00    +0.088 C 
ATOM      4  N   UNL     1       5.843  -4.877  -2.812  0.00  0.00    -0.298 NA
ATOM      5  C   UNL     1       4.994  -5.845  -3.539  0.00  0.00    +0.085 C 
ATOM      6  C   UNL     1       6.699  -5.559  -1.832  0.00  0.00    +0.105 C 
ENDROOT
BRANCH   3   7
ATOM      7  C   UNL     1       6.317  -2.664  -3.726  0.00  0.00    -0.012 A 
ATOM      8  C   UNL     1       5.516  -2.176  -2.711  0.00  0.00    +0.115 A 
ATOM      9  N   UNL     1       5.219  -0.892  -2.644  0.00  0.00    -0.263 NA
ATOM     10  C   UNL     1       5.668  -0.030  -3.534  0.00  0.00    +0.111 A 
ATOM     11  C   UNL     1       6.475  -0.445  -4.577  0.00  0.00    +0.020 A 
ATOM     12  C   UNL     1       6.813  -1.786  -4.677  0.00  0.00    +0.008 A 
ENDBRANCH   3   7
TORSDOF 1
ENDMDL
MODEL 8
REMARK VINA RESULT:    -2.341      2.416      4.237
REMARK INTER + INTRA:          -2.695
REMARK INTER:                  -2.479
REMARK INTRA:                  -0.215
REMARK UNBOUND:                -0.217
REMARK  Name = Nicotine.pdb
REMARK  2 active torsions:
REMARK  status: ('A' for Active; 'I' for Inactive)
REMARK    1  A    between atoms: C_3  and  C_6
REMARK    2  A    between atoms: N_4  and  C_12
REMARK                            x       y       z     vdW  Elec       q    Type
REMARK                         _______ _______ _______ _____ _____    ______ ____
ROOT
ATOM      1  C   UNL     1      -2.020   5.945  -2.056  0.00  0.00    +0.017 C 
ATOM      2  C   UNL     1      -0.720   5.155  -2.361  0.00  0.00    +0.025 C 
ATOM      3  C   UNL     1      -0.760   4.008  -1.329  0.00  0.00    +0.088 C 
ATOM      4  N   UNL     1      -1.634   4.444  -0.225  0.00  0.00    -0.298 NA
ATOM      5  C   UNL     1      -2.112   5.813  -0.515  0.00  0.00    +0.085 C 
ATOM      6  C   UNL     1      -2.760   3.519  -0.046  0.00  0.00    +0.105 C 
ENDROOT
BRANCH   3   7
ATOM      7  C   UNL     1       0.628   3.736  -0.810  0.00  0.00    -0.012 A 
ATOM      8  C   UNL     1       0.821   3.356   0.505  0.00  0.00    +0.115 A 
ATOM      9  N   UNL     1       2.032   3.116   0.968  0.00  0.00    -0.263 NA
ATOM     10  C   UNL     1       3.100   3.228   0.203  0.00  0.00    +0.111 A 
ATOM     11  C   UNL     1       2.986   3.604  -1.122  0.00  0.00    +0.020 A 
ATOM     12  C   UNL     1       1.728   3.859  -1.645  0.00  0.00    +0.008 A 
ENDBRANCH   3   7
TORSDOF 1
ENDMDL
MODEL 9
REMARK VINA RESULT:    -2.294      9.321     11.237
REMARK INTER + INTRA:          -2.645
REMARK INTER:                  -2.440
REMARK INTRA:                  -0.205
REMARK UNBOUND:                -0.217
REMARK  Name = Nicotine.pdb
REMARK  2 active torsions:
REMARK  status: ('A' for Active; 'I' for Inactive)
REMARK    1  A    between atoms: C_3  and  C_6
REMARK    2  A    between atoms: N_4  and  C_12
REMARK                            x       y       z     vdW  Elec       q    Type
REMARK                         _______ _______ _______ _____ _____    ______ ____
ROOT
ATOM      1  C   UNL     1       7.110  -0.704  -5.856  0.00  0.00    +0.017 C 
ATOM      2  C   UNL     1       6.416  -0.845  -4.476  0.00  0.00    +0.025 C 
ATOM      3  C   UNL     1       7.020  -2.150  -3.915  0.00  0.00    +0.088 C 
ATOM      4  N   UNL     1       7.513  -2.931  -5.063  0.00  0.00    -0.298 NA
ATOM      5  C   UNL     1       7.219  -2.183  -6.304  0.00  0.00    +0.085 C 
ATOM      6  C   UNL     1       8.951  -3.201  -4.938  0.00  0.00    +0.105 C 
ENDROOT
BRANCH   3   7
ATOM      7  C   UNL     1       5.961  -2.930  -3.179  0.00  0.00    -0.012 A 
ATOM      8  C   UNL     1       5.172  -2.311  -2.228  0.00  0.00    +0.115 A 
ATOM      9  N   UNL     1       4.243  -2.987  -1.579  0.00  0.00    -0.263 NA
ATOM     10  C   UNL     1       4.031  -4.267  -1.808  0.00  0.00    +0.111 A 
ATOM     11  C   UNL     1       4.781  -4.953  -2.746  0.00  0.00    +0.020 A 
ATOM     12  C   UNL     1       5.763  -4.275  -3.451  0.00  0.00    +0.008 A 
ENDBRANCH   3   7
TORSDOF 1
ENDMDL
MODEL 10
REMARK VINA RESULT:    -2.279      2.964      4.834
REMARK INTER + INTRA:          -2.629
REMARK INTER:                  -2.418
REMARK INTRA:                  -0.210
REMARK UNBOUND:                -0.217
REMARK  Name = Nicotine.pdb
REMARK  2 active torsions:
REMARK  status: ('A' for Active; 'I' for Inactive)
REMARK    1  A    between atoms: C_3  and  C_6
REMARK    2  A    between atoms: N_4  and  C_12
REMARK                            x       y       z     vdW  Elec       q    Type
REMARK                         _______ _______ _______ _____ _____    ______ ____
ROOT
ATOM      1  C   UNL     1       1.634   3.718  -1.297  0.00  0.00    +0.017 C 
ATOM      2  C   UNL     1       0.100   3.518  -1.413  0.00  0.00    +0.025 C 
ATOM      3  C   UNL     1      -0.367   4.812  -2.113  0.00  0.00    +0.088 C 
ATOM      4  N   UNL     1       0.666   5.836  -1.873  0.00  0.00    -0.298 NA
ATOM      5  C   UNL     1       1.732   5.242  -1.039  0.00  0.00    +0.085 C 
ATOM      6  C   UNL     1       1.209   6.344  -3.140  0.00  0.00    +0.105 C 
ENDROOT
BRANCH   3   7
ATOM      7  C   UNL     1      -1.682   5.263  -1.533  0.00  0.00    -0.012 A 
ATOM      8  C   UNL     1      -2.212   4.629  -0.425  0.00  0.00    +0.115 A 
ATOM      9  N   UNL     1      -3.363   5.018   0.089  0.00  0.00    -0.263 NA
ATOM     10  C   UNL     1      -4.050   6.018  -0.427  0.00  0.00    +0.111 A 
ATOM     11  C   UNL     1      -3.582   6.700  -1.535  0.00  0.00    +0.020 A 
ATOM     12  C   UNL     1      -2.374   6.323  -2.100  0.00  0.00    +0.008 A 
ENDBRANCH   3   7
TORSDOF 1
ENDMDL
