MODEL 1
REMARK VINA RESULT:    -3.268      0.000      0.000
REMARK INTER + INTRA:          -3.661
REMARK INTER:                  -3.459
REMARK INTRA:                  -0.202
REMARK UNBOUND:                -0.202
REMARK  Name = Nicotine.pdb
REMARK  2 active torsions:
REMARK  status: ('A' for Active; 'I' for Inactive)
REMARK    1  A    between atoms: C_3  and  C_6
REMARK    2  A    between atoms: N_4  and  C_12
REMARK                            x       y       z     vdW  Elec       q    Type
REMARK                         _______ _______ _______ _____ _____    ______ ____
ROOT
ATOM      1  C   UNL     1      -2.254   6.016   2.934  0.00  0.00    +0.017 C 
ATOM      2  C   UNL     1      -2.678   4.589   2.501  0.00  0.00    +0.025 C 
ATOM      3  C   UNL     1      -1.544   3.704   3.059  0.00  0.00    +0.088 C 
ATOM      4  N   UNL     1      -0.365   4.571   3.244  0.00  0.00    -0.298 NA
ATOM      5  C   UNL     1      -0.712   5.938   2.803  0.00  0.00    +0.085 C 
ATOM      6  C   UNL     1       0.078   4.565   4.644  0.00  0.00    +0.105 C 
ENDROOT
BRANCH   3   7
ATOM      7  C   UNL     1      -1.223   2.603   2.083  0.00  0.00    -0.012 A 
ATOM      8  C   UNL     1      -1.100   2.879   0.734  0.00  0.00    +0.115 A 
ATOM      9  N   UNL     1      -0.819   1.920  -0.128  0.00  0.00    -0.263 NA
ATOM     10  C   UNL     1      -0.648   0.671   0.257  0.00  0.00    +0.111 A 
ATOM     11  C   UNL     1      -0.755   0.320   1.589  0.00  0.00    +0.020 A 
ATOM     12  C   UNL     1      -1.044   1.301   2.525  0.00  0.00    +0.008 A 
ENDBRANCH   3   7
TORSDOF 1
ENDMDL
MODEL 2
REMARK VINA RESULT:    -3.086      3.051      4.891
REMARK INTER + INTRA:          -3.469
REMARK INTER:                  -3.256
REMARK INTRA:                  -0.213
REMARK UNBOUND:                -0.202
REMARK  Name = Nicotine.pdb
REMARK  2 active torsions:
REMARK  status: ('A' for Active; 'I' for Inactive)
REMARK    1  A    between atoms: C_3  and  C_6
REMARK    2  A    between atoms: N_4  and  C_12
REMARK                            x       y       z     vdW  Elec       q    Type
REMARK                         _______ _______ _______ _____ _____    ______ ____
ROOT
ATOM      1  C   UNL     1      -1.328   1.233   2.430  0.00  0.00    +0.017 C 
ATOM      2  C   UNL     1      -2.045  -0.036   1.898  0.00  0.00    +0.025 C 
ATOM      3  C   UNL     1      -1.665  -0.047   0.402  0.00  0.00    +0.088 C 
ATOM      4  N   UNL     1      -1.298   1.332   0.033  0.00  0.00    -0.298 NA
ATOM      5  C   UNL     1      -1.458   2.195   1.223  0.00  0.00    +0.085 C 
ATOM      6  C   UNL     1       0.076   1.392  -0.481  0.00  0.00    +0.105 C 
ENDROOT
BRANCH   3   7
ATOM      7  C   UNL     1      -2.841  -0.504  -0.422  0.00  0.00    -0.012 A 
ATOM      8  C   UNL     1      -4.131  -0.198  -0.029  0.00  0.00    +0.115 A 
ATOM      9  N   UNL     1      -5.166  -0.594  -0.745  0.00  0.00    -0.263 NA
ATOM     10  C   UNL     1      -5.016  -1.291  -1.854  0.00  0.00    +0.111 A 
ATOM     11  C   UNL     1      -3.756  -1.634  -2.309  0.00  0.00    +0.020 A 
ATOM     12  C   UNL     1      -2.644  -1.231  -1.586  0.00  0.00    +0.008 A 
ENDBRANCH   3   7
TORSDOF 1
ENDMDL
MODEL 3
REMARK VINA RESULT:    -3.083      1.394      2.038
REMARK INTER + INTRA:          -3.465
REMARK INTER:                  -3.258
REMARK INTRA:                  -0.207
REMARK UNBOUND:                -0.202
REMARK  Name = Nicotine.pdb
REMARK  2 active torsions:
REMARK  status: ('A' for Active; 'I' for Inactive)
REMARK    1  A    between atoms: C_3  and  C_6
REMARK    2  A    between atoms: N_4  and  C_12
REMARK                            x       y       z     vdW  Elec       q    Type
REMARK                         _______ _______ _______ _____ _____    ______ ____
ROOT
ATOM      1  C   UNL     1      -1.081   5.010   3.876  0.00  0.00    +0.017 C 
ATOM      2  C   UNL     1      -0.678   4.472   2.478  0.00  0.00    +0.025 C 
ATOM      3  C   UNL     1      -1.959   3.754   2.001  0.00  0.00    +0.088 C 
ATOM      4  N   UNL     1      -2.746   3.421   3.201  0.00  0.00    -0.298 NA
ATOM      5  C   UNL     1      -2.001   3.877   4.395  0.00  0.00    +0.085 C 
ATOM      6  C   UNL     1      -4.079   4.037   3.145  0.00  0.00    +0.105 C 
ENDROOT
BRANCH   3   7
ATOM      7  C   UNL     1      -1.594   2.494   1.260  0.00  0.00    -0.012 A 
ATOM      8  C   UNL     1      -0.678   2.531   0.226  0.00  0.00    +0.115 A 
ATOM      9  N   UNL     1      -0.353   1.433  -0.428  0.00  0.00    -0.263 NA
ATOM     10  C   UNL     1      -0.883   0.264  -0.126  0.00  0.00    +0.111 A 
ATOM     11  C   UNL     1      -1.806   0.149   0.897  0.00  0.00    +0.020 A 
ATOM     12  C   UNL     1      -2.168   1.281   1.610  0.00  0.00    +0.008 A 
ENDBRANCH   3   7
TORSDOF 1
ENDMDL
MODEL 4
REMARK VINA RESULT:    -3.077      4.996      6.158
REMARK INTER + INTRA:          -3.459
REMARK INTER:                  -3.248
REMARK INTRA:                  -0.211
REMARK UNBOUND:                -0.202
REMARK  Name = Nicotine.pdb
REMARK  2 active torsions:
REMARK  status: ('A' for Active; 'I' for Inactive)
REMARK    1  A    between atoms: C_3  and  C_6
REMARK    2  A    between atoms: N_4  and  C_12
REMARK                            x       y       z     vdW  Elec       q    Type
REMARK                         _______ _______ _______ _____ _____    ______ ____
ROOT
ATOM      1  C   UNL     1       1.716  -1.291   2.075  0.00  0.00    +0.017 C 
ATOM      2  C   UNL     1       0.471  -0.559   1.508  0.00  0.00    +0.025 C 
ATOM      3  C   UNL     1      -0.603  -1.668   1.486  0.00  0.00    +0.088 C 
ATOM      4  N   UNL     1       0.104  -2.961   1.469  0.00  0.00    -0.298 NA
ATOM      5  C   UNL     1       1.560  -2.701   1.454  0.00  0.00    +0.085 C 
ATOM      6  C   UNL     1      -0.272  -3.783   2.627  0.00  0.00    +0.105 C 
ENDROOT
BRANCH   3   7
ATOM      7  C   UNL     1      -1.455  -1.532   0.251  0.00  0.00    -0.012 A 
ATOM      8  C   UNL     1      -1.109  -0.635  -0.742  0.00  0.00    +0.115 A 
ATOM      9  N   UNL     1      -1.850  -0.510  -1.826  0.00  0.00    -0.263 NA
ATOM     10  C   UNL     1      -2.941  -1.228  -2.007  0.00  0.00    +0.111 A 
ATOM     11  C   UNL     1      -3.350  -2.145  -1.057  0.00  0.00    +0.020 A 
ATOM     12  C   UNL     1      -2.593  -2.308   0.094  0.00  0.00    +0.008 A 
ENDBRANCH   3   7
TORSDOF 1
ENDMDL
MODEL 5
REMARK VINA RESULT:    -3.037      2.282      4.609
REMARK INTER + INTRA:          -3.417
REMARK INTER:                  -3.202
REMARK INTRA:                  -0.215
REMARK UNBOUND:                -0.202
REMARK  Name = Nicotine.pdb
REMARK  2 active torsions:
REMARK  status: ('A' for Active; 'I' for Inactive)
REMARK    1  A    between atoms: C_3  and  C_6
REMARK    2  A    between atoms: N_4  and  C_12
REMARK                            x       y       z     vdW  Elec       q    Type
REMARK                         _______ _______ _______ _____ _____    ______ ____
ROOT
ATOM      1  C   UNL     1      -4.951   1.388   0.544  0.00  0.00    +0.017 C 
ATOM      2  C   UNL     1      -4.356   2.820   0.594  0.00  0.00    +0.025 C 
ATOM      3  C   UNL     1      -2.879   2.569   0.963  0.00  0.00    +0.088 C 
ATOM      4  N   UNL     1      -2.809   1.248   1.613  0.00  0.00    -0.298 NA
ATOM      5  C   UNL     1      -4.175   0.686   1.685  0.00  0.00    +0.085 C 
ATOM      6  C   UNL     1      -1.906   0.348   0.884  0.00  0.00    +0.105 C 
ENDROOT
BRANCH   3   7
ATOM      7  C   UNL     1      -2.399   3.636   1.912  0.00  0.00    -0.012 A 
ATOM      8  C   UNL     1      -3.306   4.451   2.563  0.00  0.00    +0.115 A 
ATOM      9  N   UNL     1      -2.894   5.387   3.396  0.00  0.00    -0.263 NA
ATOM     10  C   UNL     1      -1.614   5.584   3.640  0.00  0.00    +0.111 A 
ATOM     11  C   UNL     1      -0.649   4.807   3.026  0.00  0.00    +0.020 A 
ATOM     12  C   UNL     1      -1.044   3.809   2.148  0.00  0.00    +0.008 A 
ENDBRANCH   3   7
TORSDOF 1
ENDMDL
MODEL 6
REMARK VINA RESULT:    -3.013      1.607      4.648
REMARK INTER + INTRA:          -3.391
REMARK INTER:                  -3.139
REMARK INTRA:                  -0.252
REMARK UNBOUND:                -0.202
REMARK  Name = Nicotine.pdb
REMARK  2 active torsions:
REMARK  status: ('A' for Active; 'I' for Inactive)
REMARK    1  A    between atoms: C_3  and  C_6
REMARK    2  A    between atoms: N_4  and  C_12
REMARK                            x       y       z     vdW  Elec       q    Type
REMARK                         _______ _______ _______ _____ _____    ______ ____
ROOT
ATOM      1  C   UNL     1      -0.801   0.850   2.640  0.00  0.00    +0.017 C 
ATOM      2  C   UNL     1      -1.116   2.116   3.479  0.00  0.00    +0.025 C 
ATOM      3  C   UNL     1      -2.287   2.762   2.707  0.00  0.00    +0.088 C 
ATOM      4  N   UNL     1      -2.228   2.259   1.323  0.00  0.00    -0.298 NA
ATOM      5  C   UNL     1      -1.063   1.356   1.200  0.00  0.00    +0.085 C 
ATOM      6  C   UNL     1      -3.471   1.567   0.960  0.00  0.00    +0.105 C 
ENDROOT
BRANCH   3   7
ATOM      7  C   UNL     1      -2.142   4.261   2.716  0.00  0.00    -0.012 A 
ATOM      8  C   UNL     1      -3.259   5.071   2.800  0.00  0.00    +0.115 A 
ATOM      9  N   UNL     1      -3.141   6.384   2.809  0.00  0.00    -0.263 NA
ATOM     10  C   UNL     1      -1.965   6.975   2.737  0.00  0.00    +0.111 A 
ATOM     11  C   UNL     1      -0.803   6.231   2.651  0.00  0.00    +0.020 A 
ATOM     12  C   UNL     1      -0.887   4.847   2.645  0.00  0.00    +0.008 A 
ENDBRANCH   3   7
TORSDOF 1
ENDMDL
MODEL 7
REMARK VINA RESULT:    -2.977      1.638      2.606
REMARK INTER + INTRA:          -3.353
REMARK INTER:                  -3.139
REMARK INTRA:                  -0.214
REMARK UNBOUND:                -0.202
REMARK  Name = Nicotine.pdb
REMARK  2 active torsions:
REMARK  status: ('A' for Active; 'I' for Inactive)
REMARK    1  A    between atoms: C_3  and  C_6
REMARK    2  A    between atoms: N_4  and  C_12
REMARK                            x       y       z     vdW  Elec       q    Type
REMARK                         _______ _______ _______ _____ _____    ______ ____
ROOT
ATOM      1  C   UNL     1      -0.293   5.127   4.732  0.00  0.00    +0.017 C 
ATOM      2  C   UNL     1      -0.294   4.038   3.627  0.00  0.00    +0.025 C 
ATOM      3  C   UNL     1      -1.148   4.677   2.511  0.00  0.00    +0.088 C 
ATOM      4  N   UNL     1      -1.994   5.706   3.143  0.00  0.00    -0.298 NA
ATOM      5  C   UNL     1      -1.720   5.713   4.596  0.00  0.00    +0.085 C 
ATOM      6  C   UNL     1      -1.745   7.028   2.554  0.00  0.00    +0.105 C 
ENDROOT
BRANCH   3   7
ATOM      7  C   UNL     1      -2.013   3.628   1.863  0.00  0.00    -0.012 A 
ATOM      8  C   UNL     1      -1.439   2.573   1.179  0.00  0.00    +0.115 A 
ATOM      9  N   UNL     1      -2.189   1.650   0.609  0.00  0.00    -0.263 NA
ATOM     10  C   UNL     1      -3.505   1.695   0.665  0.00  0.00    +0.111 A 
ATOM     11  C   UNL     1      -4.151   2.720   1.331  0.00  0.00    +0.020 A 
ATOM     12  C   UNL     1      -3.395   3.705   1.948  0.00  0.00    +0.008 A 
ENDBRANCH   3   7
TORSDOF 1
ENDMDL
MODEL 8
REMARK VINA RESULT:    -2.859      2.306      3.234
REMARK INTER + INTRA:          -3.228
REMARK INTER:                  -2.972
REMARK INTRA:                  -0.256
REMARK UNBOUND:                -0.202
REMARK  Name = Nicotine.pdb
REMARK  2 active torsions:
REMARK  status: ('A' for Active; 'I' for Inactive)
REMARK    1  A    between atoms: C_3  and  C_6
REMARK    2  A    between atoms: N_4  and  C_12
REMARK                            x       y       z     vdW  Elec       q    Type
REMARK                         _______ _______ _______ _____ _____    ______ ____
ROOT
ATOM      1  C   UNL     1      -0.881   3.714   2.069  0.00  0.00    +0.017 C 
ATOM      2  C   UNL     1      -1.153   2.872   0.794  0.00  0.00    +0.025 C 
ATOM      3  C   UNL     1      -2.457   2.125   1.143  0.00  0.00    +0.088 C 
ATOM      4  N   UNL     1      -2.562   2.091   2.613  0.00  0.00    -0.298 NA
ATOM      5  C   UNL     1      -1.373   2.759   3.185  0.00  0.00    +0.085 C 
ATOM      6  C   UNL     1      -3.800   2.737   3.068  0.00  0.00    +0.105 C 
ENDROOT
BRANCH   3   7
ATOM      7  C   UNL     1      -2.405   0.721   0.599  0.00  0.00    -0.012 A 
ATOM      8  C   UNL     1      -3.571   0.048   0.286  0.00  0.00    +0.115 A 
ATOM      9  N   UNL     1      -3.534  -1.181  -0.191  0.00  0.00    -0.263 NA
ATOM     10  C   UNL     1      -2.394  -1.814  -0.387  0.00  0.00    +0.111 A 
ATOM     11  C   UNL     1      -1.187  -1.205  -0.097  0.00  0.00    +0.020 A 
ATOM     12  C   UNL     1      -1.187   0.089   0.401  0.00  0.00    +0.008 A 
ENDBRANCH   3   7
TORSDOF 1
ENDMDL
MODEL 9
REMARK VINA RESULT:    -2.838      2.897      5.366
REMARK INTER + INTRA:          -3.206
REMARK INTER:                  -3.005
REMARK INTRA:                  -0.201
REMARK UNBOUND:                -0.202
REMARK  Name = Nicotine.pdb
REMARK  2 active torsions:
REMARK  status: ('A' for Active; 'I' for Inactive)
REMARK    1  A    between atoms: C_3  and  C_6
REMARK    2  A    between atoms: N_4  and  C_12
REMARK                            x       y       z     vdW  Elec       q    Type
REMARK                         _______ _______ _______ _____ _____    ______ ____
ROOT
ATOM      1  C   UNL     1      -1.217  -2.983   1.034  0.00  0.00    +0.017 C 
ATOM      2  C   UNL     1      -1.818  -1.819   0.202  0.00  0.00    +0.025 C 
ATOM      3  C   UNL     1      -0.931  -0.618   0.594  0.00  0.00    +0.088 C 
ATOM      4  N   UNL     1      -0.321  -0.932   1.898  0.00  0.00    -0.298 NA
ATOM      5  C   UNL     1      -0.810  -2.256   2.340  0.00  0.00    +0.085 C 
ATOM      6  C   UNL     1       1.145  -0.913   1.813  0.00  0.00    +0.105 C 
ENDROOT
BRANCH   3   7
ATOM      7  C   UNL     1      -1.773   0.626   0.706  0.00  0.00    -0.012 A 
ATOM      8  C   UNL     1      -3.131   0.576   0.456  0.00  0.00    +0.115 A 
ATOM      9  N   UNL     1      -3.875   1.661   0.552  0.00  0.00    -0.263 NA
ATOM     10  C   UNL     1      -3.360   2.827   0.888  0.00  0.00    +0.111 A 
ATOM     11  C   UNL     1      -2.010   2.954   1.154  0.00  0.00    +0.020 A 
ATOM     12  C   UNL     1      -1.197   1.834   1.068  0.00  0.00    +0.008 A 
ENDBRANCH   3   7
TORSDOF 1
ENDMDL
MODEL 10
REMARK VINA RESULT:    -2.800      1.977      3.017
REMARK INTER + INTRA:          -3.165
REMARK INTER:                  -2.911
REMARK INTRA:                  -0.255
REMARK UNBOUND:                -0.202
REMARK  Name = Nicotine.pdb
REMARK  2 active torsions:
REMARK  status: ('A' for Active; 'I' for Inactive)
REMARK    1  A    between atoms: C_3  and  C_6
REMARK    2  A    between atoms: N_4  and  C_12
REMARK                            x       y       z     vdW  Elec       q    Type
REMARK                         _______ _______ _______ _____ _____    ______ ____
ROOT
ATOM      1  C   UNL     1      -2.095   4.302   2.523  0.00  0.00    +0.017 C 
ATOM      2  C   UNL     1      -1.047   3.379   1.847  0.00  0.00    +0.025 C 
ATOM      3  C   UNL     1      -1.918   2.431   0.995  0.00  0.00    +0.088 C 
ATOM      4  N   UNL     1      -3.270   2.434   1.582  0.00  0.00    -0.298 NA
ATOM      5  C   UNL     1      -3.267   3.318   2.767  0.00  0.00    +0.085 C 
ATOM      6  C   UNL     1      -4.270   2.873   0.600  0.00  0.00    +0.105 C 
ENDROOT
BRANCH   3   7
ATOM      7  C   UNL     1      -1.345   1.038   1.032  0.00  0.00    -0.012 A 
ATOM      8  C   UNL     1      -1.512   0.185  -0.043  0.00  0.00    +0.115 A 
ATOM      9  N   UNL     1      -1.014  -1.036  -0.019  0.00  0.00    -0.263 NA
ATOM     10  C   UNL     1      -0.342  -1.490   1.020  0.00  0.00    +0.111 A 
ATOM     11  C   UNL     1      -0.135  -0.695   2.132  0.00  0.00    +0.020 A 
ATOM     12  C   UNL     1      -0.639   0.597   2.141  0.00  0.00    +0.008 A 
ENDBRANCH   3   7
TORSDOF 1
ENDMDL
