MODEL 1
REMARK VINA RESULT:    -3.118      0.000      0.000
REMARK INTER + INTRA:          -3.512
REMARK INTER:                  -3.301
REMARK INTRA:                  -0.211
REMARK UNBOUND:                -0.211
REMARK  Name = Nicotine.pdb
REMARK  2 active torsions:
REMARK  status: ('A' for Active; 'I' for Inactive)
REMARK    1  A    between atoms: C_3  and  C_6
REMARK    2  A    between atoms: N_4  and  C_12
REMARK                            x       y       z     vdW  Elec       q    Type
REMARK                         _______ _______ _______ _____ _____    ______ ____
ROOT
ATOM      1  C   UNL     1      10.767  -1.268  -2.097  0.00  0.00    +0.017 C 
ATOM      2  C   UNL     1      10.954  -0.835  -0.619  0.00  0.00    +0.025 C 
ATOM      3  C   UNL     1      10.521  -2.090   0.167  0.00  0.00    +0.088 C 
ATOM      4  N   UNL     1       9.651  -2.884  -0.720  0.00  0.00    -0.298 NA
ATOM      5  C   UNL     1       9.508  -2.165  -2.004  0.00  0.00    +0.085 C 
ATOM      6  C   UNL     1      10.198  -4.231  -0.928  0.00  0.00    +0.105 C 
ENDROOT
BRANCH   3   7
ATOM      7  C   UNL     1       9.760  -1.684   1.403  0.00  0.00    -0.012 A 
ATOM      8  C   UNL     1       9.394  -0.366   1.597  0.00  0.00    +0.115 A 
ATOM      9  N   UNL     1       8.729  -0.002   2.676  0.00  0.00    -0.263 NA
ATOM     10  C   UNL     1       8.388  -0.871   3.606  0.00  0.00    +0.111 A 
ATOM     11  C   UNL     1       8.719  -2.208   3.481  0.00  0.00    +0.020 A 
ATOM     12  C   UNL     1       9.414  -2.628   2.358  0.00  0.00    +0.008 A 
ENDBRANCH   3   7
TORSDOF 1
ENDMDL
MODEL 2
REMARK VINA RESULT:    -3.100      1.992      5.328
REMARK INTER + INTRA:          -3.493
REMARK INTER:                  -3.252
REMARK INTRA:                  -0.241
REMARK UNBOUND:                -0.211
REMARK  Name = Nicotine.pdb
REMARK  2 active torsions:
REMARK  status: ('A' for Active; 'I' for Inactive)
REMARK    1  A    between atoms: C_3  and  C_6
REMARK    2  A    between atoms: N_4  and  C_12
REMARK                            x       y       z     vdW  Elec       q    Type
REMARK                         _______ _______ _______ _____ _____    ______ ____
ROOT
ATOM      1  C   UNL     1       9.245   1.127   5.807  0.00  0.00    +0.017 C 
ATOM      2  C   UNL     1       8.678   0.885   4.383  0.00  0.00    +0.025 C 
ATOM      3  C   UNL     1       8.621  -0.654   4.288  0.00  0.00    +0.088 C 
ATOM      4  N   UNL     1       9.578  -1.188   5.274  0.00  0.00    -0.298 NA
ATOM      5  C   UNL     1      10.239  -0.053   5.952  0.00  0.00    +0.085 C 
ATOM      6  C   UNL     1       8.904  -2.061   6.244  0.00  0.00    +0.105 C 
ENDROOT
BRANCH   3   7
ATOM      7  C   UNL     1       9.011  -1.098   2.902  0.00  0.00    -0.012 A 
ATOM      8  C   UNL     1       9.006  -2.439   2.570  0.00  0.00    +0.115 A 
ATOM      9  N   UNL     1       9.346  -2.836   1.359  0.00  0.00    -0.263 NA
ATOM     10  C   UNL     1       9.700  -1.978   0.423  0.00  0.00    +0.111 A 
ATOM     11  C   UNL     1       9.728  -0.620   0.681  0.00  0.00    +0.020 A 
ATOM     12  C   UNL     1       9.372  -0.165   1.942  0.00  0.00    +0.008 A 
ENDBRANCH   3   7
TORSDOF 1
ENDMDL
MODEL 3
REMARK VINA RESULT:    -3.053      1.932      4.867
REMARK INTER + INTRA:          -3.443
REMARK INTER:                  -3.187
REMARK INTRA:                  -0.256
REMARK UNBOUND:                -0.211
REMARK  Name = Nicotine.pdb
REMARK  2 active torsions:
REMARK  status: ('A' for Active; 'I' for Inactive)
REMARK    1  A    between atoms: C_3  and  C_6
REMARK    2  A    between atoms: N_4  and  C_12
REMARK                            x       y       z     vdW  Elec       q    Type
REMARK                         _______ _______ _______ _____ _____    ______ ____
ROOT
ATOM      1  C   UNL     1       9.352   0.649   4.071  0.00  0.00    +0.017 C 
ATOM      2  C   UNL     1       8.830  -0.166   2.858  0.00  0.00    +0.025 C 
ATOM      3  C   UNL     1       8.766  -1.606   3.409  0.00  0.00    +0.088 C 
ATOM      4  N   UNL     1       9.687  -1.676   4.558  0.00  0.00    -0.298 NA
ATOM      5  C   UNL     1      10.333  -0.356   4.724  0.00  0.00    +0.085 C 
ATOM      6  C   UNL     1       8.977  -2.073   5.780  0.00  0.00    +0.105 C 
ENDROOT
BRANCH   3   7
ATOM      7  C   UNL     1       9.197  -2.581   2.345  0.00  0.00    -0.012 A 
ATOM      8  C   UNL     1       8.859  -3.918   2.443  0.00  0.00    +0.115 A 
ATOM      9  N   UNL     1       9.231  -4.778   1.516  0.00  0.00    -0.263 NA
ATOM     10  C   UNL     1       9.936  -4.404   0.467  0.00  0.00    +0.111 A 
ATOM     11  C   UNL     1      10.311  -3.084   0.300  0.00  0.00    +0.020 A 
ATOM     12  C   UNL     1       9.933  -2.150   1.252  0.00  0.00    +0.008 A 
ENDBRANCH   3   7
TORSDOF 1
ENDMDL
MODEL 4
REMARK VINA RESULT:    -3.035      1.713      2.171
REMARK INTER + INTRA:          -3.424
REMARK INTER:                  -3.171
REMARK INTRA:                  -0.253
REMARK UNBOUND:                -0.211
REMARK  Name = Nicotine.pdb
REMARK  2 active torsions:
REMARK  status: ('A' for Active; 'I' for Inactive)
REMARK    1  A    between atoms: C_3  and  C_6
REMARK    2  A    between atoms: N_4  and  C_12
REMARK                            x       y       z     vdW  Elec       q    Type
REMARK                         _______ _______ _______ _____ _____    ______ ____
ROOT
ATOM      1  C   UNL     1      10.801  -0.901  -1.497  0.00  0.00    +0.017 C 
ATOM      2  C   UNL     1      10.954  -1.310  -0.009  0.00  0.00    +0.025 C 
ATOM      3  C   UNL     1      10.622  -2.817  -0.027  0.00  0.00    +0.088 C 
ATOM      4  N   UNL     1       9.817  -3.073  -1.235  0.00  0.00    -0.298 NA
ATOM      5  C   UNL     1       9.616  -1.792  -1.947  0.00  0.00    +0.085 C 
ATOM      6  C   UNL     1      10.469  -4.062  -2.103  0.00  0.00    +0.105 C 
ENDROOT
BRANCH   3   7
ATOM      7  C   UNL     1       9.834  -3.184   1.203  0.00  0.00    -0.012 A 
ATOM      8  C   UNL     1       9.617  -4.510   1.525  0.00  0.00    +0.115 A 
ATOM      9  N   UNL     1       8.928  -4.839   2.601  0.00  0.00    -0.263 NA
ATOM     10  C   UNL     1       8.421  -3.926   3.406  0.00  0.00    +0.111 A 
ATOM     11  C   UNL     1       8.598  -2.580   3.148  0.00  0.00    +0.020 A 
ATOM     12  C   UNL     1       9.321  -2.195   2.030  0.00  0.00    +0.008 A 
ENDBRANCH   3   7
TORSDOF 1
ENDMDL
MODEL 5
REMARK VINA RESULT:    -2.980      2.263      4.647
REMARK INTER + INTRA:          -3.365
REMARK INTER:                  -3.178
REMARK INTRA:                  -0.187
REMARK UNBOUND:                -0.211
REMARK  Name = Nicotine.pdb
REMARK  2 active torsions:
REMARK  status: ('A' for Active; 'I' for Inactive)
REMARK    1  A    between atoms: C_3  and  C_6
REMARK    2  A    between atoms: N_4  and  C_12
REMARK                            x       y       z     vdW  Elec       q    Type
REMARK                         _______ _______ _______ _____ _____    ______ ____
ROOT
ATOM      1  C   UNL     1      10.699   1.787   3.278  0.00  0.00    +0.017 C 
ATOM      2  C   UNL     1      10.206   0.720   2.266  0.00  0.00    +0.025 C 
ATOM      3  C   UNL     1       9.065   0.016   3.032  0.00  0.00    +0.088 C 
ATOM      4  N   UNL     1       9.296   0.249   4.469  0.00  0.00    -0.298 NA
ATOM      5  C   UNL     1      10.535   1.040   4.626  0.00  0.00    +0.085 C 
ATOM      6  C   UNL     1       8.151   0.936   5.082  0.00  0.00    +0.105 C 
ENDROOT
BRANCH   3   7
ATOM      7  C   UNL     1       9.088  -1.462   2.741  0.00  0.00    -0.012 A 
ATOM      8  C   UNL     1       9.491  -1.925   1.503  0.00  0.00    +0.115 A 
ATOM      9  N   UNL     1       9.514  -3.217   1.240  0.00  0.00    -0.263 NA
ATOM     10  C   UNL     1       9.156  -4.113   2.138  0.00  0.00    +0.111 A 
ATOM     11  C   UNL     1       8.742  -3.726   3.399  0.00  0.00    +0.020 A 
ATOM     12  C   UNL     1       8.710  -2.376   3.713  0.00  0.00    +0.008 A 
ENDBRANCH   3   7
TORSDOF 1
ENDMDL
MODEL 6
REMARK VINA RESULT:    -2.939      1.996      3.615
REMARK INTER + INTRA:          -3.322
REMARK INTER:                  -3.102
REMARK INTRA:                  -0.220
REMARK UNBOUND:                -0.211
REMARK  Name = Nicotine.pdb
REMARK  2 active torsions:
REMARK  status: ('A' for Active; 'I' for Inactive)
REMARK    1  A    between atoms: C_3  and  C_6
REMARK    2  A    between atoms: N_4  and  C_12
REMARK                            x       y       z     vdW  Elec       q    Type
REMARK                         _______ _______ _______ _____ _____    ______ ____
ROOT
ATOM      1  C   UNL     1       9.409  -3.320   2.274  0.00  0.00    +0.017 C 
ATOM      2  C   UNL     1       8.704  -2.318   3.226  0.00  0.00    +0.025 C 
ATOM      3  C   UNL     1       8.777  -0.988   2.446  0.00  0.00    +0.088 C 
ATOM      4  N   UNL     1       9.887  -1.106   1.484  0.00  0.00    -0.298 NA
ATOM      5  C   UNL     1      10.516  -2.434   1.652  0.00  0.00    +0.085 C 
ATOM      6  C   UNL     1       9.414  -0.918   0.107  0.00  0.00    +0.105 C 
ENDROOT
BRANCH   3   7
ATOM      7  C   UNL     1       9.040   0.151   3.397  0.00  0.00    -0.012 A 
ATOM      8  C   UNL     1      10.021   1.083   3.117  0.00  0.00    +0.115 A 
ATOM      9  N   UNL     1      10.258   2.082   3.944  0.00  0.00    -0.263 NA
ATOM     10  C   UNL     1       9.575   2.233   5.062  0.00  0.00    +0.111 A 
ATOM     11  C   UNL     1       8.577   1.341   5.408  0.00  0.00    +0.020 A 
ATOM     12  C   UNL     1       8.297   0.280   4.560  0.00  0.00    +0.008 A 
ENDBRANCH   3   7
TORSDOF 1
ENDMDL
MODEL 7
REMARK VINA RESULT:    -2.919      4.060      6.116
REMARK INTER + INTRA:          -3.300
REMARK INTER:                  -3.089
REMARK INTRA:                  -0.211
REMARK UNBOUND:                -0.211
REMARK  Name = Nicotine.pdb
REMARK  2 active torsions:
REMARK  status: ('A' for Active; 'I' for Inactive)
REMARK    1  A    between atoms: C_3  and  C_6
REMARK    2  A    between atoms: N_4  and  C_12
REMARK                            x       y       z     vdW  Elec       q    Type
REMARK                         _______ _______ _______ _____ _____    ______ ____
ROOT
ATOM      1  C   UNL     1       8.744  -0.621   3.309  0.00  0.00    +0.017 C 
ATOM      2  C   UNL     1       9.508   0.653   2.861  0.00  0.00    +0.025 C 
ATOM      3  C   UNL     1      10.216   1.106   4.156  0.00  0.00    +0.088 C 
ATOM      4  N   UNL     1       9.473   0.523   5.287  0.00  0.00    -0.298 NA
ATOM      5  C   UNL     1       8.329  -0.245   4.753  0.00  0.00    +0.085 C 
ATOM      6  C   UNL     1      10.344  -0.330   6.106  0.00  0.00    +0.105 C 
ENDROOT
BRANCH   3   7
ATOM      7  C   UNL     1      10.200   2.610   4.250  0.00  0.00    -0.012 A 
ATOM      8  C   UNL     1      10.954   3.373   3.379  0.00  0.00    +0.115 A 
ATOM      9  N   UNL     1      10.945   4.690   3.454  0.00  0.00    -0.263 NA
ATOM     10  C   UNL     1      10.224   5.327   4.355  0.00  0.00    +0.111 A 
ATOM     11  C   UNL     1       9.444   4.631   5.260  0.00  0.00    +0.020 A 
ATOM     12  C   UNL     1       9.424   3.246   5.207  0.00  0.00    +0.008 A 
ENDBRANCH   3   7
TORSDOF 1
ENDMDL
MODEL 8
REMARK VINA RESULT:    -2.860      2.602      4.835
REMARK INTER + INTRA:          -3.239
REMARK INTER:                  -3.039
REMARK INTRA:                  -0.200
REMARK UNBOUND:                -0.211
REMARK  Name = Nicotine.pdb
REMARK  2 active torsions:
REMARK  status: ('A' for Active; 'I' for Inactive)
REMARK    1  A    between atoms: C_3  and  C_6
REMARK    2  A    between atoms: N_4  and  C_12
REMARK                            x       y       z     vdW  Elec       q    Type
REMARK                         _______ _______ _______ _____ _____    ______ ____
ROOT
ATOM      1  C   UNL     1       7.484  -5.848   4.043  0.00  0.00    +0.017 C 
ATOM      2  C   UNL     1       7.824  -4.910   2.856  0.00  0.00    +0.025 C 
ATOM      3  C   UNL     1       9.129  -4.226   3.316  0.00  0.00    +0.088 C 
ATOM      4  N   UNL     1       9.174  -4.317   4.787  0.00  0.00    -0.298 NA
ATOM      5  C   UNL     1       7.950  -5.001   5.254  0.00  0.00    +0.085 C 
ATOM      6  C   UNL     1      10.379  -5.029   5.234  0.00  0.00    +0.105 C 
ENDROOT
BRANCH   3   7
ATOM      7  C   UNL     1       9.127  -2.780   2.891  0.00  0.00    -0.012 A 
ATOM      8  C   UNL     1       9.495  -2.429   1.606  0.00  0.00    +0.115 A 
ATOM      9  N   UNL     1       9.496  -1.167   1.225  0.00  0.00    -0.263 NA
ATOM     10  C   UNL     1       9.151  -0.195   2.047  0.00  0.00    +0.111 A 
ATOM     11  C   UNL     1       8.771  -0.469   3.347  0.00  0.00    +0.020 A 
ATOM     12  C   UNL     1       8.752  -1.786   3.781  0.00  0.00    +0.008 A 
ENDBRANCH   3   7
TORSDOF 1
ENDMDL
MODEL 9
REMARK VINA RESULT:    -2.817      2.085      4.045
REMARK INTER + INTRA:          -3.193
REMARK INTER:                  -2.968
REMARK INTRA:                  -0.225
REMARK UNBOUND:                -0.211
REMARK  Name = Nicotine.pdb
REMARK  2 active torsions:
REMARK  status: ('A' for Active; 'I' for Inactive)
REMARK    1  A    between atoms: C_3  and  C_6
REMARK    2  A    between atoms: N_4  and  C_12
REMARK                            x       y       z     vdW  Elec       q    Type
REMARK                         _______ _______ _______ _____ _____    ______ ____
ROOT
ATOM      1  C   UNL     1       9.461   0.115   3.418  0.00  0.00    +0.017 C 
ATOM      2  C   UNL     1       9.323  -1.331   3.965  0.00  0.00    +0.025 C 
ATOM      3  C   UNL     1       9.810  -2.196   2.783  0.00  0.00    +0.088 C 
ATOM      4  N   UNL     1       9.663  -1.388   1.560  0.00  0.00    -0.298 NA
ATOM      5  C   UNL     1       9.086  -0.077   1.928  0.00  0.00    +0.085 C 
ATOM      6  C   UNL     1      10.954  -1.223   0.879  0.00  0.00    +0.105 C 
ENDROOT
BRANCH   3   7
ATOM      7  C   UNL     1       8.969  -3.443   2.680  0.00  0.00    -0.012 A 
ATOM      8  C   UNL     1       9.060  -4.257   1.567  0.00  0.00    +0.115 A 
ATOM      9  N   UNL     1       8.328  -5.349   1.468  0.00  0.00    -0.263 NA
ATOM     10  C   UNL     1       7.486  -5.707   2.418  0.00  0.00    +0.111 A 
ATOM     11  C   UNL     1       7.342  -4.943   3.560  0.00  0.00    +0.020 A 
ATOM     12  C   UNL     1       8.099  -3.790   3.702  0.00  0.00    +0.008 A 
ENDBRANCH   3   7
TORSDOF 1
ENDMDL
MODEL 10
REMARK VINA RESULT:    -2.760      2.760      4.604
REMARK INTER + INTRA:          -3.132
REMARK INTER:                  -2.928
REMARK INTRA:                  -0.204
REMARK UNBOUND:                -0.211
REMARK  Name = Nicotine.pdb
REMARK  2 active torsions:
REMARK  status: ('A' for Active; 'I' for Inactive)
REMARK    1  A    between atoms: C_3  and  C_6
REMARK    2  A    between atoms: N_4  and  C_12
REMARK                            x       y       z     vdW  Elec       q    Type
REMARK                         _______ _______ _______ _____ _____    ______ ____
ROOT
ATOM      1  C   UNL     1      10.037  -0.009   2.020  0.00  0.00    +0.017 C 
ATOM      2  C   UNL     1       9.399  -1.414   1.851  0.00  0.00    +0.025 C 
ATOM      3  C   UNL     1       8.664  -1.624   3.192  0.00  0.00    +0.088 C 
ATOM      4  N   UNL     1       9.301  -0.738   4.183  0.00  0.00    -0.298 NA
ATOM      5  C   UNL     1      10.407  -0.012   3.524  0.00  0.00    +0.085 C 
ATOM      6  C   UNL     1       8.325   0.197   4.758  0.00  0.00    +0.105 C 
ENDROOT
BRANCH   3   7
ATOM      7  C   UNL     1       8.795  -3.061   3.628  0.00  0.00    -0.012 A 
ATOM      8  C   UNL     1       8.509  -4.087   2.748  0.00  0.00    +0.115 A 
ATOM      9  N   UNL     1       8.621  -5.347   3.122  0.00  0.00    -0.263 NA
ATOM     10  C   UNL     1       9.005  -5.677   4.338  0.00  0.00    +0.111 A 
ATOM     11  C   UNL     1       9.309  -4.705   5.273  0.00  0.00    +0.020 A 
ATOM     12  C   UNL     1       9.208  -3.370   4.915  0.00  0.00    +0.008 A 
ENDBRANCH   3   7
TORSDOF 1
ENDMDL
