MODEL 1
REMARK VINA RESULT:    -4.704      0.000      0.000
REMARK INTER + INTRA:          -5.197
REMARK INTER:                  -4.979
REMARK INTRA:                  -0.218
REMARK UNBOUND:                -0.218
REMARK  Name = Nicotine.pdb
REMARK  2 active torsions:
REMARK  status: ('A' for Active; 'I' for Inactive)
REMARK    1  A    between atoms: C_3  and  C_6
REMARK    2  A    between atoms: N_4  and  C_12
REMARK                            x       y       z     vdW  Elec       q    Type
REMARK                         _______ _______ _______ _____ _____    ______ ____
ROOT
ATOM      1  C   UNL     1      -1.050   6.615  -3.234  0.00  0.00    +0.017 C 
ATOM      2  C   UNL     1      -0.907   5.422  -4.215  0.00  0.00    +0.025 C 
ATOM      3  C   UNL     1      -2.358   4.918  -4.361  0.00  0.00    +0.088 C 
ATOM      4  N   UNL     1      -3.102   5.375  -3.174  0.00  0.00    -0.298 NA
ATOM      5  C   UNL     1      -2.173   6.113  -2.292  0.00  0.00    +0.085 C 
ATOM      6  C   UNL     1      -4.244   6.214  -3.557  0.00  0.00    +0.105 C 
ENDROOT
BRANCH   3   7
ATOM      7  C   UNL     1      -2.374   3.413  -4.430  0.00  0.00    -0.012 A 
ATOM      8  C   UNL     1      -2.970   2.673  -3.426  0.00  0.00    +0.115 A 
ATOM      9  N   UNL     1      -2.988   1.356  -3.478  0.00  0.00    -0.263 NA
ATOM     10  C   UNL     1      -2.443   0.694  -4.480  0.00  0.00    +0.111 A 
ATOM     11  C   UNL     1      -1.829   1.366  -5.521  0.00  0.00    +0.020 A 
ATOM     12  C   UNL     1      -1.795   2.752  -5.503  0.00  0.00    +0.008 A 
ENDBRANCH   3   7
TORSDOF 1
ENDMDL
MODEL 2
REMARK VINA RESULT:    -4.574      2.305      3.569
REMARK INTER + INTRA:          -5.059
REMARK INTER:                  -4.844
REMARK INTRA:                  -0.215
REMARK UNBOUND:                -0.218
REMARK  Name = Nicotine.pdb
REMARK  2 active torsions:
REMARK  status: ('A' for Active; 'I' for Inactive)
REMARK    1  A    between atoms: C_3  and  C_6
REMARK    2  A    between atoms: N_4  and  C_12
REMARK                            x       y       z     vdW  Elec       q    Type
REMARK                         _______ _______ _______ _____ _____    ______ ____
ROOT
ATOM      1  C   UNL     1      -4.232   4.191  -3.698  0.00  0.00    +0.017 C 
ATOM      2  C   UNL     1      -4.188   2.779  -3.056  0.00  0.00    +0.025 C 
ATOM      3  C   UNL     1      -3.100   2.057  -3.879  0.00  0.00    +0.088 C 
ATOM      4  N   UNL     1      -2.988   2.761  -5.169  0.00  0.00    -0.298 NA
ATOM      5  C   UNL     1      -3.973   3.864  -5.190  0.00  0.00    +0.085 C 
ATOM      6  C   UNL     1      -1.626   3.266  -5.378  0.00  0.00    +0.105 C 
ENDROOT
BRANCH   3   7
ATOM      7  C   UNL     1      -3.498   0.622  -4.109  0.00  0.00    -0.012 A 
ATOM      8  C   UNL     1      -4.814   0.229  -3.957  0.00  0.00    +0.115 A 
ATOM      9  N   UNL     1      -5.171  -1.025  -4.156  0.00  0.00    -0.263 NA
ATOM     10  C   UNL     1      -4.296  -1.947  -4.505  0.00  0.00    +0.111 A 
ATOM     11  C   UNL     1      -2.962  -1.629  -4.675  0.00  0.00    +0.020 A 
ATOM     12  C   UNL     1      -2.550  -0.319  -4.480  0.00  0.00    +0.008 A 
ENDBRANCH   3   7
TORSDOF 1
ENDMDL
MODEL 3
REMARK VINA RESULT:    -4.473      1.364      4.390
REMARK INTER + INTRA:          -4.952
REMARK INTER:                  -4.742
REMARK INTRA:                  -0.210
REMARK UNBOUND:                -0.218
REMARK  Name = Nicotine.pdb
REMARK  2 active torsions:
REMARK  status: ('A' for Active; 'I' for Inactive)
REMARK    1  A    between atoms: C_3  and  C_6
REMARK    2  A    between atoms: N_4  and  C_12
REMARK                            x       y       z     vdW  Elec       q    Type
REMARK                         _______ _______ _______ _____ _____    ______ ____
ROOT
ATOM      1  C   UNL     1      -2.135   0.978  -5.014  0.00  0.00    +0.017 C 
ATOM      2  C   UNL     1      -2.672   2.010  -3.988  0.00  0.00    +0.025 C 
ATOM      3  C   UNL     1      -2.818   3.295  -4.831  0.00  0.00    +0.088 C 
ATOM      4  N   UNL     1      -1.925   3.157  -5.995  0.00  0.00    -0.298 NA
ATOM      5  C   UNL     1      -1.218   1.862  -5.896  0.00  0.00    +0.085 C 
ATOM      6  C   UNL     1      -2.678   3.250  -7.253  0.00  0.00    +0.105 C 
ENDROOT
BRANCH   3   7
ATOM      7  C   UNL     1      -2.416   4.494  -4.013  0.00  0.00    -0.012 A 
ATOM      8  C   UNL     1      -3.226   4.945  -2.988  0.00  0.00    +0.115 A 
ATOM      9  N   UNL     1      -2.881   5.994  -2.267  0.00  0.00    -0.263 NA
ATOM     10  C   UNL     1      -1.759   6.650  -2.491  0.00  0.00    +0.111 A 
ATOM     11  C   UNL     1      -0.898   6.257  -3.499  0.00  0.00    +0.020 A 
ATOM     12  C   UNL     1      -1.225   5.155  -4.274  0.00  0.00    +0.008 A 
ENDBRANCH   3   7
TORSDOF 1
ENDMDL
MODEL 4
REMARK VINA RESULT:    -4.452      2.235      3.730
REMARK INTER + INTRA:          -4.930
REMARK INTER:                  -4.710
REMARK INTRA:                  -0.220
REMARK UNBOUND:                -0.218
REMARK  Name = Nicotine.pdb
REMARK  2 active torsions:
REMARK  status: ('A' for Active; 'I' for Inactive)
REMARK    1  A    between atoms: C_3  and  C_6
REMARK    2  A    between atoms: N_4  and  C_12
REMARK                            x       y       z     vdW  Elec       q    Type
REMARK                         _______ _______ _______ _____ _____    ______ ____
ROOT
ATOM      1  C   UNL     1      -4.489   3.841  -7.076  0.00  0.00    +0.017 C 
ATOM      2  C   UNL     1      -4.922   2.615  -6.230  0.00  0.00    +0.025 C 
ATOM      3  C   UNL     1      -3.888   2.602  -5.084  0.00  0.00    +0.088 C 
ATOM      4  N   UNL     1      -2.702   3.339  -5.557  0.00  0.00    -0.298 NA
ATOM      5  C   UNL     1      -2.946   3.782  -6.946  0.00  0.00    +0.085 C 
ATOM      6  C   UNL     1      -2.408   4.481  -4.683  0.00  0.00    +0.105 C 
ENDROOT
BRANCH   3   7
ATOM      7  C   UNL     1      -3.511   1.182  -4.749  0.00  0.00    -0.012 A 
ATOM      8  C   UNL     1      -2.213   0.743  -4.927  0.00  0.00    +0.115 A 
ATOM      9  N   UNL     1      -1.875  -0.499  -4.636  0.00  0.00    -0.263 NA
ATOM     10  C   UNL     1      -2.753  -1.365  -4.169  0.00  0.00    +0.111 A 
ATOM     11  C   UNL     1      -4.070  -0.997  -3.965  0.00  0.00    +0.020 A 
ATOM     12  C   UNL     1      -4.461   0.301  -4.254  0.00  0.00    +0.008 A 
ENDBRANCH   3   7
TORSDOF 1
ENDMDL
MODEL 5
REMARK VINA RESULT:    -4.373      1.275      2.233
REMARK INTER + INTRA:          -4.846
REMARK INTER:                  -4.633
REMARK INTRA:                  -0.213
REMARK UNBOUND:                -0.218
REMARK  Name = Nicotine.pdb
REMARK  2 active torsions:
REMARK  status: ('A' for Active; 'I' for Inactive)
REMARK    1  A    between atoms: C_3  and  C_6
REMARK    2  A    between atoms: N_4  and  C_12
REMARK                            x       y       z     vdW  Elec       q    Type
REMARK                         _______ _______ _______ _____ _____    ______ ____
ROOT
ATOM      1  C   UNL     1      -4.100   6.691  -5.356  0.00  0.00    +0.017 C 
ATOM      2  C   UNL     1      -4.196   5.359  -4.565  0.00  0.00    +0.025 C 
ATOM      3  C   UNL     1      -2.717   4.994  -4.320  0.00  0.00    +0.088 C 
ATOM      4  N   UNL     1      -1.918   5.695  -5.342  0.00  0.00    -0.298 NA
ATOM      5  C   UNL     1      -2.837   6.452  -6.219  0.00  0.00    +0.085 C 
ATOM      6  C   UNL     1      -0.930   6.585  -4.720  0.00  0.00    +0.105 C 
ENDROOT
BRANCH   3   7
ATOM      7  C   UNL     1      -2.527   3.505  -4.452  0.00  0.00    -0.012 A 
ATOM      8  C   UNL     1      -3.080   2.645  -3.521  0.00  0.00    +0.115 A 
ATOM      9  N   UNL     1      -2.919   1.341  -3.629  0.00  0.00    -0.263 NA
ATOM     10  C   UNL     1      -2.231   0.807  -4.619  0.00  0.00    +0.111 A 
ATOM     11  C   UNL     1      -1.650   1.604  -5.587  0.00  0.00    +0.020 A 
ATOM     12  C   UNL     1      -1.802   2.980  -5.510  0.00  0.00    +0.008 A 
ENDBRANCH   3   7
TORSDOF 1
ENDMDL
MODEL 6
REMARK VINA RESULT:    -4.365      1.673      4.190
REMARK INTER + INTRA:          -4.837
REMARK INTER:                  -4.582
REMARK INTRA:                  -0.255
REMARK UNBOUND:                -0.218
REMARK  Name = Nicotine.pdb
REMARK  2 active torsions:
REMARK  status: ('A' for Active; 'I' for Inactive)
REMARK    1  A    between atoms: C_3  and  C_6
REMARK    2  A    between atoms: N_4  and  C_12
REMARK                            x       y       z     vdW  Elec       q    Type
REMARK                         _______ _______ _______ _____ _____    ______ ____
ROOT
ATOM      1  C   UNL     1      -2.155   2.513  -7.130  0.00  0.00    +0.017 C 
ATOM      2  C   UNL     1      -1.527   2.910  -5.768  0.00  0.00    +0.025 C 
ATOM      3  C   UNL     1      -2.754   3.322  -4.927  0.00  0.00    +0.088 C 
ATOM      4  N   UNL     1      -3.830   3.679  -5.870  0.00  0.00    -0.298 NA
ATOM      5  C   UNL     1      -3.316   3.532  -7.248  0.00  0.00    +0.085 C 
ATOM      6  C   UNL     1      -5.017   2.841  -5.657  0.00  0.00    +0.105 C 
ENDROOT
BRANCH   3   7
ATOM      7  C   UNL     1      -2.410   4.509  -4.065  0.00  0.00    -0.012 A 
ATOM      8  C   UNL     1      -3.225   4.864  -3.007  0.00  0.00    +0.115 A 
ATOM      9  N   UNL     1      -2.932   5.902  -2.248  0.00  0.00    -0.263 NA
ATOM     10  C   UNL     1      -1.859   6.638  -2.465  0.00  0.00    +0.111 A 
ATOM     11  C   UNL     1      -0.997   6.343  -3.504  0.00  0.00    +0.020 A 
ATOM     12  C   UNL     1      -1.270   5.256  -4.320  0.00  0.00    +0.008 A 
ENDBRANCH   3   7
TORSDOF 1
ENDMDL
MODEL 7
REMARK VINA RESULT:    -4.278      3.463      5.273
REMARK INTER + INTRA:          -4.746
REMARK INTER:                  -4.525
REMARK INTRA:                  -0.220
REMARK UNBOUND:                -0.218
REMARK  Name = Nicotine.pdb
REMARK  2 active torsions:
REMARK  status: ('A' for Active; 'I' for Inactive)
REMARK    1  A    between atoms: C_3  and  C_6
REMARK    2  A    between atoms: N_4  and  C_12
REMARK                            x       y       z     vdW  Elec       q    Type
REMARK                         _______ _______ _______ _____ _____    ______ ____
ROOT
ATOM      1  C   UNL     1      -2.668  -1.936  -4.293  0.00  0.00    +0.017 C 
ATOM      2  C   UNL     1      -2.037  -0.564  -4.649  0.00  0.00    +0.025 C 
ATOM      3  C   UNL     1      -3.181   0.430  -4.358  0.00  0.00    +0.088 C 
ATOM      4  N   UNL     1      -4.444  -0.328  -4.416  0.00  0.00    -0.298 NA
ATOM      5  C   UNL     1      -4.134  -1.734  -4.752  0.00  0.00    +0.085 C 
ATOM      6  C   UNL     1      -5.170  -0.239  -3.143  0.00  0.00    +0.105 C 
ENDROOT
BRANCH   3   7
ATOM      7  C   UNL     1      -3.188   1.521  -5.398  0.00  0.00    -0.012 A 
ATOM      8  C   UNL     1      -4.304   2.319  -5.565  0.00  0.00    +0.115 A 
ATOM      9  N   UNL     1      -4.319   3.276  -6.473  0.00  0.00    -0.263 NA
ATOM     10  C   UNL     1      -3.281   3.509  -7.251  0.00  0.00    +0.111 A 
ATOM     11  C   UNL     1      -2.130   2.751  -7.141  0.00  0.00    +0.020 A 
ATOM     12  C   UNL     1      -2.075   1.740  -6.195  0.00  0.00    +0.008 A 
ENDBRANCH   3   7
TORSDOF 1
ENDMDL
MODEL 8
REMARK VINA RESULT:    -4.167      1.930      4.442
REMARK INTER + INTRA:          -4.628
REMARK INTER:                  -4.408
REMARK INTRA:                  -0.220
REMARK UNBOUND:                -0.218
REMARK  Name = Nicotine.pdb
REMARK  2 active torsions:
REMARK  status: ('A' for Active; 'I' for Inactive)
REMARK    1  A    between atoms: C_3  and  C_6
REMARK    2  A    between atoms: N_4  and  C_12
REMARK                            x       y       z     vdW  Elec       q    Type
REMARK                         _______ _______ _______ _____ _____    ______ ____
ROOT
ATOM      1  C   UNL     1      -5.098   1.485  -3.396  0.00  0.00    +0.017 C 
ATOM      2  C   UNL     1      -4.558   2.842  -2.873  0.00  0.00    +0.025 C 
ATOM      3  C   UNL     1      -4.279   3.629  -4.171  0.00  0.00    +0.088 C 
ATOM      4  N   UNL     1      -4.115   2.642  -5.253  0.00  0.00    -0.298 NA
ATOM      5  C   UNL     1      -4.254   1.286  -4.680  0.00  0.00    +0.085 C 
ATOM      6  C   UNL     1      -5.096   2.865  -6.323  0.00  0.00    +0.105 C 
ENDROOT
BRANCH   3   7
ATOM      7  C   UNL     1      -3.018   4.439  -4.018  0.00  0.00    -0.012 A 
ATOM      8  C   UNL     1      -2.066   4.447  -5.020  0.00  0.00    +0.115 A 
ATOM      9  N   UNL     1      -0.960   5.153  -4.895  0.00  0.00    -0.263 NA
ATOM     10  C   UNL     1      -0.717   5.875  -3.819  0.00  0.00    +0.111 A 
ATOM     11  C   UNL     1      -1.623   5.917  -2.775  0.00  0.00    +0.020 A 
ATOM     12  C   UNL     1      -2.800   5.191  -2.874  0.00  0.00    +0.008 A 
ENDBRANCH   3   7
TORSDOF 1
ENDMDL
MODEL 9
REMARK VINA RESULT:    -4.143      1.712      2.511
REMARK INTER + INTRA:          -4.602
REMARK INTER:                  -4.399
REMARK INTRA:                  -0.203
REMARK UNBOUND:                -0.218
REMARK  Name = Nicotine.pdb
REMARK  2 active torsions:
REMARK  status: ('A' for Active; 'I' for Inactive)
REMARK    1  A    between atoms: C_3  and  C_6
REMARK    2  A    between atoms: N_4  and  C_12
REMARK                            x       y       z     vdW  Elec       q    Type
REMARK                         _______ _______ _______ _____ _____    ______ ____
ROOT
ATOM      1  C   UNL     1      -2.983   5.771  -4.099  0.00  0.00    +0.017 C 
ATOM      2  C   UNL     1      -2.185   4.457  -3.891  0.00  0.00    +0.025 C 
ATOM      3  C   UNL     1      -2.460   3.675  -5.194  0.00  0.00    +0.088 C 
ATOM      4  N   UNL     1      -3.707   4.210  -5.770  0.00  0.00    -0.298 NA
ATOM      5  C   UNL     1      -4.225   5.265  -4.873  0.00  0.00    +0.085 C 
ATOM      6  C   UNL     1      -3.480   4.734  -7.123  0.00  0.00    +0.105 C 
ENDROOT
BRANCH   3   7
ATOM      7  C   UNL     1      -2.623   2.209  -4.887  0.00  0.00    -0.012 A 
ATOM      8  C   UNL     1      -1.677   1.296  -5.313  0.00  0.00    +0.115 A 
ATOM      9  N   UNL     1      -1.812   0.011  -5.049  0.00  0.00    -0.263 NA
ATOM     10  C   UNL     1      -2.845  -0.453  -4.374  0.00  0.00    +0.111 A 
ATOM     11  C   UNL     1      -3.831   0.401  -3.915  0.00  0.00    +0.020 A 
ATOM     12  C   UNL     1      -3.721   1.759  -4.169  0.00  0.00    +0.008 A 
ENDBRANCH   3   7
TORSDOF 1
ENDMDL
MODEL 10
REMARK VINA RESULT:    -4.102      1.794      2.603
REMARK INTER + INTRA:          -4.560
REMARK INTER:                  -4.345
REMARK INTRA:                  -0.215
REMARK UNBOUND:                -0.218
REMARK  Name = Nicotine.pdb
REMARK  2 active torsions:
REMARK  status: ('A' for Active; 'I' for Inactive)
REMARK    1  A    between atoms: C_3  and  C_6
REMARK    2  A    between atoms: N_4  and  C_12
REMARK                            x       y       z     vdW  Elec       q    Type
REMARK                         _______ _______ _______ _____ _____    ______ ____
ROOT
ATOM      1  C   UNL     1      -3.595   6.982  -2.596  0.00  0.00    +0.017 C 
ATOM      2  C   UNL     1      -4.202   6.134  -3.744  0.00  0.00    +0.025 C 
ATOM      3  C   UNL     1      -3.566   4.745  -3.522  0.00  0.00    +0.088 C 
ATOM      4  N   UNL     1      -2.332   4.949  -2.743  0.00  0.00    -0.298 NA
ATOM      5  C   UNL     1      -2.164   6.397  -2.497  0.00  0.00    +0.085 C 
ATOM      6  C   UNL     1      -2.376   4.200  -1.480  0.00  0.00    +0.105 C 
ENDROOT
BRANCH   3   7
ATOM      7  C   UNL     1      -3.237   4.114  -4.851  0.00  0.00    -0.012 A 
ATOM      8  C   UNL     1      -2.111   3.324  -4.990  0.00  0.00    +0.115 A 
ATOM      9  N   UNL     1      -1.816   2.768  -6.149  0.00  0.00    -0.263 NA
ATOM     10  C   UNL     1      -2.575   2.940  -7.213  0.00  0.00    +0.111 A 
ATOM     11  C   UNL     1      -3.718   3.716  -7.150  0.00  0.00    +0.020 A 
ATOM     12  C   UNL     1      -4.063   4.313  -5.947  0.00  0.00    +0.008 A 
ENDBRANCH   3   7
TORSDOF 1
ENDMDL
