MODEL 1
REMARK VINA RESULT:    -3.558      0.000      0.000
REMARK INTER + INTRA:          -3.983
REMARK INTER:                  -3.766
REMARK INTRA:                  -0.217
REMARK UNBOUND:                -0.217
REMARK  Name = Nicotine.pdb
REMARK  2 active torsions:
REMARK  status: ('A' for Active; 'I' for Inactive)
REMARK    1  A    between atoms: C_3  and  C_6
REMARK    2  A    between atoms: N_4  and  C_12
REMARK                            x       y       z     vdW  Elec       q    Type
REMARK                         _______ _______ _______ _____ _____    ______ ____
ROOT
ATOM      1  C   UNL     1       9.530  -1.844   2.982  0.00  0.00    +0.017 C 
ATOM      2  C   UNL     1       8.333  -1.752   3.964  0.00  0.00    +0.025 C 
ATOM      3  C   UNL     1       8.493  -3.022   4.827  0.00  0.00    +0.088 C 
ATOM      4  N   UNL     1       9.298  -3.980   4.049  0.00  0.00    -0.298 NA
ATOM      5  C   UNL     1       9.619  -3.372   2.740  0.00  0.00    +0.085 C 
ATOM      6  C   UNL     1      10.521  -4.351   4.772  0.00  0.00    +0.105 C 
ENDROOT
BRANCH   3   7
ATOM      7  C   UNL     1       7.140  -3.611   5.128  0.00  0.00    -0.012 A 
ATOM      8  C   UNL     1       6.955  -4.981   5.112  0.00  0.00    +0.115 A 
ATOM      9  N   UNL     1       5.773  -5.505   5.374  0.00  0.00    -0.263 NA
ATOM     10  C   UNL     1       4.729  -4.753   5.659  0.00  0.00    +0.111 A 
ATOM     11  C   UNL     1       4.838  -3.375   5.694  0.00  0.00    +0.020 A 
ATOM     12  C   UNL     1       6.065  -2.788   5.429  0.00  0.00    +0.008 A 
ENDBRANCH   3   7
TORSDOF 1
ENDMDL
MODEL 2
REMARK VINA RESULT:    -3.441      1.111      1.658
REMARK INTER + INTRA:          -3.859
REMARK INTER:                  -3.608
REMARK INTRA:                  -0.251
REMARK UNBOUND:                -0.217
REMARK  Name = Nicotine.pdb
REMARK  2 active torsions:
REMARK  status: ('A' for Active; 'I' for Inactive)
REMARK    1  A    between atoms: C_3  and  C_6
REMARK    2  A    between atoms: N_4  and  C_12
REMARK                            x       y       z     vdW  Elec       q    Type
REMARK                         _______ _______ _______ _____ _____    ______ ____
ROOT
ATOM      1  C   UNL     1       8.957  -0.266   5.089  0.00  0.00    +0.017 C 
ATOM      2  C   UNL     1       8.330  -1.390   5.956  0.00  0.00    +0.025 C 
ATOM      3  C   UNL     1       8.394  -2.621   5.028  0.00  0.00    +0.088 C 
ATOM      4  N   UNL     1       8.483  -2.121   3.644  0.00  0.00    -0.298 NA
ATOM      5  C   UNL     1       8.451  -0.643   3.675  0.00  0.00    +0.085 C 
ATOM      6  C   UNL     1       9.702  -2.608   2.985  0.00  0.00    +0.105 C 
ENDROOT
BRANCH   3   7
ATOM      7  C   UNL     1       7.150  -3.455   5.194  0.00  0.00    -0.012 A 
ATOM      8  C   UNL     1       7.223  -4.834   5.157  0.00  0.00    +0.115 A 
ATOM      9  N   UNL     1       6.138  -5.571   5.302  0.00  0.00    -0.263 NA
ATOM     10  C   UNL     1       4.951  -5.028   5.486  0.00  0.00    +0.111 A 
ATOM     11  C   UNL     1       4.801  -3.655   5.534  0.00  0.00    +0.020 A 
ATOM     12  C   UNL     1       5.919  -2.848   5.391  0.00  0.00    +0.008 A 
ENDBRANCH   3   7
TORSDOF 1
ENDMDL
MODEL 3
REMARK VINA RESULT:    -3.059      5.366      6.968
REMARK INTER + INTRA:          -3.455
REMARK INTER:                  -3.240
REMARK INTRA:                  -0.215
REMARK UNBOUND:                -0.217
REMARK  Name = Nicotine.pdb
REMARK  2 active torsions:
REMARK  status: ('A' for Active; 'I' for Inactive)
REMARK    1  A    between atoms: C_3  and  C_6
REMARK    2  A    between atoms: N_4  and  C_12
REMARK                            x       y       z     vdW  Elec       q    Type
REMARK                         _______ _______ _______ _____ _____    ______ ____
ROOT
ATOM      1  C   UNL     1      10.416   1.473  -0.457  0.00  0.00    +0.017 C 
ATOM      2  C   UNL     1      10.754   0.068   0.108  0.00  0.00    +0.025 C 
ATOM      3  C   UNL     1      10.747  -0.824  -1.152  0.00  0.00    +0.088 C 
ATOM      4  N   UNL     1       9.933  -0.135  -2.170  0.00  0.00    -0.298 NA
ATOM      5  C   UNL     1       9.418   1.123  -1.589  0.00  0.00    +0.085 C 
ATOM      6  C   UNL     1      10.717   0.127  -3.384  0.00  0.00    +0.105 C 
ENDROOT
BRANCH   3   7
ATOM      7  C   UNL     1      10.139  -2.164  -0.829  0.00  0.00    -0.012 A 
ATOM      8  C   UNL     1       9.474  -2.884  -1.803  0.00  0.00    +0.115 A 
ATOM      9  N   UNL     1       8.940  -4.058  -1.529  0.00  0.00    -0.263 NA
ATOM     10  C   UNL     1       9.016  -4.589  -0.325  0.00  0.00    +0.111 A 
ATOM     11  C   UNL     1       9.666  -3.928   0.701  0.00  0.00    +0.020 A 
ATOM     12  C   UNL     1      10.245  -2.694   0.448  0.00  0.00    +0.008 A 
ENDBRANCH   3   7
TORSDOF 1
ENDMDL
MODEL 4
REMARK VINA RESULT:    -2.926      1.933      3.051
REMARK INTER + INTRA:          -3.314
REMARK INTER:                  -3.086
REMARK INTRA:                  -0.227
REMARK UNBOUND:                -0.217
REMARK  Name = Nicotine.pdb
REMARK  2 active torsions:
REMARK  status: ('A' for Active; 'I' for Inactive)
REMARK    1  A    between atoms: C_3  and  C_6
REMARK    2  A    between atoms: N_4  and  C_12
REMARK                            x       y       z     vdW  Elec       q    Type
REMARK                         _______ _______ _______ _____ _____    ______ ____
ROOT
ATOM      1  C   UNL     1      10.399  -3.094  -0.003  0.00  0.00    +0.017 C 
ATOM      2  C   UNL     1      10.266  -2.339   1.345  0.00  0.00    +0.025 C 
ATOM      3  C   UNL     1      10.140  -3.483   2.373  0.00  0.00    +0.088 C 
ATOM      4  N   UNL     1       9.665  -4.674   1.646  0.00  0.00    -0.298 NA
ATOM      5  C   UNL     1       9.468  -4.310   0.226  0.00  0.00    +0.085 C 
ATOM      6  C   UNL     1      10.615  -5.786   1.778  0.00  0.00    +0.105 C 
ENDROOT
BRANCH   3   7
ATOM      7  C   UNL     1       9.150  -3.105   3.443  0.00  0.00    -0.012 A 
ATOM      8  C   UNL     1       8.721  -4.044   4.363  0.00  0.00    +0.115 A 
ATOM      9  N   UNL     1       7.854  -3.722   5.303  0.00  0.00    -0.263 NA
ATOM     10  C   UNL     1       7.364  -2.502   5.404  0.00  0.00    +0.111 A 
ATOM     11  C   UNL     1       7.746  -1.510   4.520  0.00  0.00    +0.020 A 
ATOM     12  C   UNL     1       8.660  -1.810   3.522  0.00  0.00    +0.008 A 
ENDBRANCH   3   7
TORSDOF 1
ENDMDL
MODEL 5
REMARK VINA RESULT:    -2.846      4.431      6.616
REMARK INTER + INTRA:          -3.230
REMARK INTER:                  -2.984
REMARK INTRA:                  -0.246
REMARK UNBOUND:                -0.217
REMARK  Name = Nicotine.pdb
REMARK  2 active torsions:
REMARK  status: ('A' for Active; 'I' for Inactive)
REMARK    1  A    between atoms: C_3  and  C_6
REMARK    2  A    between atoms: N_4  and  C_12
REMARK                            x       y       z     vdW  Elec       q    Type
REMARK                         _______ _______ _______ _____ _____    ______ ____
ROOT
ATOM      1  C   UNL     1       8.084  -5.644  -2.827  0.00  0.00    +0.017 C 
ATOM      2  C   UNL     1       7.920  -4.605  -1.686  0.00  0.00    +0.025 C 
ATOM      3  C   UNL     1       9.308  -3.931  -1.630  0.00  0.00    +0.088 C 
ATOM      4  N   UNL     1      10.274  -4.867  -2.232  0.00  0.00    -0.298 NA
ATOM      5  C   UNL     1       9.553  -6.094  -2.632  0.00  0.00    +0.085 C 
ATOM      6  C   UNL     1      10.954  -4.256  -3.381  0.00  0.00    +0.105 C 
ENDROOT
BRANCH   3   7
ATOM      7  C   UNL     1       9.684  -3.653  -0.198  0.00  0.00    -0.012 A 
ATOM      8  C   UNL     1      10.275  -2.453   0.149  0.00  0.00    +0.115 A 
ATOM      9  N   UNL     1      10.608  -2.201   1.401  0.00  0.00    -0.263 NA
ATOM     10  C   UNL     1      10.394  -3.076   2.364  0.00  0.00    +0.111 A 
ATOM     11  C   UNL     1       9.807  -4.298   2.092  0.00  0.00    +0.020 A 
ATOM     12  C   UNL     1       9.439  -4.595   0.789  0.00  0.00    +0.008 A 
ENDBRANCH   3   7
TORSDOF 1
ENDMDL
MODEL 6
REMARK VINA RESULT:    -2.797      1.637      4.679
REMARK INTER + INTRA:          -3.178
REMARK INTER:                  -2.923
REMARK INTRA:                  -0.255
REMARK UNBOUND:                -0.217
REMARK  Name = Nicotine.pdb
REMARK  2 active torsions:
REMARK  status: ('A' for Active; 'I' for Inactive)
REMARK    1  A    between atoms: C_3  and  C_6
REMARK    2  A    between atoms: N_4  and  C_12
REMARK                            x       y       z     vdW  Elec       q    Type
REMARK                         _______ _______ _______ _____ _____    ______ ____
ROOT
ATOM      1  C   UNL     1       6.280  -5.710   6.111  0.00  0.00    +0.017 C 
ATOM      2  C   UNL     1       7.529  -4.790   6.097  0.00  0.00    +0.025 C 
ATOM      3  C   UNL     1       6.919  -3.380   5.951  0.00  0.00    +0.088 C 
ATOM      4  N   UNL     1       5.578  -3.542   5.363  0.00  0.00    -0.298 NA
ATOM      5  C   UNL     1       5.343  -4.981   5.116  0.00  0.00    +0.085 C 
ATOM      6  C   UNL     1       4.545  -2.983   6.244  0.00  0.00    +0.105 C 
ENDROOT
BRANCH   3   7
ATOM      7  C   UNL     1       7.780  -2.540   5.043  0.00  0.00    -0.012 A 
ATOM      8  C   UNL     1       7.849  -1.171   5.215  0.00  0.00    +0.115 A 
ATOM      9  N   UNL     1       8.600  -0.428   4.425  0.00  0.00    -0.263 NA
ATOM     10  C   UNL     1       9.310  -0.956   3.447  0.00  0.00    +0.111 A 
ATOM     11  C   UNL     1       9.292  -2.319   3.215  0.00  0.00    +0.020 A 
ATOM     12  C   UNL     1       8.518  -3.132   4.029  0.00  0.00    +0.008 A 
ENDBRANCH   3   7
TORSDOF 1
ENDMDL
MODEL 7
REMARK VINA RESULT:    -2.741      3.570      6.073
REMARK INTER + INTRA:          -3.118
REMARK INTER:                  -2.927
REMARK INTRA:                  -0.191
REMARK UNBOUND:                -0.217
REMARK  Name = Nicotine.pdb
REMARK  2 active torsions:
REMARK  status: ('A' for Active; 'I' for Inactive)
REMARK    1  A    between atoms: C_3  and  C_6
REMARK    2  A    between atoms: N_4  and  C_12
REMARK                            x       y       z     vdW  Elec       q    Type
REMARK                         _______ _______ _______ _____ _____    ______ ____
ROOT
ATOM      1  C   UNL     1       7.595  -1.916   4.941  0.00  0.00    +0.017 C 
ATOM      2  C   UNL     1       7.925  -1.179   3.617  0.00  0.00    +0.025 C 
ATOM      3  C   UNL     1       9.366  -0.677   3.848  0.00  0.00    +0.088 C 
ATOM      4  N   UNL     1       9.580  -0.619   5.305  0.00  0.00    -0.298 NA
ATOM      5  C   UNL     1       8.333  -1.036   5.981  0.00  0.00    +0.085 C 
ATOM      6  C   UNL     1      10.707  -1.470   5.706  0.00  0.00    +0.105 C 
ENDROOT
BRANCH   3   7
ATOM      7  C   UNL     1       9.533   0.695   3.248  0.00  0.00    -0.012 A 
ATOM      8  C   UNL     1       9.452   1.821   4.046  0.00  0.00    +0.115 A 
ATOM      9  N   UNL     1       9.597   3.026   3.529  0.00  0.00    -0.263 NA
ATOM     10  C   UNL     1       9.823   3.205   2.243  0.00  0.00    +0.111 A 
ATOM     11  C   UNL     1       9.917   2.127   1.383  0.00  0.00    +0.020 A 
ATOM     12  C   UNL     1       9.775   0.845   1.891  0.00  0.00    +0.008 A 
ENDBRANCH   3   7
TORSDOF 1
ENDMDL
MODEL 8
REMARK VINA RESULT:    -2.668      3.700      5.297
REMARK INTER + INTRA:          -3.041
REMARK INTER:                  -2.820
REMARK INTRA:                  -0.221
REMARK UNBOUND:                -0.217
REMARK  Name = Nicotine.pdb
REMARK  2 active torsions:
REMARK  status: ('A' for Active; 'I' for Inactive)
REMARK    1  A    between atoms: C_3  and  C_6
REMARK    2  A    between atoms: N_4  and  C_12
REMARK                            x       y       z     vdW  Elec       q    Type
REMARK                         _______ _______ _______ _____ _____    ______ ____
ROOT
ATOM      1  C   UNL     1      10.378   2.361   1.568  0.00  0.00    +0.017 C 
ATOM      2  C   UNL     1       9.451   1.154   1.870  0.00  0.00    +0.025 C 
ATOM      3  C   UNL     1       8.866   1.503   3.254  0.00  0.00    +0.088 C 
ATOM      4  N   UNL     1       9.791   2.458   3.892  0.00  0.00    -0.298 NA
ATOM      5  C   UNL     1      10.929   2.692   2.977  0.00  0.00    +0.085 C 
ATOM      6  C   UNL     1       9.108   3.716   4.217  0.00  0.00    +0.105 C 
ENDROOT
BRANCH   3   7
ATOM      7  C   UNL     1       8.755   0.257   4.093  0.00  0.00    -0.012 A 
ATOM      8  C   UNL     1       9.464   0.143   5.274  0.00  0.00    +0.115 A 
ATOM      9  N   UNL     1       9.372  -0.944   6.014  0.00  0.00    -0.263 NA
ATOM     10  C   UNL     1       8.608  -1.959   5.663  0.00  0.00    +0.111 A 
ATOM     11  C   UNL     1       7.868  -1.918   4.495  0.00  0.00    +0.020 A 
ATOM     12  C   UNL     1       7.935  -0.788   3.694  0.00  0.00    +0.008 A 
ENDBRANCH   3   7
TORSDOF 1
ENDMDL
MODEL 9
REMARK VINA RESULT:    -2.635      2.803      5.498
REMARK INTER + INTRA:          -3.005
REMARK INTER:                  -2.766
REMARK INTRA:                  -0.239
REMARK UNBOUND:                -0.217
REMARK  Name = Nicotine.pdb
REMARK  2 active torsions:
REMARK  status: ('A' for Active; 'I' for Inactive)
REMARK    1  A    between atoms: C_3  and  C_6
REMARK    2  A    between atoms: N_4  and  C_12
REMARK                            x       y       z     vdW  Elec       q    Type
REMARK                         _______ _______ _______ _____ _____    ______ ____
ROOT
ATOM      1  C   UNL     1       8.880  -3.861   4.489  0.00  0.00    +0.017 C 
ATOM      2  C   UNL     1       9.477  -4.417   3.169  0.00  0.00    +0.025 C 
ATOM      3  C   UNL     1      10.097  -3.164   2.514  0.00  0.00    +0.088 C 
ATOM      4  N   UNL     1       9.418  -1.989   3.089  0.00  0.00    -0.298 NA
ATOM      5  C   UNL     1       8.394  -2.458   4.046  0.00  0.00    +0.085 C 
ATOM      6  C   UNL     1      10.380  -1.093   3.744  0.00  0.00    +0.105 C 
ENDROOT
BRANCH   3   7
ATOM      7  C   UNL     1       9.881  -3.205   1.024  0.00  0.00    -0.012 A 
ATOM      8  C   UNL     1      10.335  -2.174   0.223  0.00  0.00    +0.115 A 
ATOM      9  N   UNL     1      10.150  -2.202  -1.082  0.00  0.00    -0.263 NA
ATOM     10  C   UNL     1       9.530  -3.204  -1.673  0.00  0.00    +0.111 A 
ATOM     11  C   UNL     1       9.049  -4.271  -0.937  0.00  0.00    +0.020 A 
ATOM     12  C   UNL     1       9.230  -4.279   0.437  0.00  0.00    +0.008 A 
ENDBRANCH   3   7
TORSDOF 1
ENDMDL
MODEL 10
REMARK VINA RESULT:    -2.591      1.980      4.482
REMARK INTER + INTRA:          -2.959
REMARK INTER:                  -2.771
REMARK INTRA:                  -0.189
REMARK UNBOUND:                -0.217
REMARK  Name = Nicotine.pdb
REMARK  2 active torsions:
REMARK  status: ('A' for Active; 'I' for Inactive)
REMARK    1  A    between atoms: C_3  and  C_6
REMARK    2  A    between atoms: N_4  and  C_12
REMARK                            x       y       z     vdW  Elec       q    Type
REMARK                         _______ _______ _______ _____ _____    ______ ____
ROOT
ATOM      1  C   UNL     1       7.055  -3.608   6.053  0.00  0.00    +0.017 C 
ATOM      2  C   UNL     1       8.177  -4.377   5.306  0.00  0.00    +0.025 C 
ATOM      3  C   UNL     1       9.005  -3.244   4.663  0.00  0.00    +0.088 C 
ATOM      4  N   UNL     1       8.127  -2.064   4.563  0.00  0.00    -0.298 NA
ATOM      5  C   UNL     1       6.794  -2.423   5.090  0.00  0.00    +0.085 C 
ATOM      6  C   UNL     1       8.693  -0.923   5.295  0.00  0.00    +0.105 C 
ENDROOT
BRANCH   3   7
ATOM      7  C   UNL     1       9.464  -3.660   3.289  0.00  0.00    -0.012 A 
ATOM      8  C   UNL     1       9.803  -4.976   3.035  0.00  0.00    +0.115 A 
ATOM      9  N   UNL     1      10.206  -5.349   1.835  0.00  0.00    -0.263 NA
ATOM     10  C   UNL     1      10.301  -4.491   0.839  0.00  0.00    +0.111 A 
ATOM     11  C   UNL     1       9.979  -3.159   1.018  0.00  0.00    +0.020 A 
ATOM     12  C   UNL     1       9.547  -2.731   2.264  0.00  0.00    +0.008 A 
ENDBRANCH   3   7
TORSDOF 1
ENDMDL
