MODEL 1
REMARK VINA RESULT:    -1.656      0.000      0.000
REMARK INTER + INTRA:          -1.948
REMARK INTER:                  -1.753
REMARK INTRA:                  -0.195
REMARK UNBOUND:                -0.195
REMARK  Name = Nicotine.pdb
REMARK  2 active torsions:
REMARK  status: ('A' for Active; 'I' for Inactive)
REMARK    1  A    between atoms: C_3  and  C_6
REMARK    2  A    between atoms: N_4  and  C_12
REMARK                            x       y       z     vdW  Elec       q    Type
REMARK                         _______ _______ _______ _____ _____    ______ ____
ROOT
ATOM      1  C   UNL     1       9.491  -3.222  -4.229  0.00  0.00    +0.017 C 
ATOM      2  C   UNL     1       8.771  -1.981  -4.819  0.00  0.00    +0.025 C 
ATOM      3  C   UNL     1       9.472  -1.789  -6.181  0.00  0.00    +0.088 C 
ATOM      4  N   UNL     1      10.787  -2.448  -6.093  0.00  0.00    -0.298 NA
ATOM      5  C   UNL     1      10.940  -3.014  -4.736  0.00  0.00    +0.085 C 
ATOM      6  C   UNL     1      10.923  -3.491  -7.118  0.00  0.00    +0.105 C 
ENDROOT
BRANCH   3   7
ATOM      7  C   UNL     1       9.651  -0.319  -6.462  0.00  0.00    -0.012 A 
ATOM      8  C   UNL     1       8.639   0.576  -6.173  0.00  0.00    +0.115 A 
ATOM      9  N   UNL     1       8.788   1.864  -6.416  0.00  0.00    -0.263 NA
ATOM     10  C   UNL     1       9.897   2.347  -6.940  0.00  0.00    +0.111 A 
ATOM     11  C   UNL     1      10.953   1.512  -7.254  0.00  0.00    +0.020 A 
ATOM     12  C   UNL     1      10.835   0.152  -7.008  0.00  0.00    +0.008 A 
ENDBRANCH   3   7
TORSDOF 1
ENDMDL
MODEL 2
REMARK VINA RESULT:     0.038      1.335      4.548
REMARK INTER + INTRA:          -0.155
REMARK INTER:                   0.024
REMARK INTRA:                  -0.178
REMARK UNBOUND:                -0.195
REMARK  Name = Nicotine.pdb
REMARK  2 active torsions:
REMARK  status: ('A' for Active; 'I' for Inactive)
REMARK    1  A    between atoms: C_3  and  C_6
REMARK    2  A    between atoms: N_4  and  C_12
REMARK                            x       y       z     vdW  Elec       q    Type
REMARK                         _______ _______ _______ _____ _____    ______ ____
ROOT
ATOM      1  C   UNL     1      10.040   1.331  -7.006  0.00  0.00    +0.017 C 
ATOM      2  C   UNL     1      10.743  -0.041  -7.182  0.00  0.00    +0.025 C 
ATOM      3  C   UNL     1       9.571  -1.042  -7.120  0.00  0.00    +0.088 C 
ATOM      4  N   UNL     1       8.464  -0.376  -6.410  0.00  0.00    -0.298 NA
ATOM      5  C   UNL     1       8.908   0.977  -6.010  0.00  0.00    +0.085 C 
ATOM      6  C   UNL     1       7.262  -0.309  -7.252  0.00  0.00    +0.105 C 
ENDROOT
BRANCH   3   7
ATOM      7  C   UNL     1       9.992  -2.279  -6.370  0.00  0.00    -0.012 A 
ATOM      8  C   UNL     1       9.794  -2.370  -5.005  0.00  0.00    +0.115 A 
ATOM      9  N   UNL     1      10.160  -3.449  -4.341  0.00  0.00    -0.263 NA
ATOM     10  C   UNL     1      10.724  -4.477  -4.945  0.00  0.00    +0.111 A 
ATOM     11  C   UNL     1      10.953  -4.458  -6.308  0.00  0.00    +0.020 A 
ATOM     12  C   UNL     1      10.577  -3.342  -7.040  0.00  0.00    +0.008 A 
ENDBRANCH   3   7
TORSDOF 1
ENDMDL
MODEL 3
REMARK VINA RESULT:     0.833      1.400      4.499
REMARK INTER + INTRA:           0.687
REMARK INTER:                   0.900
REMARK INTRA:                  -0.213
REMARK UNBOUND:                -0.195
REMARK  Name = Nicotine.pdb
REMARK  2 active torsions:
REMARK  status: ('A' for Active; 'I' for Inactive)
REMARK    1  A    between atoms: C_3  and  C_6
REMARK    2  A    between atoms: N_4  and  C_12
REMARK                            x       y       z     vdW  Elec       q    Type
REMARK                         _______ _______ _______ _____ _____    ______ ____
ROOT
ATOM      1  C   UNL     1       7.893   0.195  -5.835  0.00  0.00    +0.017 C 
ATOM      2  C   UNL     1       8.497  -1.027  -5.095  0.00  0.00    +0.025 C 
ATOM      3  C   UNL     1       9.914  -1.132  -5.696  0.00  0.00    +0.088 C 
ATOM      4  N   UNL     1       9.886  -0.451  -7.003  0.00  0.00    -0.298 NA
ATOM      5  C   UNL     1       8.514   0.045  -7.246  0.00  0.00    +0.085 C 
ATOM      6  C   UNL     1      10.859   0.647  -7.046  0.00  0.00    +0.105 C 
ENDROOT
BRANCH   3   7
ATOM      7  C   UNL     1      10.288  -2.580  -5.879  0.00  0.00    -0.012 A 
ATOM      8  C   UNL     1      10.316  -3.437  -4.795  0.00  0.00    +0.115 A 
ATOM      9  N   UNL     1      10.642  -4.706  -4.946  0.00  0.00    -0.263 NA
ATOM     10  C   UNL     1      10.952  -5.206  -6.126  0.00  0.00    +0.111 A 
ATOM     11  C   UNL     1      10.945  -4.410  -7.256  0.00  0.00    +0.020 A 
ATOM     12  C   UNL     1      10.602  -3.072  -7.137  0.00  0.00    +0.008 A 
ENDBRANCH   3   7
TORSDOF 1
ENDMDL
