MODEL 1
REMARK VINA RESULT:     0.000      0.000      0.000
REMARK INTER + INTRA:          -0.256
REMARK INTER:                   0.000
REMARK INTRA:                  -0.256
REMARK UNBOUND:                -0.256
REMARK  Name = Nicotine.pdb
REMARK  2 active torsions:
REMARK  status: ('A' for Active; 'I' for Inactive)
REMARK    1  A    between atoms: C_3  and  C_6
REMARK    2  A    between atoms: N_4  and  C_12
REMARK                            x       y       z     vdW  Elec       q    Type
REMARK                         _______ _______ _______ _____ _____    ______ ____
ROOT
ATOM      1  C   UNL     1       7.475  -1.131  -4.690  0.00  0.00    +0.017 C 
ATOM      2  C   UNL     1       7.549  -1.847  -3.316  0.00  0.00    +0.025 C 
ATOM      3  C   UNL     1       6.837  -3.190  -3.586  0.00  0.00    +0.088 C 
ATOM      4  N   UNL     1       5.968  -2.996  -4.760  0.00  0.00    -0.298 NA
ATOM      5  C   UNL     1       6.091  -1.593  -5.210  0.00  0.00    +0.085 C 
ATOM      6  C   UNL     1       6.322  -3.928  -5.838  0.00  0.00    +0.105 C 
ENDROOT
BRANCH   3   7
ATOM      7  C   UNL     1       6.007  -3.579  -2.390  0.00  0.00    -0.012 A 
ATOM      8  C   UNL     1       5.639  -4.897  -2.194  0.00  0.00    +0.115 A 
ATOM      9  N   UNL     1       4.912  -5.246  -1.150  0.00  0.00    -0.263 NA
ATOM     10  C   UNL     1       4.510  -4.362  -0.259  0.00  0.00    +0.111 A 
ATOM     11  C   UNL     1       4.841  -3.026  -0.388  0.00  0.00    +0.020 A 
ATOM     12  C   UNL     1       5.608  -2.622  -1.470  0.00  0.00    +0.008 A 
ENDBRANCH   3   7
TORSDOF 1
ENDMDL
MODEL 2
REMARK VINA RESULT:     0.000      5.266      6.580
REMARK INTER + INTRA:          -0.256
REMARK INTER:                   0.000
REMARK INTRA:                  -0.256
REMARK UNBOUND:                -0.256
REMARK  Name = Nicotine.pdb
REMARK  2 active torsions:
REMARK  status: ('A' for Active; 'I' for Inactive)
REMARK    1  A    between atoms: C_3  and  C_6
REMARK    2  A    between atoms: N_4  and  C_12
REMARK                            x       y       z     vdW  Elec       q    Type
REMARK                         _______ _______ _______ _____ _____    ______ ____
ROOT
ATOM      1  C   UNL     1       6.294   0.582  -2.242  0.00  0.00    +0.017 C 
ATOM      2  C   UNL     1       4.817   1.011  -2.038  0.00  0.00    +0.025 C 
ATOM      3  C   UNL     1       4.289   1.135  -3.483  0.00  0.00    +0.088 C 
ATOM      4  N   UNL     1       5.456   1.337  -4.359  0.00  0.00    -0.298 NA
ATOM      5  C   UNL     1       6.674   1.369  -3.522  0.00  0.00    +0.085 C 
ATOM      6  C   UNL     1       5.542   0.279  -5.375  0.00  0.00    +0.105 C 
ENDROOT
BRANCH   3   7
ATOM      7  C   UNL     1       3.356   2.314  -3.588  0.00  0.00    -0.012 A 
ATOM      8  C   UNL     1       2.433   2.385  -4.614  0.00  0.00    +0.115 A 
ATOM      9  N   UNL     1       1.613   3.413  -4.713  0.00  0.00    -0.263 NA
ATOM     10  C   UNL     1       1.640   4.407  -3.848  0.00  0.00    +0.111 A 
ATOM     11  C   UNL     1       2.537   4.405  -2.796  0.00  0.00    +0.020 A 
ATOM     12  C   UNL     1       3.410   3.338  -2.656  0.00  0.00    +0.008 A 
ENDBRANCH   3   7
TORSDOF 1
ENDMDL
MODEL 3
REMARK VINA RESULT:     0.000      8.215      9.954
REMARK INTER + INTRA:          -0.256
REMARK INTER:                   0.000
REMARK INTRA:                  -0.256
REMARK UNBOUND:                -0.256
REMARK  Name = Nicotine.pdb
REMARK  2 active torsions:
REMARK  status: ('A' for Active; 'I' for Inactive)
REMARK    1  A    between atoms: C_3  and  C_6
REMARK    2  A    between atoms: N_4  and  C_12
REMARK                            x       y       z     vdW  Elec       q    Type
REMARK                         _______ _______ _______ _____ _____    ______ ____
ROOT
ATOM      1  C   UNL     1       0.368  -2.319   3.340  0.00  0.00    +0.017 C 
ATOM      2  C   UNL     1       0.399  -0.913   3.996  0.00  0.00    +0.025 C 
ATOM      3  C   UNL     1      -0.655  -0.129   3.186  0.00  0.00    +0.088 C 
ATOM      4  N   UNL     1      -0.809  -0.813   1.890  0.00  0.00    -0.298 NA
ATOM      5  C   UNL     1       0.118  -1.964   1.852  0.00  0.00    +0.085 C 
ATOM      6  C   UNL     1      -2.196  -1.246   1.683  0.00  0.00    +0.105 C 
ENDROOT
BRANCH   3   7
ATOM      7  C   UNL     1      -0.186   1.286   2.968  0.00  0.00    -0.012 A 
ATOM      8  C   UNL     1      -1.093   2.287   2.676  0.00  0.00    +0.115 A 
ATOM      9  N   UNL     1      -0.691   3.528   2.484  0.00  0.00    -0.263 NA
ATOM     10  C   UNL     1       0.582   3.864   2.562  0.00  0.00    +0.111 A 
ATOM     11  C   UNL     1       1.547   2.917   2.851  0.00  0.00    +0.020 A 
ATOM     12  C   UNL     1       1.161   1.603   3.065  0.00  0.00    +0.008 A 
ENDBRANCH   3   7
TORSDOF 1
ENDMDL
MODEL 4
REMARK VINA RESULT:     0.000      7.285      8.368
REMARK INTER + INTRA:          -0.256
REMARK INTER:                   0.000
REMARK INTRA:                  -0.256
REMARK UNBOUND:                -0.256
REMARK  Name = Nicotine.pdb
REMARK  2 active torsions:
REMARK  status: ('A' for Active; 'I' for Inactive)
REMARK    1  A    between atoms: C_3  and  C_6
REMARK    2  A    between atoms: N_4  and  C_12
REMARK                            x       y       z     vdW  Elec       q    Type
REMARK                         _______ _______ _______ _____ _____    ______ ____
ROOT
ATOM      1  C   UNL     1       0.602   1.757  -3.082  0.00  0.00    +0.017 C 
ATOM      2  C   UNL     1       1.369   2.089  -1.775  0.00  0.00    +0.025 C 
ATOM      3  C   UNL     1       1.739   3.576  -1.958  0.00  0.00    +0.088 C 
ATOM      4  N   UNL     1       1.713   3.858  -3.404  0.00  0.00    -0.298 NA
ATOM      5  C   UNL     1       1.370   2.612  -4.121  0.00  0.00    +0.085 C 
ATOM      6  C   UNL     1       0.754   4.926  -3.716  0.00  0.00    +0.105 C 
ENDROOT
BRANCH   3   7
ATOM      7  C   UNL     1       3.119   3.832  -1.409  0.00  0.00    -0.012 A 
ATOM      8  C   UNL     1       3.503   5.111  -1.052  0.00  0.00    +0.115 A 
ATOM      9  N   UNL     1       4.708   5.344  -0.571  0.00  0.00    -0.263 NA
ATOM     10  C   UNL     1       5.590   4.377  -0.411  0.00  0.00    +0.111 A 
ATOM     11  C   UNL     1       5.277   3.072  -0.746  0.00  0.00    +0.020 A 
ATOM     12  C   UNL     1       4.017   2.788  -1.250  0.00  0.00    +0.008 A 
ENDBRANCH   3   7
TORSDOF 1
ENDMDL
MODEL 5
REMARK VINA RESULT:     0.000      9.669     11.034
REMARK INTER + INTRA:          -0.256
REMARK INTER:                   0.000
REMARK INTRA:                  -0.256
REMARK UNBOUND:                -0.256
REMARK  Name = Nicotine.pdb
REMARK  2 active torsions:
REMARK  status: ('A' for Active; 'I' for Inactive)
REMARK    1  A    between atoms: C_3  and  C_6
REMARK    2  A    between atoms: N_4  and  C_12
REMARK                            x       y       z     vdW  Elec       q    Type
REMARK                         _______ _______ _______ _____ _____    ______ ____
ROOT
ATOM      1  C   UNL     1       0.883   6.790   3.030  0.00  0.00    +0.017 C 
ATOM      2  C   UNL     1      -0.130   6.056   2.111  0.00  0.00    +0.025 C 
ATOM      3  C   UNL     1       0.701   4.886   1.544  0.00  0.00    +0.088 C 
ATOM      4  N   UNL     1       2.122   5.265   1.655  0.00  0.00    -0.298 NA
ATOM      5  C   UNL     1       2.203   6.621   2.238  0.00  0.00    +0.085 C 
ATOM      6  C   UNL     1       2.864   4.294   2.469  0.00  0.00    +0.105 C 
ENDROOT
BRANCH   3   7
ATOM      7  C   UNL     1       0.342   4.655   0.099  0.00  0.00    -0.012 A 
ATOM      8  C   UNL     1       0.597   3.435  -0.498  0.00  0.00    +0.115 A 
ATOM      9  N   UNL     1       0.285   3.225  -1.762  0.00  0.00    -0.263 NA
ATOM     10  C   UNL     1      -0.277   4.160  -2.503  0.00  0.00    +0.111 A 
ATOM     11  C   UNL     1      -0.562   5.405  -1.973  0.00  0.00    +0.020 A 
ATOM     12  C   UNL     1      -0.254   5.661  -0.646  0.00  0.00    +0.008 A 
ENDBRANCH   3   7
TORSDOF 1
ENDMDL
MODEL 6
REMARK VINA RESULT:     0.000      3.369      4.387
REMARK INTER + INTRA:          -0.256
REMARK INTER:                   0.000
REMARK INTRA:                  -0.256
REMARK UNBOUND:                -0.256
REMARK  Name = Nicotine.pdb
REMARK  2 active torsions:
REMARK  status: ('A' for Active; 'I' for Inactive)
REMARK    1  A    between atoms: C_3  and  C_6
REMARK    2  A    between atoms: N_4  and  C_12
REMARK                            x       y       z     vdW  Elec       q    Type
REMARK                         _______ _______ _______ _____ _____    ______ ____
ROOT
ATOM      1  C   UNL     1       3.231   1.777  -0.531  0.00  0.00    +0.017 C 
ATOM      2  C   UNL     1       4.044   0.495  -0.209  0.00  0.00    +0.025 C 
ATOM      3  C   UNL     1       3.834  -0.374  -1.467  0.00  0.00    +0.088 C 
ATOM      4  N   UNL     1       2.601   0.097  -2.123  0.00  0.00    -0.298 NA
ATOM      5  C   UNL     1       2.029   1.196  -1.317  0.00  0.00    +0.085 C 
ATOM      6  C   UNL     1       2.871   0.538  -3.498  0.00  0.00    +0.105 C 
ENDROOT
BRANCH   3   7
ATOM      7  C   UNL     1       3.686  -1.820  -1.072  0.00  0.00    -0.012 A 
ATOM      8  C   UNL     1       3.926  -2.824  -1.992  0.00  0.00    +0.115 A 
ATOM      9  N   UNL     1       3.798  -4.093  -1.654  0.00  0.00    -0.263 NA
ATOM     10  C   UNL     1       3.440  -4.454  -0.438  0.00  0.00    +0.111 A 
ATOM     11  C   UNL     1       3.183  -3.506   0.535  0.00  0.00    +0.020 A 
ATOM     12  C   UNL     1       3.312  -2.162   0.218  0.00  0.00    +0.008 A 
ENDBRANCH   3   7
TORSDOF 1
ENDMDL
MODEL 7
REMARK VINA RESULT:     0.000      2.633      4.227
REMARK INTER + INTRA:          -0.256
REMARK INTER:                   0.000
REMARK INTRA:                  -0.256
REMARK UNBOUND:                -0.256
REMARK  Name = Nicotine.pdb
REMARK  2 active torsions:
REMARK  status: ('A' for Active; 'I' for Inactive)
REMARK    1  A    between atoms: C_3  and  C_6
REMARK    2  A    between atoms: N_4  and  C_12
REMARK                            x       y       z     vdW  Elec       q    Type
REMARK                         _______ _______ _______ _____ _____    ______ ____
ROOT
ATOM      1  C   UNL     1       4.792  -0.091  -1.550  0.00  0.00    +0.017 C 
ATOM      2  C   UNL     1       3.647  -0.702  -2.399  0.00  0.00    +0.025 C 
ATOM      3  C   UNL     1       4.020  -2.199  -2.461  0.00  0.00    +0.088 C 
ATOM      4  N   UNL     1       5.468  -2.299  -2.203  0.00  0.00    -0.298 NA
ATOM      5  C   UNL     1       6.007  -0.935  -2.010  0.00  0.00    +0.085 C 
ATOM      6  C   UNL     1       5.737  -3.142  -1.031  0.00  0.00    +0.105 C 
ENDROOT
BRANCH   3   7
ATOM      7  C   UNL     1       3.703  -2.750  -3.827  0.00  0.00    -0.012 A 
ATOM      8  C   UNL     1       3.527  -4.109  -4.008  0.00  0.00    +0.115 A 
ATOM      9  N   UNL     1       3.248  -4.600  -5.200  0.00  0.00    -0.263 NA
ATOM     10  C   UNL     1       3.127  -3.824  -6.258  0.00  0.00    +0.111 A 
ATOM     11  C   UNL     1       3.289  -2.455  -6.154  0.00  0.00    +0.020 A 
ATOM     12  C   UNL     1       3.577  -1.902  -4.916  0.00  0.00    +0.008 A 
ENDBRANCH   3   7
TORSDOF 1
ENDMDL
MODEL 8
REMARK VINA RESULT:     0.000      2.538      3.952
REMARK INTER + INTRA:          -0.256
REMARK INTER:                   0.000
REMARK INTRA:                  -0.256
REMARK UNBOUND:                -0.256
REMARK  Name = Nicotine.pdb
REMARK  2 active torsions:
REMARK  status: ('A' for Active; 'I' for Inactive)
REMARK    1  A    between atoms: C_3  and  C_6
REMARK    2  A    between atoms: N_4  and  C_12
REMARK                            x       y       z     vdW  Elec       q    Type
REMARK                         _______ _______ _______ _____ _____    ______ ____
ROOT
ATOM      1  C   UNL     1       2.725  -1.512  -0.531  0.00  0.00    +0.017 C 
ATOM      2  C   UNL     1       4.146  -1.714  -1.121  0.00  0.00    +0.025 C 
ATOM      3  C   UNL     1       3.925  -2.801  -2.194  0.00  0.00    +0.088 C 
ATOM      4  N   UNL     1       2.692  -3.525  -1.835  0.00  0.00    -0.298 NA
ATOM      5  C   UNL     1       2.157  -2.952  -0.581  0.00  0.00    +0.085 C 
ATOM      6  C   UNL     1       1.700  -3.444  -2.916  0.00  0.00    +0.105 C 
ENDROOT
BRANCH   3   7
ATOM      7  C   UNL     1       5.093  -3.752  -2.208  0.00  0.00    -0.012 A 
ATOM      8  C   UNL     1       5.355  -4.522  -3.325  0.00  0.00    +0.115 A 
ATOM      9  N   UNL     1       6.375  -5.357  -3.346  0.00  0.00    -0.263 NA
ATOM     10  C   UNL     1       7.181  -5.492  -2.311  0.00  0.00    +0.111 A 
ATOM     11  C   UNL     1       6.983  -4.754  -1.159  0.00  0.00    +0.020 A 
ATOM     12  C   UNL     1       5.923  -3.862  -1.102  0.00  0.00    +0.008 A 
ENDBRANCH   3   7
TORSDOF 1
ENDMDL
MODEL 9
REMARK VINA RESULT:     0.000      9.180      9.787
REMARK INTER + INTRA:          -0.256
REMARK INTER:                   0.000
REMARK INTRA:                  -0.256
REMARK UNBOUND:                -0.256
REMARK  Name = Nicotine.pdb
REMARK  2 active torsions:
REMARK  status: ('A' for Active; 'I' for Inactive)
REMARK    1  A    between atoms: C_3  and  C_6
REMARK    2  A    between atoms: N_4  and  C_12
REMARK                            x       y       z     vdW  Elec       q    Type
REMARK                         _______ _______ _______ _____ _____    ______ ____
ROOT
ATOM      1  C   UNL     1       1.256   4.338  -4.072  0.00  0.00    +0.017 C 
ATOM      2  C   UNL     1       0.460   4.296  -2.741  0.00  0.00    +0.025 C 
ATOM      3  C   UNL     1      -0.261   2.933  -2.810  0.00  0.00    +0.088 C 
ATOM      4  N   UNL     1      -0.335   2.550  -4.232  0.00  0.00    -0.298 NA
ATOM      5  C   UNL     1       0.282   3.622  -5.041  0.00  0.00    +0.085 C 
ATOM      6  C   UNL     1       0.332   1.262  -4.466  0.00  0.00    +0.105 C 
ENDROOT
BRANCH   3   7
ATOM      7  C   UNL     1      -1.649   3.057  -2.239  0.00  0.00    -0.012 A 
ATOM      8  C   UNL     1      -2.321   1.938  -1.785  0.00  0.00    +0.115 A 
ATOM      9  N   UNL     1      -3.537   2.038  -1.283  0.00  0.00    -0.263 NA
ATOM     10  C   UNL     1      -4.156   3.198  -1.194  0.00  0.00    +0.111 A 
ATOM     11  C   UNL     1      -3.546   4.361  -1.626  0.00  0.00    +0.020 A 
ATOM     12  C   UNL     1      -2.266   4.296  -2.155  0.00  0.00    +0.008 A 
ENDBRANCH   3   7
TORSDOF 1
ENDMDL
MODEL 10
REMARK VINA RESULT:     0.000      7.442      8.112
REMARK INTER + INTRA:          -0.256
REMARK INTER:                   0.000
REMARK INTRA:                  -0.256
REMARK UNBOUND:                -0.256
REMARK  Name = Nicotine.pdb
REMARK  2 active torsions:
REMARK  status: ('A' for Active; 'I' for Inactive)
REMARK    1  A    between atoms: C_3  and  C_6
REMARK    2  A    between atoms: N_4  and  C_12
REMARK                            x       y       z     vdW  Elec       q    Type
REMARK                         _______ _______ _______ _____ _____    ______ ____
ROOT
ATOM      1  C   UNL     1       0.684   2.037  -3.003  0.00  0.00    +0.017 C 
ATOM      2  C   UNL     1      -0.061   1.595  -1.716  0.00  0.00    +0.025 C 
ATOM      3  C   UNL     1      -0.266   0.081  -1.936  0.00  0.00    +0.088 C 
ATOM      4  N   UNL     1      -0.190  -0.164  -3.387  0.00  0.00    -0.298 NA
ATOM      5  C   UNL     1       0.026   1.129  -4.072  0.00  0.00    +0.085 C 
ATOM      6  C   UNL     1       0.882  -1.115  -3.706  0.00  0.00    +0.105 C 
ENDROOT
BRANCH   3   7
ATOM      7  C   UNL     1      -1.617  -0.334  -1.415  0.00  0.00    -0.012 A 
ATOM      8  C   UNL     1      -1.866  -1.654  -1.091  0.00  0.00    +0.115 A 
ATOM      9  N   UNL     1      -3.046  -2.026  -0.634  0.00  0.00    -0.263 NA
ATOM     10  C   UNL     1      -4.029  -1.163  -0.468  0.00  0.00    +0.111 A 
ATOM     11  C   UNL     1      -3.854   0.175  -0.771  0.00  0.00    +0.020 A 
ATOM     12  C   UNL     1      -2.625   0.604  -1.248  0.00  0.00    +0.008 A 
ENDBRANCH   3   7
TORSDOF 1
ENDMDL
