MODEL 1
REMARK VINA RESULT:    -4.087      0.000      0.000
REMARK INTER + INTRA:          -4.510
REMARK INTER:                  -4.325
REMARK INTRA:                  -0.184
REMARK UNBOUND:                -0.184
REMARK  Name = Nicotine.pdb
REMARK  2 active torsions:
REMARK  status: ('A' for Active; 'I' for Inactive)
REMARK    1  A    between atoms: C_3  and  C_6
REMARK    2  A    between atoms: N_4  and  C_12
REMARK                            x       y       z     vdW  Elec       q    Type
REMARK                         _______ _______ _______ _____ _____    ______ ____
ROOT
ATOM      1  C   UNL     1       1.989  -2.787  -6.627  0.00  0.00    +0.017 C 
ATOM      2  C   UNL     1       2.354  -3.899  -5.608  0.00  0.00    +0.025 C 
ATOM      3  C   UNL     1       1.084  -4.776  -5.582  0.00  0.00    +0.088 C 
ATOM      4  N   UNL     1      -0.035  -3.939  -6.051  0.00  0.00    -0.298 NA
ATOM      5  C   UNL     1       0.480  -2.583  -6.340  0.00  0.00    +0.085 C 
ATOM      6  C   UNL     1      -0.671  -4.525  -7.238  0.00  0.00    +0.105 C 
ENDROOT
BRANCH   3   7
ATOM      7  C   UNL     1       0.817  -5.250  -4.177  0.00  0.00    -0.012 A 
ATOM      8  C   UNL     1       1.851  -5.352  -3.266  0.00  0.00    +0.115 A 
ATOM      9  N   UNL     1       1.626  -5.766  -2.034  0.00  0.00    -0.263 NA
ATOM     10  C   UNL     1       0.418  -6.097  -1.624  0.00  0.00    +0.111 A 
ATOM     11  C   UNL     1      -0.665  -6.020  -2.479  0.00  0.00    +0.020 A 
ATOM     12  C   UNL     1      -0.469  -5.584  -3.780  0.00  0.00    +0.008 A 
ENDBRANCH   3   7
TORSDOF 1
ENDMDL
MODEL 2
REMARK VINA RESULT:    -3.165      1.443      4.582
REMARK INTER + INTRA:          -3.535
REMARK INTER:                  -3.280
REMARK INTRA:                  -0.255
REMARK UNBOUND:                -0.184
REMARK  Name = Nicotine.pdb
REMARK  2 active torsions:
REMARK  status: ('A' for Active; 'I' for Inactive)
REMARK    1  A    between atoms: C_3  and  C_6
REMARK    2  A    between atoms: N_4  and  C_12
REMARK                            x       y       z     vdW  Elec       q    Type
REMARK                         _______ _______ _______ _____ _____    ______ ____
ROOT
ATOM      1  C   UNL     1      -0.220  -6.097  -2.867  0.00  0.00    +0.017 C 
ATOM      2  C   UNL     1      -0.297  -5.575  -4.327  0.00  0.00    +0.025 C 
ATOM      3  C   UNL     1       1.182  -5.299  -4.674  0.00  0.00    +0.088 C 
ATOM      4  N   UNL     1       1.903  -5.118  -3.402  0.00  0.00    -0.298 NA
ATOM      5  C   UNL     1       0.937  -5.244  -2.290  0.00  0.00    +0.085 C 
ATOM      6  C   UNL     1       2.990  -6.096  -3.268  0.00  0.00    +0.105 C 
ENDROOT
BRANCH   3   7
ATOM      7  C   UNL     1       1.287  -4.049  -5.508  0.00  0.00    -0.012 A 
ATOM      8  C   UNL     1       2.312  -3.904  -6.425  0.00  0.00    +0.115 A 
ATOM      9  N   UNL     1       2.411  -2.813  -7.159  0.00  0.00    -0.263 NA
ATOM     10  C   UNL     1       1.547  -1.823  -7.050  0.00  0.00    +0.111 A 
ATOM     11  C   UNL     1       0.496  -1.897  -6.155  0.00  0.00    +0.020 A 
ATOM     12  C   UNL     1       0.356  -3.031  -5.370  0.00  0.00    +0.008 A 
ENDBRANCH   3   7
TORSDOF 1
ENDMDL
MODEL 3
REMARK VINA RESULT:    -2.892      1.149      4.679
REMARK INTER + INTRA:          -3.245
REMARK INTER:                  -3.030
REMARK INTRA:                  -0.215
REMARK UNBOUND:                -0.184
REMARK  Name = Nicotine.pdb
REMARK  2 active torsions:
REMARK  status: ('A' for Active; 'I' for Inactive)
REMARK    1  A    between atoms: C_3  and  C_6
REMARK    2  A    between atoms: N_4  and  C_12
REMARK                            x       y       z     vdW  Elec       q    Type
REMARK                         _______ _______ _______ _____ _____    ______ ____
ROOT
ATOM      1  C   UNL     1      -0.028  -6.090  -2.315  0.00  0.00    +0.017 C 
ATOM      2  C   UNL     1      -0.315  -5.740  -3.799  0.00  0.00    +0.025 C 
ATOM      3  C   UNL     1       1.095  -5.483  -4.373  0.00  0.00    +0.088 C 
ATOM      4  N   UNL     1       1.974  -5.147  -3.239  0.00  0.00    -0.298 NA
ATOM      5  C   UNL     1       1.169  -5.159  -1.999  0.00  0.00    +0.085 C 
ATOM      6  C   UNL     1       3.099  -6.087  -3.146  0.00  0.00    +0.105 C 
ENDROOT
BRANCH   3   7
ATOM      7  C   UNL     1       1.051  -4.335  -5.347  0.00  0.00    -0.012 A 
ATOM      8  C   UNL     1       0.068  -3.368  -5.244  0.00  0.00    +0.115 A 
ATOM      9  N   UNL     1       0.022  -2.360  -6.093  0.00  0.00    -0.263 NA
ATOM     10  C   UNL     1       0.902  -2.232  -7.066  0.00  0.00    +0.111 A 
ATOM     11  C   UNL     1       1.914  -3.159  -7.231  0.00  0.00    +0.020 A 
ATOM     12  C   UNL     1       1.998  -4.230  -6.354  0.00  0.00    +0.008 A 
ENDBRANCH   3   7
TORSDOF 1
ENDMDL
MODEL 4
REMARK VINA RESULT:    -1.840      1.287      2.311
REMARK INTER + INTRA:          -2.132
REMARK INTER:                  -1.936
REMARK INTRA:                  -0.196
REMARK UNBOUND:                -0.184
REMARK  Name = Nicotine.pdb
REMARK  2 active torsions:
REMARK  status: ('A' for Active; 'I' for Inactive)
REMARK    1  A    between atoms: C_3  and  C_6
REMARK    2  A    between atoms: N_4  and  C_12
REMARK                            x       y       z     vdW  Elec       q    Type
REMARK                         _______ _______ _______ _____ _____    ______ ____
ROOT
ATOM      1  C   UNL     1       0.841  -5.608  -7.022  0.00  0.00    +0.017 C 
ATOM      2  C   UNL     1       0.138  -6.095  -5.728  0.00  0.00    +0.025 C 
ATOM      3  C   UNL     1       0.219  -4.861  -4.804  0.00  0.00    +0.088 C 
ATOM      4  N   UNL     1       1.331  -4.024  -5.289  0.00  0.00    -0.298 NA
ATOM      5  C   UNL     1       1.954  -4.695  -6.450  0.00  0.00    +0.085 C 
ATOM      6  C   UNL     1       0.861  -2.679  -5.647  0.00  0.00    +0.105 C 
ENDROOT
BRANCH   3   7
ATOM      7  C   UNL     1       0.484  -5.298  -3.387  0.00  0.00    -0.012 A 
ATOM      8  C   UNL     1      -0.564  -5.636  -2.552  0.00  0.00    +0.115 A 
ATOM      9  N   UNL     1      -0.340  -6.020  -1.310  0.00  0.00    -0.263 NA
ATOM     10  C   UNL     1       0.881  -6.096  -0.817  0.00  0.00    +0.111 A 
ATOM     11  C   UNL     1       1.978  -5.774  -1.593  0.00  0.00    +0.020 A 
ATOM     12  C   UNL     1       1.783  -5.372  -2.906  0.00  0.00    +0.008 A 
ENDBRANCH   3   7
TORSDOF 1
ENDMDL
