MODEL 1
REMARK VINA RESULT:     7.992      0.000      0.000
REMARK INTER + INTRA:           8.244
REMARK INTER:                   8.460
REMARK INTRA:                  -0.215
REMARK UNBOUND:                -0.215
REMARK  Name = Nicotine.pdb
REMARK  2 active torsions:
REMARK  status: ('A' for Active; 'I' for Inactive)
REMARK    1  A    between atoms: C_3  and  C_6
REMARK    2  A    between atoms: N_4  and  C_12
REMARK                            x       y       z     vdW  Elec       q    Type
REMARK                         _______ _______ _______ _____ _____    ______ ____
ROOT
ATOM      1  C   UNL     1       9.630   2.629   0.781  0.00  0.00    +0.017 C 
ATOM      2  C   UNL     1      10.385   3.897   1.259  0.00  0.00    +0.025 C 
ATOM      3  C   UNL     1      10.954   3.466   2.628  0.00  0.00    +0.088 C 
ATOM      4  N   UNL     1      10.132   2.341   3.109  0.00  0.00    -0.298 NA
ATOM      5  C   UNL     1       9.069   2.076   2.115  0.00  0.00    +0.085 C 
ATOM      6  C   UNL     1      10.954   1.145   3.333  0.00  0.00    +0.105 C 
ENDROOT
BRANCH   3   7
ATOM      7  C   UNL     1      10.874   4.614   3.601  0.00  0.00    -0.012 A 
ATOM      8  C   UNL     1      10.753   4.374   4.956  0.00  0.00    +0.115 A 
ATOM      9  N   UNL     1      10.682   5.373   5.815  0.00  0.00    -0.263 NA
ATOM     10  C   UNL     1      10.724   6.630   5.420  0.00  0.00    +0.111 A 
ATOM     11  C   UNL     1      10.845   6.947   4.080  0.00  0.00    +0.020 A 
ATOM     12  C   UNL     1      10.927   5.923   3.149  0.00  0.00    +0.008 A 
ENDBRANCH   3   7
TORSDOF 1
ENDMDL
MODEL 2
REMARK VINA RESULT:     8.300      0.868      1.391
REMARK INTER + INTRA:           8.569
REMARK INTER:                   8.755
REMARK INTRA:                  -0.185
REMARK UNBOUND:                -0.215
REMARK  Name = Nicotine.pdb
REMARK  2 active torsions:
REMARK  status: ('A' for Active; 'I' for Inactive)
REMARK    1  A    between atoms: C_3  and  C_6
REMARK    2  A    between atoms: N_4  and  C_12
REMARK                            x       y       z     vdW  Elec       q    Type
REMARK                         _______ _______ _______ _____ _____    ______ ____
ROOT
ATOM      1  C   UNL     1       9.480   2.567   0.739  0.00  0.00    +0.017 C 
ATOM      2  C   UNL     1      10.289   3.837   1.113  0.00  0.00    +0.025 C 
ATOM      3  C   UNL     1      10.909   3.464   2.477  0.00  0.00    +0.088 C 
ATOM      4  N   UNL     1      10.081   2.391   3.054  0.00  0.00    -0.298 NA
ATOM      5  C   UNL     1       8.967   2.103   2.125  0.00  0.00    +0.085 C 
ATOM      6  C   UNL     1      10.881   1.186   3.307  0.00  0.00    +0.105 C 
ENDROOT
BRANCH   3   7
ATOM      7  C   UNL     1      10.903   4.665   3.387  0.00  0.00    -0.012 A 
ATOM      8  C   UNL     1      10.842   5.941   2.861  0.00  0.00    +0.115 A 
ATOM      9  N   UNL     1      10.837   6.997   3.652  0.00  0.00    -0.263 NA
ATOM     10  C   UNL     1      10.889   6.881   4.964  0.00  0.00    +0.111 A 
ATOM     11  C   UNL     1      10.952   5.636   5.562  0.00  0.00    +0.020 A 
ATOM     12  C   UNL     1      10.954   4.503   4.764  0.00  0.00    +0.008 A 
ENDBRANCH   3   7
TORSDOF 1
ENDMDL
