MODEL 1
REMARK VINA RESULT:    -2.643      0.000      0.000
REMARK INTER + INTRA:          -2.996
REMARK INTER:                  -2.797
REMARK INTRA:                  -0.199
REMARK UNBOUND:                -0.199
REMARK  Name = Nicotine.pdb
REMARK  2 active torsions:
REMARK  status: ('A' for Active; 'I' for Inactive)
REMARK    1  A    between atoms: C_3  and  C_6
REMARK    2  A    between atoms: N_4  and  C_12
REMARK                            x       y       z     vdW  Elec       q    Type
REMARK                         _______ _______ _______ _____ _____    ______ ____
ROOT
ATOM      1  C   UNL     1      10.873  -0.078  -3.875  0.00  0.00    +0.017 C 
ATOM      2  C   UNL     1      10.486  -0.852  -5.163  0.00  0.00    +0.025 C 
ATOM      3  C   UNL     1       9.553  -1.962  -4.634  0.00  0.00    +0.088 C 
ATOM      4  N   UNL     1       9.860  -2.146  -3.205  0.00  0.00    -0.298 NA
ATOM      5  C   UNL     1      10.954  -1.223  -2.835  0.00  0.00    +0.085 C 
ATOM      6  C   UNL     1       8.671  -1.913  -2.375  0.00  0.00    +0.105 C 
ENDROOT
BRANCH   3   7
ATOM      7  C   UNL     1       9.805  -3.244  -5.384  0.00  0.00    -0.012 A 
ATOM      8  C   UNL     1      10.726  -3.282  -6.414  0.00  0.00    +0.115 A 
ATOM      9  N   UNL     1      10.953  -4.400  -7.075  0.00  0.00    -0.263 NA
ATOM     10  C   UNL     1      10.316  -5.518  -6.785  0.00  0.00    +0.111 A 
ATOM     11  C   UNL     1       9.382  -5.557  -5.768  0.00  0.00    +0.020 A 
ATOM     12  C   UNL     1       9.121  -4.402  -5.047  0.00  0.00    +0.008 A 
ENDBRANCH   3   7
TORSDOF 1
ENDMDL
MODEL 2
REMARK VINA RESULT:    -1.971      1.490      4.453
REMARK INTER + INTRA:          -2.286
REMARK INTER:                  -2.116
REMARK INTRA:                  -0.170
REMARK UNBOUND:                -0.199
REMARK  Name = Nicotine.pdb
REMARK  2 active torsions:
REMARK  status: ('A' for Active; 'I' for Inactive)
REMARK    1  A    between atoms: C_3  and  C_6
REMARK    2  A    between atoms: N_4  and  C_12
REMARK                            x       y       z     vdW  Elec       q    Type
REMARK                         _______ _______ _______ _____ _____    ______ ____
ROOT
ATOM      1  C   UNL     1      10.798  -6.082  -6.342  0.00  0.00    +0.017 C 
ATOM      2  C   UNL     1      10.954  -5.130  -5.127  0.00  0.00    +0.025 C 
ATOM      3  C   UNL     1       9.508  -4.656  -4.870  0.00  0.00    +0.088 C 
ATOM      4  N   UNL     1       8.757  -4.840  -6.125  0.00  0.00    -0.298 NA
ATOM      5  C   UNL     1       9.677  -5.379  -7.149  0.00  0.00    +0.085 C 
ATOM      6  C   UNL     1       7.608  -5.732  -5.926  0.00  0.00    +0.105 C 
ENDROOT
BRANCH   3   7
ATOM      7  C   UNL     1       9.507  -3.201  -4.479  0.00  0.00    -0.012 A 
ATOM      8  C   UNL     1       9.609  -2.217  -5.444  0.00  0.00    +0.115 A 
ATOM      9  N   UNL     1       9.609  -0.941  -5.111  0.00  0.00    -0.263 NA
ATOM     10  C   UNL     1       9.513  -0.554  -3.854  0.00  0.00    +0.111 A 
ATOM     11  C   UNL     1       9.407  -1.480  -2.834  0.00  0.00    +0.020 A 
ATOM     12  C   UNL     1       9.399  -2.831  -3.147  0.00  0.00    +0.008 A 
ENDBRANCH   3   7
TORSDOF 1
ENDMDL
MODEL 3
REMARK VINA RESULT:    -1.664      1.352      2.380
REMARK INTER + INTRA:          -1.961
REMARK INTER:                  -1.762
REMARK INTRA:                  -0.199
REMARK UNBOUND:                -0.199
REMARK  Name = Nicotine.pdb
REMARK  2 active torsions:
REMARK  status: ('A' for Active; 'I' for Inactive)
REMARK    1  A    between atoms: C_3  and  C_6
REMARK    2  A    between atoms: N_4  and  C_12
REMARK                            x       y       z     vdW  Elec       q    Type
REMARK                         _______ _______ _______ _____ _____    ______ ____
ROOT
ATOM      1  C   UNL     1       8.718  -1.758  -2.010  0.00  0.00    +0.017 C 
ATOM      2  C   UNL     1       9.493  -2.951  -2.629  0.00  0.00    +0.025 C 
ATOM      3  C   UNL     1      10.502  -2.259  -3.569  0.00  0.00    +0.088 C 
ATOM      4  N   UNL     1       9.962  -0.924  -3.884  0.00  0.00    -0.298 NA
ATOM      5  C   UNL     1       8.658  -0.771  -3.203  0.00  0.00    +0.085 C 
ATOM      6  C   UNL     1      10.896   0.133  -3.476  0.00  0.00    +0.105 C 
ENDROOT
BRANCH   3   7
ATOM      7  C   UNL     1      10.657  -3.062  -4.835  0.00  0.00    -0.012 A 
ATOM      8  C   UNL     1      10.817  -4.433  -4.777  0.00  0.00    +0.115 A 
ATOM      9  N   UNL     1      10.954  -5.143  -5.880  0.00  0.00    -0.263 NA
ATOM     10  C   UNL     1      10.944  -4.581  -7.072  0.00  0.00    +0.111 A 
ATOM     11  C   UNL     1      10.787  -3.214  -7.209  0.00  0.00    +0.020 A 
ATOM     12  C   UNL     1      10.636  -2.435  -6.072  0.00  0.00    +0.008 A 
ENDBRANCH   3   7
TORSDOF 1
ENDMDL
