MODEL 1
REMARK VINA RESULT:    -4.680      0.000      0.000
REMARK INTER + INTRA:          -5.169
REMARK INTER:                  -4.954
REMARK INTRA:                  -0.215
REMARK UNBOUND:                -0.215
REMARK  Name = Nicotine.pdb
REMARK  2 active torsions:
REMARK  status: ('A' for Active; 'I' for Inactive)
REMARK    1  A    between atoms: C_3  and  C_6
REMARK    2  A    between atoms: N_4  and  C_12
REMARK                            x       y       z     vdW  Elec       q    Type
REMARK                         _______ _______ _______ _____ _____    ______ ____
ROOT
ATOM      1  C   UNL     1       3.704   1.405  -5.756  0.00  0.00    +0.017 C 
ATOM      2  C   UNL     1       2.381   1.164  -4.983  0.00  0.00    +0.025 C 
ATOM      3  C   UNL     1       2.314  -0.374  -4.880  0.00  0.00    +0.088 C 
ATOM      4  N   UNL     1       3.156  -0.922  -5.959  0.00  0.00    -0.298 NA
ATOM      5  C   UNL     1       3.717   0.205  -6.735  0.00  0.00    +0.085 C 
ATOM      6  C   UNL     1       4.224  -1.771  -5.415  0.00  0.00    +0.105 C 
ENDROOT
BRANCH   3   7
ATOM      7  C   UNL     1       0.891  -0.838  -5.053  0.00  0.00    -0.012 A 
ATOM      8  C   UNL     1      -0.010  -0.076  -5.772  0.00  0.00    +0.115 A 
ATOM      9  N   UNL     1      -1.258  -0.474  -5.929  0.00  0.00    -0.263 NA
ATOM     10  C   UNL     1      -1.694  -1.606  -5.411  0.00  0.00    +0.111 A 
ATOM     11  C   UNL     1      -0.850  -2.421  -4.680  0.00  0.00    +0.020 A 
ATOM     12  C   UNL     1       0.470  -2.037  -4.499  0.00  0.00    +0.008 A 
ENDBRANCH   3   7
TORSDOF 1
ENDMDL
MODEL 2
REMARK VINA RESULT:    -4.568      1.253      4.759
REMARK INTER + INTRA:          -5.050
REMARK INTER:                  -4.836
REMARK INTRA:                  -0.215
REMARK UNBOUND:                -0.215
REMARK  Name = Nicotine.pdb
REMARK  2 active torsions:
REMARK  status: ('A' for Active; 'I' for Inactive)
REMARK    1  A    between atoms: C_3  and  C_6
REMARK    2  A    between atoms: N_4  and  C_12
REMARK                            x       y       z     vdW  Elec       q    Type
REMARK                         _______ _______ _______ _____ _____    ______ ____
ROOT
ATOM      1  C   UNL     1       0.015  -2.278  -4.777  0.00  0.00    +0.017 C 
ATOM      2  C   UNL     1       1.305  -1.593  -4.255  0.00  0.00    +0.025 C 
ATOM      3  C   UNL     1       1.284  -0.223  -4.966  0.00  0.00    +0.088 C 
ATOM      4  N   UNL     1       0.437  -0.366  -6.164  0.00  0.00    -0.298 NA
ATOM      5  C   UNL     1      -0.043  -1.763  -6.237  0.00  0.00    +0.085 C 
ATOM      6  C   UNL     1      -0.688   0.577  -6.129  0.00  0.00    +0.105 C 
ENDROOT
BRANCH   3   7
ATOM      7  C   UNL     1       2.683   0.167  -5.369  0.00  0.00    -0.012 A 
ATOM      8  C   UNL     1       3.699  -0.770  -5.362  0.00  0.00    +0.115 A 
ATOM      9  N   UNL     1       4.926  -0.437  -5.714  0.00  0.00    -0.263 NA
ATOM     10  C   UNL     1       5.232   0.792  -6.083  0.00  0.00    +0.111 A 
ATOM     11  C   UNL     1       4.267   1.782  -6.115  0.00  0.00    +0.020 A 
ATOM     12  C   UNL     1       2.965   1.468  -5.757  0.00  0.00    +0.008 A 
ENDBRANCH   3   7
TORSDOF 1
ENDMDL
MODEL 3
REMARK VINA RESULT:    -4.480      1.800      2.025
REMARK INTER + INTRA:          -4.957
REMARK INTER:                  -4.734
REMARK INTRA:                  -0.223
REMARK UNBOUND:                -0.215
REMARK  Name = Nicotine.pdb
REMARK  2 active torsions:
REMARK  status: ('A' for Active; 'I' for Inactive)
REMARK    1  A    between atoms: C_3  and  C_6
REMARK    2  A    between atoms: N_4  and  C_12
REMARK                            x       y       z     vdW  Elec       q    Type
REMARK                         _______ _______ _______ _____ _____    ______ ____
ROOT
ATOM      1  C   UNL     1       3.823   1.730  -6.004  0.00  0.00    +0.017 C 
ATOM      2  C   UNL     1       2.830   0.950  -5.103  0.00  0.00    +0.025 C 
ATOM      3  C   UNL     1       3.463  -0.455  -5.025  0.00  0.00    +0.088 C 
ATOM      4  N   UNL     1       4.346  -0.603  -6.196  0.00  0.00    -0.298 NA
ATOM      5  C   UNL     1       4.267   0.633  -7.003  0.00  0.00    +0.085 C 
ATOM      6  C   UNL     1       5.729  -0.875  -5.783  0.00  0.00    +0.105 C 
ENDROOT
BRANCH   3   7
ATOM      7  C   UNL     1       2.384  -1.507  -5.059  0.00  0.00    -0.012 A 
ATOM      8  C   UNL     1       2.428  -2.523  -5.994  0.00  0.00    +0.115 A 
ATOM      9  N   UNL     1       1.488  -3.447  -6.031  0.00  0.00    -0.263 NA
ATOM     10  C   UNL     1       0.476  -3.440  -5.186  0.00  0.00    +0.111 A 
ATOM     11  C   UNL     1       0.366  -2.455  -4.222  0.00  0.00    +0.020 A 
ATOM     12  C   UNL     1       1.338  -1.470  -4.150  0.00  0.00    +0.008 A 
ENDBRANCH   3   7
TORSDOF 1
ENDMDL
MODEL 4
REMARK VINA RESULT:    -4.468      1.598      4.291
REMARK INTER + INTRA:          -4.944
REMARK INTER:                  -4.715
REMARK INTRA:                  -0.229
REMARK UNBOUND:                -0.215
REMARK  Name = Nicotine.pdb
REMARK  2 active torsions:
REMARK  status: ('A' for Active; 'I' for Inactive)
REMARK    1  A    between atoms: C_3  and  C_6
REMARK    2  A    between atoms: N_4  and  C_12
REMARK                            x       y       z     vdW  Elec       q    Type
REMARK                         _______ _______ _______ _____ _____    ______ ____
ROOT
ATOM      1  C   UNL     1       0.392  -3.393  -4.883  0.00  0.00    +0.017 C 
ATOM      2  C   UNL     1       1.087  -2.108  -4.359  0.00  0.00    +0.025 C 
ATOM      3  C   UNL     1       0.298  -0.979  -5.056  0.00  0.00    +0.088 C 
ATOM      4  N   UNL     1      -0.338  -1.563  -6.251  0.00  0.00    -0.298 NA
ATOM      5  C   UNL     1       0.041  -2.989  -6.336  0.00  0.00    +0.085 C 
ATOM      6  C   UNL     1      -1.798  -1.408  -6.199  0.00  0.00    +0.105 C 
ENDROOT
BRANCH   3   7
ATOM      7  C   UNL     1       1.237   0.127  -5.462  0.00  0.00    -0.012 A 
ATOM      8  C   UNL     1       0.791   1.166  -6.259  0.00  0.00    +0.115 A 
ATOM      9  N   UNL     1       1.606   2.138  -6.619  0.00  0.00    -0.263 NA
ATOM     10  C   UNL     1       2.868   2.160  -6.239  0.00  0.00    +0.111 A 
ATOM     11  C   UNL     1       3.385   1.156  -5.441  0.00  0.00    +0.020 A 
ATOM     12  C   UNL     1       2.557   0.120  -5.038  0.00  0.00    +0.008 A 
ENDBRANCH   3   7
TORSDOF 1
ENDMDL
MODEL 5
REMARK VINA RESULT:    -4.358      1.265      2.189
REMARK INTER + INTRA:          -4.828
REMARK INTER:                  -4.622
REMARK INTRA:                  -0.206
REMARK UNBOUND:                -0.215
REMARK  Name = Nicotine.pdb
REMARK  2 active torsions:
REMARK  status: ('A' for Active; 'I' for Inactive)
REMARK    1  A    between atoms: C_3  and  C_6
REMARK    2  A    between atoms: N_4  and  C_12
REMARK                            x       y       z     vdW  Elec       q    Type
REMARK                         _______ _______ _______ _____ _____    ______ ____
ROOT
ATOM      1  C   UNL     1       3.698  -1.994  -5.486  0.00  0.00    +0.017 C 
ATOM      2  C   UNL     1       2.399  -2.259  -6.291  0.00  0.00    +0.025 C 
ATOM      3  C   UNL     1       1.560  -0.991  -6.025  0.00  0.00    +0.088 C 
ATOM      4  N   UNL     1       2.063  -0.389  -4.776  0.00  0.00    -0.298 NA
ATOM      5  C   UNL     1       3.151  -1.239  -4.249  0.00  0.00    +0.085 C 
ATOM      6  C   UNL     1       2.529   0.985  -5.004  0.00  0.00    +0.105 C 
ENDROOT
BRANCH   3   7
ATOM      7  C   UNL     1       0.108  -1.360  -5.869  0.00  0.00    -0.012 A 
ATOM      8  C   UNL     1      -0.825  -0.931  -6.794  0.00  0.00    +0.115 A 
ATOM      9  N   UNL     1      -2.098  -1.250  -6.666  0.00  0.00    -0.263 NA
ATOM     10  C   UNL     1      -2.531  -1.983  -5.659  0.00  0.00    +0.111 A 
ATOM     11  C   UNL     1      -1.657  -2.448  -4.695  0.00  0.00    +0.020 A 
ATOM     12  C   UNL     1      -0.310  -2.138  -4.800  0.00  0.00    +0.008 A 
ENDBRANCH   3   7
TORSDOF 1
ENDMDL
MODEL 6
REMARK VINA RESULT:    -4.299      1.402      1.711
REMARK INTER + INTRA:          -4.765
REMARK INTER:                  -4.582
REMARK INTRA:                  -0.183
REMARK UNBOUND:                -0.215
REMARK  Name = Nicotine.pdb
REMARK  2 active torsions:
REMARK  status: ('A' for Active; 'I' for Inactive)
REMARK    1  A    between atoms: C_3  and  C_6
REMARK    2  A    between atoms: N_4  and  C_12
REMARK                            x       y       z     vdW  Elec       q    Type
REMARK                         _______ _______ _______ _____ _____    ______ ____
ROOT
ATOM      1  C   UNL     1       4.021  -1.164  -5.021  0.00  0.00    +0.017 C 
ATOM      2  C   UNL     1       2.661  -1.259  -4.280  0.00  0.00    +0.025 C 
ATOM      3  C   UNL     1       1.898  -2.329  -5.091  0.00  0.00    +0.088 C 
ATOM      4  N   UNL     1       2.508  -2.378  -6.432  0.00  0.00    -0.298 NA
ATOM      5  C   UNL     1       3.590  -1.373  -6.494  0.00  0.00    +0.085 C 
ATOM      6  C   UNL     1       3.019  -3.722  -6.730  0.00  0.00    +0.105 C 
ENDROOT
BRANCH   3   7
ATOM      7  C   UNL     1       0.444  -1.950  -5.200  0.00  0.00    -0.012 A 
ATOM      8  C   UNL     1       0.078  -0.733  -5.744  0.00  0.00    +0.115 A 
ATOM      9  N   UNL     1      -1.192  -0.394  -5.844  0.00  0.00    -0.263 NA
ATOM     10  C   UNL     1      -2.157  -1.192  -5.433  0.00  0.00    +0.111 A 
ATOM     11  C   UNL     1      -1.868  -2.425  -4.879  0.00  0.00    +0.020 A 
ATOM     12  C   UNL     1      -0.543  -2.819  -4.762  0.00  0.00    +0.008 A 
ENDBRANCH   3   7
TORSDOF 1
ENDMDL
MODEL 7
REMARK VINA RESULT:    -4.163      1.694      4.581
REMARK INTER + INTRA:          -4.621
REMARK INTER:                  -4.416
REMARK INTRA:                  -0.205
REMARK UNBOUND:                -0.215
REMARK  Name = Nicotine.pdb
REMARK  2 active torsions:
REMARK  status: ('A' for Active; 'I' for Inactive)
REMARK    1  A    between atoms: C_3  and  C_6
REMARK    2  A    between atoms: N_4  and  C_12
REMARK                            x       y       z     vdW  Elec       q    Type
REMARK                         _______ _______ _______ _____ _____    ______ ____
ROOT
ATOM      1  C   UNL     1      -2.434  -2.853  -5.009  0.00  0.00    +0.017 C 
ATOM      2  C   UNL     1      -2.034  -1.372  -5.241  0.00  0.00    +0.025 C 
ATOM      3  C   UNL     1      -0.805  -1.485  -6.168  0.00  0.00    +0.088 C 
ATOM      4  N   UNL     1      -0.244  -2.836  -5.986  0.00  0.00    -0.298 NA
ATOM      5  C   UNL     1      -1.051  -3.549  -4.973  0.00  0.00    +0.085 C 
ATOM      6  C   UNL     1      -0.220  -3.572  -7.256  0.00  0.00    +0.105 C 
ENDROOT
BRANCH   3   7
ATOM      7  C   UNL     1       0.219  -0.447  -5.791  0.00  0.00    -0.012 A 
ATOM      8  C   UNL     1       1.384  -0.816  -5.145  0.00  0.00    +0.115 A 
ATOM      9  N   UNL     1       2.286   0.086  -4.812  0.00  0.00    -0.263 NA
ATOM     10  C   UNL     1       2.117   1.366  -5.077  0.00  0.00    +0.111 A 
ATOM     11  C   UNL     1       0.977   1.811  -5.722  0.00  0.00    +0.020 A 
ATOM     12  C   UNL     1       0.009   0.890  -6.092  0.00  0.00    +0.008 A 
ENDBRANCH   3   7
TORSDOF 1
ENDMDL
MODEL 8
REMARK VINA RESULT:    -4.075      1.820      2.529
REMARK INTER + INTRA:          -4.528
REMARK INTER:                  -4.329
REMARK INTRA:                  -0.199
REMARK UNBOUND:                -0.215
REMARK  Name = Nicotine.pdb
REMARK  2 active torsions:
REMARK  status: ('A' for Active; 'I' for Inactive)
REMARK    1  A    between atoms: C_3  and  C_6
REMARK    2  A    between atoms: N_4  and  C_12
REMARK                            x       y       z     vdW  Elec       q    Type
REMARK                         _______ _______ _______ _____ _____    ______ ____
ROOT
ATOM      1  C   UNL     1       0.849   1.220  -6.773  0.00  0.00    +0.017 C 
ATOM      2  C   UNL     1      -0.530   0.700  -6.289  0.00  0.00    +0.025 C 
ATOM      3  C   UNL     1      -0.159  -0.546  -5.457  0.00  0.00    +0.088 C 
ATOM      4  N   UNL     1       1.168  -0.996  -5.913  0.00  0.00    -0.298 NA
ATOM      5  C   UNL     1       1.620  -0.104  -7.002  0.00  0.00    +0.085 C 
ATOM      6  C   UNL     1       2.131  -1.005  -4.804  0.00  0.00    +0.105 C 
ENDROOT
BRANCH   3   7
ATOM      7  C   UNL     1      -1.177  -1.634  -5.681  0.00  0.00    -0.012 A 
ATOM      8  C   UNL     1      -1.589  -1.952  -6.962  0.00  0.00    +0.115 A 
ATOM      9  N   UNL     1      -2.479  -2.903  -7.167  0.00  0.00    -0.263 NA
ATOM     10  C   UNL     1      -3.008  -3.584  -6.170  0.00  0.00    +0.111 A 
ATOM     11  C   UNL     1      -2.644  -3.322  -4.862  0.00  0.00    +0.020 A 
ATOM     12  C   UNL     1      -1.707  -2.333  -4.608  0.00  0.00    +0.008 A 
ENDBRANCH   3   7
TORSDOF 1
ENDMDL
MODEL 9
REMARK VINA RESULT:    -3.909      1.458      2.415
REMARK INTER + INTRA:          -4.352
REMARK INTER:                  -4.146
REMARK INTRA:                  -0.206
REMARK UNBOUND:                -0.215
REMARK  Name = Nicotine.pdb
REMARK  2 active torsions:
REMARK  status: ('A' for Active; 'I' for Inactive)
REMARK    1  A    between atoms: C_3  and  C_6
REMARK    2  A    between atoms: N_4  and  C_12
REMARK                            x       y       z     vdW  Elec       q    Type
REMARK                         _______ _______ _______ _____ _____    ______ ____
ROOT
ATOM      1  C   UNL     1       3.483  -0.939  -4.632  0.00  0.00    +0.017 C 
ATOM      2  C   UNL     1       2.373  -1.960  -4.997  0.00  0.00    +0.025 C 
ATOM      3  C   UNL     1       1.542  -1.206  -6.057  0.00  0.00    +0.088 C 
ATOM      4  N   UNL     1       1.791   0.234  -5.863  0.00  0.00    -0.298 NA
ATOM      5  C   UNL     1       2.714   0.403  -4.721  0.00  0.00    +0.085 C 
ATOM      6  C   UNL     1       2.342   0.842  -7.081  0.00  0.00    +0.105 C 
ENDROOT
BRANCH   3   7
ATOM      7  C   UNL     1       0.077  -1.505  -5.867  0.00  0.00    -0.012 A 
ATOM      8  C   UNL     1      -0.344  -2.297  -4.816  0.00  0.00    +0.115 A 
ATOM      9  N   UNL     1      -1.624  -2.563  -4.643  0.00  0.00    -0.263 NA
ATOM     10  C   UNL     1      -2.547  -2.090  -5.457  0.00  0.00    +0.111 A 
ATOM     11  C   UNL     1      -2.201  -1.290  -6.530  0.00  0.00    +0.020 A 
ATOM     12  C   UNL     1      -0.865  -0.984  -6.741  0.00  0.00    +0.008 A 
ENDBRANCH   3   7
TORSDOF 1
ENDMDL
MODEL 10
REMARK VINA RESULT:    -3.614      2.549      4.073
REMARK INTER + INTRA:          -4.040
REMARK INTER:                  -3.813
REMARK INTRA:                  -0.226
REMARK UNBOUND:                -0.215
REMARK  Name = Nicotine.pdb
REMARK  2 active torsions:
REMARK  status: ('A' for Active; 'I' for Inactive)
REMARK    1  A    between atoms: C_3  and  C_6
REMARK    2  A    between atoms: N_4  and  C_12
REMARK                            x       y       z     vdW  Elec       q    Type
REMARK                         _______ _______ _______ _____ _____    ______ ____
ROOT
ATOM      1  C   UNL     1      -0.409   0.146  -6.263  0.00  0.00    +0.017 C 
ATOM      2  C   UNL     1      -1.748  -0.595  -6.006  0.00  0.00    +0.025 C 
ATOM      3  C   UNL     1      -1.311  -1.823  -5.179  0.00  0.00    +0.088 C 
ATOM      4  N   UNL     1       0.119  -2.050  -5.456  0.00  0.00    -0.298 NA
ATOM      5  C   UNL     1       0.576  -1.037  -6.431  0.00  0.00    +0.085 C 
ATOM      6  C   UNL     1       0.912  -1.988  -4.221  0.00  0.00    +0.105 C 
ENDROOT
BRANCH   3   7
ATOM      7  C   UNL     1      -2.112  -3.031  -5.592  0.00  0.00    -0.012 A 
ATOM      8  C   UNL     1      -2.808  -3.764  -4.650  0.00  0.00    +0.115 A 
ATOM      9  N   UNL     1      -3.511  -4.822  -5.003  0.00  0.00    -0.263 NA
ATOM     10  C   UNL     1      -3.580  -5.222  -6.257  0.00  0.00    +0.111 A 
ATOM     11  C   UNL     1      -2.910  -4.538  -7.255  0.00  0.00    +0.020 A 
ATOM     12  C   UNL     1      -2.164  -3.418  -6.923  0.00  0.00    +0.008 A 
ENDBRANCH   3   7
TORSDOF 1
ENDMDL
