MODEL 1
REMARK VINA RESULT:    -3.543      0.000      0.000
REMARK INTER + INTRA:          -3.969
REMARK INTER:                  -3.751
REMARK INTRA:                  -0.218
REMARK UNBOUND:                -0.218
REMARK  Name = Nicotine.pdb
REMARK  2 active torsions:
REMARK  status: ('A' for Active; 'I' for Inactive)
REMARK    1  A    between atoms: C_3  and  C_6
REMARK    2  A    between atoms: N_4  and  C_12
REMARK                            x       y       z     vdW  Elec       q    Type
REMARK                         _______ _______ _______ _____ _____    ______ ____
ROOT
ATOM      1  C   UNL     1       7.172  -2.196  -6.520  0.00  0.00    +0.017 C 
ATOM      2  C   UNL     1       5.807  -2.222  -7.256  0.00  0.00    +0.025 C 
ATOM      3  C   UNL     1       5.353  -0.748  -7.198  0.00  0.00    +0.088 C 
ATOM      4  N   UNL     1       6.065  -0.115  -6.073  0.00  0.00    -0.298 NA
ATOM      5  C   UNL     1       6.915  -1.134  -5.421  0.00  0.00    +0.085 C 
ATOM      6  C   UNL     1       6.868   1.025  -6.532  0.00  0.00    +0.105 C 
ENDROOT
BRANCH   3   7
ATOM      7  C   UNL     1       3.866  -0.678  -6.969  0.00  0.00    -0.012 A 
ATOM      8  C   UNL     1       3.284   0.485  -6.502  0.00  0.00    +0.115 A 
ATOM      9  N   UNL     1       1.983   0.555  -6.299  0.00  0.00    -0.263 NA
ATOM     10  C   UNL     1       1.189  -0.472  -6.531  0.00  0.00    +0.111 A 
ATOM     11  C   UNL     1       1.699  -1.668  -7.000  0.00  0.00    +0.020 A 
ATOM     12  C   UNL     1       3.062  -1.777  -7.230  0.00  0.00    +0.008 A 
ENDBRANCH   3   7
TORSDOF 1
ENDMDL
MODEL 2
REMARK VINA RESULT:    -3.243      1.435      2.325
REMARK INTER + INTRA:          -3.651
REMARK INTER:                  -3.429
REMARK INTRA:                  -0.222
REMARK UNBOUND:                -0.218
REMARK  Name = Nicotine.pdb
REMARK  2 active torsions:
REMARK  status: ('A' for Active; 'I' for Inactive)
REMARK    1  A    between atoms: C_3  and  C_6
REMARK    2  A    between atoms: N_4  and  C_12
REMARK                            x       y       z     vdW  Elec       q    Type
REMARK                         _______ _______ _______ _____ _____    ______ ____
ROOT
ATOM      1  C   UNL     1       6.802   1.390  -7.253  0.00  0.00    +0.017 C 
ATOM      2  C   UNL     1       5.261   1.426  -7.079  0.00  0.00    +0.025 C 
ATOM      3  C   UNL     1       4.993   0.250  -6.115  0.00  0.00    +0.088 C 
ATOM      4  N   UNL     1       6.139  -0.671  -6.221  0.00  0.00    -0.298 NA
ATOM      5  C   UNL     1       7.085  -0.132  -7.220  0.00  0.00    +0.085 C 
ATOM      6  C   UNL     1       6.793  -0.850  -4.918  0.00  0.00    +0.105 C 
ENDROOT
BRANCH   3   7
ATOM      7  C   UNL     1       3.724  -0.459  -6.512  0.00  0.00    -0.012 A 
ATOM      8  C   UNL     1       3.753  -1.794  -6.870  0.00  0.00    +0.115 A 
ATOM      9  N   UNL     1       2.647  -2.422  -7.219  0.00  0.00    -0.263 NA
ATOM     10  C   UNL     1       1.479  -1.810  -7.241  0.00  0.00    +0.111 A 
ATOM     11  C   UNL     1       1.373  -0.476  -6.894  0.00  0.00    +0.020 A 
ATOM     12  C   UNL     1       2.513   0.216  -6.517  0.00  0.00    +0.008 A 
ENDBRANCH   3   7
TORSDOF 1
ENDMDL
MODEL 3
REMARK VINA RESULT:    -2.879      1.386      4.548
REMARK INTER + INTRA:          -3.265
REMARK INTER:                  -3.061
REMARK INTRA:                  -0.204
REMARK UNBOUND:                -0.218
REMARK  Name = Nicotine.pdb
REMARK  2 active torsions:
REMARK  status: ('A' for Active; 'I' for Inactive)
REMARK    1  A    between atoms: C_3  and  C_6
REMARK    2  A    between atoms: N_4  and  C_12
REMARK                            x       y       z     vdW  Elec       q    Type
REMARK                         _______ _______ _______ _____ _____    ______ ____
ROOT
ATOM      1  C   UNL     1       1.749   0.566  -7.019  0.00  0.00    +0.017 C 
ATOM      2  C   UNL     1       3.224   0.984  -7.256  0.00  0.00    +0.025 C 
ATOM      3  C   UNL     1       3.979  -0.361  -7.199  0.00  0.00    +0.088 C 
ATOM      4  N   UNL     1       3.136  -1.303  -6.442  0.00  0.00    -0.298 NA
ATOM      5  C   UNL     1       1.912  -0.597  -6.009  0.00  0.00    +0.085 C 
ATOM      6  C   UNL     1       2.806  -2.483  -7.252  0.00  0.00    +0.105 C 
ENDROOT
BRANCH   3   7
ATOM      7  C   UNL     1       5.301  -0.177  -6.499  0.00  0.00    -0.012 A 
ATOM      8  C   UNL     1       6.145   0.856  -6.861  0.00  0.00    +0.115 A 
ATOM      9  N   UNL     1       7.304   1.024  -6.254  0.00  0.00    -0.263 NA
ATOM     10  C   UNL     1       7.702   0.222  -5.286  0.00  0.00    +0.111 A 
ATOM     11  C   UNL     1       6.911  -0.833  -4.870  0.00  0.00    +0.020 A 
ATOM     12  C   UNL     1       5.683  -1.037  -5.482  0.00  0.00    +0.008 A 
ENDBRANCH   3   7
TORSDOF 1
ENDMDL
MODEL 4
REMARK VINA RESULT:    -1.999      1.115      1.813
REMARK INTER + INTRA:          -2.334
REMARK INTER:                  -2.134
REMARK INTRA:                  -0.200
REMARK UNBOUND:                -0.218
REMARK  Name = Nicotine.pdb
REMARK  2 active torsions:
REMARK  status: ('A' for Active; 'I' for Inactive)
REMARK    1  A    between atoms: C_3  and  C_6
REMARK    2  A    between atoms: N_4  and  C_12
REMARK                            x       y       z     vdW  Elec       q    Type
REMARK                         _______ _______ _______ _____ _____    ______ ____
ROOT
ATOM      1  C   UNL     1       7.566  -0.189  -4.291  0.00  0.00    +0.017 C 
ATOM      2  C   UNL     1       6.109  -0.720  -4.280  0.00  0.00    +0.025 C 
ATOM      3  C   UNL     1       5.909  -1.217  -5.727  0.00  0.00    +0.088 C 
ATOM      4  N   UNL     1       6.893  -0.515  -6.570  0.00  0.00    -0.298 NA
ATOM      5  C   UNL     1       7.671   0.408  -5.717  0.00  0.00    +0.085 C 
ATOM      6  C   UNL     1       7.776  -1.468  -7.256  0.00  0.00    +0.105 C 
ENDROOT
BRANCH   3   7
ATOM      7  C   UNL     1       4.512  -0.896  -6.192  0.00  0.00    -0.012 A 
ATOM      8  C   UNL     1       3.975   0.359  -5.976  0.00  0.00    +0.115 A 
ATOM      9  N   UNL     1       2.753   0.648  -6.380  0.00  0.00    -0.263 NA
ATOM     10  C   UNL     1       2.000  -0.238  -7.000  0.00  0.00    +0.111 A 
ATOM     11  C   UNL     1       2.470  -1.514  -7.251  0.00  0.00    +0.020 A 
ATOM     12  C   UNL     1       3.751  -1.853  -6.846  0.00  0.00    +0.008 A 
ENDBRANCH   3   7
TORSDOF 1
ENDMDL
MODEL 5
REMARK VINA RESULT:    -1.131      1.383      4.767
REMARK INTER + INTRA:          -1.416
REMARK INTER:                  -1.181
REMARK INTRA:                  -0.234
REMARK UNBOUND:                -0.218
REMARK  Name = Nicotine.pdb
REMARK  2 active torsions:
REMARK  status: ('A' for Active; 'I' for Inactive)
REMARK    1  A    between atoms: C_3  and  C_6
REMARK    2  A    between atoms: N_4  and  C_12
REMARK                            x       y       z     vdW  Elec       q    Type
REMARK                         _______ _______ _______ _____ _____    ______ ____
ROOT
ATOM      1  C   UNL     1       2.335   1.021  -6.226  0.00  0.00    +0.017 C 
ATOM      2  C   UNL     1       3.711   1.262  -6.900  0.00  0.00    +0.025 C 
ATOM      3  C   UNL     1       4.178  -0.165  -7.256  0.00  0.00    +0.088 C 
ATOM      4  N   UNL     1       3.455  -1.095  -6.370  0.00  0.00    -0.298 NA
ATOM      5  C   UNL     1       2.585  -0.308  -5.470  0.00  0.00    +0.085 C 
ATOM      6  C   UNL     1       2.670  -2.062  -7.149  0.00  0.00    +0.105 C 
ENDROOT
BRANCH   3   7
ATOM      7  C   UNL     1       5.663  -0.290  -7.030  0.00  0.00    -0.012 A 
ATOM      8  C   UNL     1       6.295  -1.508  -7.195  0.00  0.00    +0.115 A 
ATOM      9  N   UNL     1       7.593  -1.626  -6.999  0.00  0.00    -0.263 NA
ATOM     10  C   UNL     1       8.337  -0.598  -6.641  0.00  0.00    +0.111 A 
ATOM     11  C   UNL     1       7.775   0.652  -6.458  0.00  0.00    +0.020 A 
ATOM     12  C   UNL     1       6.413   0.816  -6.660  0.00  0.00    +0.008 A 
ENDBRANCH   3   7
TORSDOF 1
ENDMDL
MODEL 6
REMARK VINA RESULT:    -1.004      2.086      2.642
REMARK INTER + INTRA:          -1.281
REMARK INTER:                  -1.097
REMARK INTRA:                  -0.184
REMARK UNBOUND:                -0.218
REMARK  Name = Nicotine.pdb
REMARK  2 active torsions:
REMARK  status: ('A' for Active; 'I' for Inactive)
REMARK    1  A    between atoms: C_3  and  C_6
REMARK    2  A    between atoms: N_4  and  C_12
REMARK                            x       y       z     vdW  Elec       q    Type
REMARK                         _______ _______ _______ _____ _____    ______ ____
ROOT
ATOM      1  C   UNL     1       7.610  -1.382  -6.152  0.00  0.00    +0.017 C 
ATOM      2  C   UNL     1       6.779  -2.510  -6.819  0.00  0.00    +0.025 C 
ATOM      3  C   UNL     1       5.491  -1.780  -7.255  0.00  0.00    +0.088 C 
ATOM      4  N   UNL     1       5.368  -0.573  -6.418  0.00  0.00    -0.298 NA
ATOM      5  C   UNL     1       6.503  -0.538  -5.472  0.00  0.00    +0.085 C 
ATOM      6  C   UNL     1       5.333   0.641  -7.245  0.00  0.00    +0.105 C 
ENDROOT
BRANCH   3   7
ATOM      7  C   UNL     1       4.297  -2.675  -7.044  0.00  0.00    -0.012 A 
ATOM      8  C   UNL     1       4.450  -4.049  -7.020  0.00  0.00    +0.115 A 
ATOM      9  N   UNL     1       3.410  -4.839  -6.836  0.00  0.00    -0.263 NA
ATOM     10  C   UNL     1       2.194  -4.358  -6.669  0.00  0.00    +0.111 A 
ATOM     11  C   UNL     1       1.965  -2.995  -6.682  0.00  0.00    +0.020 A 
ATOM     12  C   UNL     1       3.034  -2.132  -6.867  0.00  0.00    +0.008 A 
ENDBRANCH   3   7
TORSDOF 1
ENDMDL
