MODEL 1
REMARK VINA RESULT:    -4.184      0.000      0.000
REMARK INTER + INTRA:          -4.620
REMARK INTER:                  -4.428
REMARK INTRA:                  -0.192
REMARK UNBOUND:                -0.192
REMARK  Name = Nicotine.pdb
REMARK  2 active torsions:
REMARK  status: ('A' for Active; 'I' for Inactive)
REMARK    1  A    between atoms: C_3  and  C_6
REMARK    2  A    between atoms: N_4  and  C_12
REMARK                            x       y       z     vdW  Elec       q    Type
REMARK                         _______ _______ _______ _____ _____    ______ ____
ROOT
ATOM      1  C   UNL     1       4.412  -1.564   1.036  0.00  0.00    +0.017 C 
ATOM      2  C   UNL     1       5.847  -1.779   1.585  0.00  0.00    +0.025 C 
ATOM      3  C   UNL     1       6.339  -0.339   1.844  0.00  0.00    +0.088 C 
ATOM      4  N   UNL     1       5.531   0.558   0.999  0.00  0.00    -0.298 NA
ATOM      5  C   UNL     1       4.583  -0.262   0.214  0.00  0.00    +0.085 C 
ATOM      6  C   UNL     1       4.819   1.550   1.815  0.00  0.00    +0.105 C 
ENDROOT
BRANCH   3   7
ATOM      7  C   UNL     1       7.795  -0.220   1.474  0.00  0.00    -0.012 A 
ATOM      8  C   UNL     1       8.672  -1.253   1.747  0.00  0.00    +0.115 A 
ATOM      9  N   UNL     1       9.948  -1.157   1.426  0.00  0.00    -0.263 NA
ATOM     10  C   UNL     1      10.436  -0.083   0.838  0.00  0.00    +0.111 A 
ATOM     11  C   UNL     1       9.618   0.990   0.534  0.00  0.00    +0.020 A 
ATOM     12  C   UNL     1       8.271   0.923   0.851  0.00  0.00    +0.008 A 
ENDBRANCH   3   7
TORSDOF 1
ENDMDL
MODEL 2
REMARK VINA RESULT:    -4.152      1.134      2.210
REMARK INTER + INTRA:          -4.587
REMARK INTER:                  -4.366
REMARK INTRA:                  -0.221
REMARK UNBOUND:                -0.192
REMARK  Name = Nicotine.pdb
REMARK  2 active torsions:
REMARK  status: ('A' for Active; 'I' for Inactive)
REMARK    1  A    between atoms: C_3  and  C_6
REMARK    2  A    between atoms: N_4  and  C_12
REMARK                            x       y       z     vdW  Elec       q    Type
REMARK                         _______ _______ _______ _____ _____    ______ ____
ROOT
ATOM      1  C   UNL     1       5.735   2.014   2.881  0.00  0.00    +0.017 C 
ATOM      2  C   UNL     1       7.080   2.111   2.113  0.00  0.00    +0.025 C 
ATOM      3  C   UNL     1       7.063   0.851   1.222  0.00  0.00    +0.088 C 
ATOM      4  N   UNL     1       6.137  -0.112   1.845  0.00  0.00    -0.298 NA
ATOM      5  C   UNL     1       5.603   0.485   3.088  0.00  0.00    +0.085 C 
ATOM      6  C   UNL     1       5.050  -0.470   0.924  0.00  0.00    +0.105 C 
ENDROOT
BRANCH   3   7
ATOM      7  C   UNL     1       8.446   0.258   1.146  0.00  0.00    -0.012 A 
ATOM      8  C   UNL     1       8.689  -1.013   1.632  0.00  0.00    +0.115 A 
ATOM      9  N   UNL     1       9.897  -1.539   1.570  0.00  0.00    -0.263 NA
ATOM     10  C   UNL     1      10.913  -0.882   1.046  0.00  0.00    +0.111 A 
ATOM     11  C   UNL     1      10.746   0.393   0.539  0.00  0.00    +0.020 A 
ATOM     12  C   UNL     1       9.489   0.977   0.583  0.00  0.00    +0.008 A 
ENDBRANCH   3   7
TORSDOF 1
ENDMDL
MODEL 3
REMARK VINA RESULT:    -4.028      2.201      3.219
REMARK INTER + INTRA:          -4.456
REMARK INTER:                  -4.267
REMARK INTRA:                  -0.188
REMARK UNBOUND:                -0.192
REMARK  Name = Nicotine.pdb
REMARK  2 active torsions:
REMARK  status: ('A' for Active; 'I' for Inactive)
REMARK    1  A    between atoms: C_3  and  C_6
REMARK    2  A    between atoms: N_4  and  C_12
REMARK                            x       y       z     vdW  Elec       q    Type
REMARK                         _______ _______ _______ _____ _____    ______ ____
ROOT
ATOM      1  C   UNL     1       8.120  -5.005   1.054  0.00  0.00    +0.017 C 
ATOM      2  C   UNL     1       9.151  -3.884   1.355  0.00  0.00    +0.025 C 
ATOM      3  C   UNL     1       8.290  -2.791   2.024  0.00  0.00    +0.088 C 
ATOM      4  N   UNL     1       6.894  -3.018   1.606  0.00  0.00    -0.298 NA
ATOM      5  C   UNL     1       6.859  -4.181   0.694  0.00  0.00    +0.085 C 
ATOM      6  C   UNL     1       6.025  -3.234   2.770  0.00  0.00    +0.105 C 
ENDROOT
BRANCH   3   7
ATOM      7  C   UNL     1       8.747  -1.429   1.570  0.00  0.00    -0.012 A 
ATOM      8  C   UNL     1      10.083  -1.193   1.306  0.00  0.00    +0.115 A 
ATOM      9  N   UNL     1      10.492  -0.004   0.908  0.00  0.00    -0.263 NA
ATOM     10  C   UNL     1       9.652   1.000   0.748  0.00  0.00    +0.111 A 
ATOM     11  C   UNL     1       8.301   0.838   0.992  0.00  0.00    +0.020 A 
ATOM     12  C   UNL     1       7.834  -0.399   1.407  0.00  0.00    +0.008 A 
ENDBRANCH   3   7
TORSDOF 1
ENDMDL
MODEL 4
REMARK VINA RESULT:    -3.946      2.322      3.629
REMARK INTER + INTRA:          -4.369
REMARK INTER:                  -4.153
REMARK INTRA:                  -0.216
REMARK UNBOUND:                -0.192
REMARK  Name = Nicotine.pdb
REMARK  2 active torsions:
REMARK  status: ('A' for Active; 'I' for Inactive)
REMARK    1  A    between atoms: C_3  and  C_6
REMARK    2  A    between atoms: N_4  and  C_12
REMARK                            x       y       z     vdW  Elec       q    Type
REMARK                         _______ _______ _______ _____ _____    ______ ____
ROOT
ATOM      1  C   UNL     1       8.352  -5.105   0.922  0.00  0.00    +0.017 C 
ATOM      2  C   UNL     1       8.995  -3.784   1.420  0.00  0.00    +0.025 C 
ATOM      3  C   UNL     1       7.796  -3.018   2.019  0.00  0.00    +0.088 C 
ATOM      4  N   UNL     1       6.575  -3.567   1.402  0.00  0.00    -0.298 NA
ATOM      5  C   UNL     1       6.966  -4.614   0.434  0.00  0.00    +0.085 C 
ATOM      6  C   UNL     1       5.665  -4.104   2.422  0.00  0.00    +0.105 C 
ENDROOT
BRANCH   3   7
ATOM      7  C   UNL     1       7.916  -1.550   1.704  0.00  0.00    -0.012 A 
ATOM      8  C   UNL     1       6.798  -0.738   1.716  0.00  0.00    +0.115 A 
ATOM      9  N   UNL     1       6.894   0.548   1.442  0.00  0.00    -0.263 NA
ATOM     10  C   UNL     1       8.050   1.109   1.147  0.00  0.00    +0.111 A 
ATOM     11  C   UNL     1       9.212   0.361   1.115  0.00  0.00    +0.020 A 
ATOM     12  C   UNL     1       9.150  -0.994   1.403  0.00  0.00    +0.008 A 
ENDBRANCH   3   7
TORSDOF 1
ENDMDL
MODEL 5
REMARK VINA RESULT:    -3.842      2.307      4.540
REMARK INTER + INTRA:          -4.259
REMARK INTER:                  -4.062
REMARK INTRA:                  -0.196
REMARK UNBOUND:                -0.192
REMARK  Name = Nicotine.pdb
REMARK  2 active torsions:
REMARK  status: ('A' for Active; 'I' for Inactive)
REMARK    1  A    between atoms: C_3  and  C_6
REMARK    2  A    between atoms: N_4  and  C_12
REMARK                            x       y       z     vdW  Elec       q    Type
REMARK                         _______ _______ _______ _____ _____    ______ ____
ROOT
ATOM      1  C   UNL     1       8.503   1.003   1.098  0.00  0.00    +0.017 C 
ATOM      2  C   UNL     1       7.513  -0.155   1.391  0.00  0.00    +0.025 C 
ATOM      3  C   UNL     1       8.400  -1.200   2.100  0.00  0.00    +0.088 C 
ATOM      4  N   UNL     1       9.795  -0.922   1.714  0.00  0.00    -0.298 NA
ATOM      5  C   UNL     1       9.807   0.227   0.784  0.00  0.00    +0.085 C 
ATOM      6  C   UNL     1      10.625  -0.652   2.896  0.00  0.00    +0.105 C 
ENDROOT
BRANCH   3   7
ATOM      7  C   UNL     1       8.011  -2.587   1.657  0.00  0.00    -0.012 A 
ATOM      8  C   UNL     1       6.679  -2.935   1.540  0.00  0.00    +0.115 A 
ATOM      9  N   UNL     1       6.330  -4.147   1.153  0.00  0.00    -0.263 NA
ATOM     10  C   UNL     1       7.229  -5.068   0.866  0.00  0.00    +0.111 A 
ATOM     11  C   UNL     1       8.580  -4.793   0.960  0.00  0.00    +0.020 A 
ATOM     12  C   UNL     1       8.985  -3.528   1.358  0.00  0.00    +0.008 A 
ENDBRANCH   3   7
TORSDOF 1
ENDMDL
MODEL 6
REMARK VINA RESULT:    -3.610      1.836      4.871
REMARK INTER + INTRA:          -4.012
REMARK INTER:                  -3.757
REMARK INTRA:                  -0.255
REMARK UNBOUND:                -0.192
REMARK  Name = Nicotine.pdb
REMARK  2 active torsions:
REMARK  status: ('A' for Active; 'I' for Inactive)
REMARK    1  A    between atoms: C_3  and  C_6
REMARK    2  A    between atoms: N_4  and  C_12
REMARK                            x       y       z     vdW  Elec       q    Type
REMARK                         _______ _______ _______ _____ _____    ______ ____
ROOT
ATOM      1  C   UNL     1      10.913   0.293   0.896  0.00  0.00    +0.017 C 
ATOM      2  C   UNL     1       9.589   0.973   0.460  0.00  0.00    +0.025 C 
ATOM      3  C   UNL     1       9.100   1.645   1.761  0.00  0.00    +0.088 C 
ATOM      4  N   UNL     1       9.738   0.937   2.885  0.00  0.00    -0.298 NA
ATOM      5  C   UNL     1      10.576  -0.153   2.341  0.00  0.00    +0.085 C 
ATOM      6  C   UNL     1      10.538   1.858   3.703  0.00  0.00    +0.105 C 
ENDROOT
BRANCH   3   7
ATOM      7  C   UNL     1       7.601   1.529   1.865  0.00  0.00    -0.012 A 
ATOM      8  C   UNL     1       6.900   2.312   2.763  0.00  0.00    +0.115 A 
ATOM      9  N   UNL     1       5.588   2.218   2.860  0.00  0.00    -0.263 NA
ATOM     10  C   UNL     1       4.897   1.380   2.114  0.00  0.00    +0.111 A 
ATOM     11  C   UNL     1       5.529   0.564   1.193  0.00  0.00    +0.020 A 
ATOM     12  C   UNL     1       6.907   0.640   1.059  0.00  0.00    +0.008 A 
ENDBRANCH   3   7
TORSDOF 1
ENDMDL
MODEL 7
REMARK VINA RESULT:    -3.542      1.862      4.256
REMARK INTER + INTRA:          -3.941
REMARK INTER:                  -3.748
REMARK INTRA:                  -0.194
REMARK UNBOUND:                -0.192
REMARK  Name = Nicotine.pdb
REMARK  2 active torsions:
REMARK  status: ('A' for Active; 'I' for Inactive)
REMARK    1  A    between atoms: C_3  and  C_6
REMARK    2  A    between atoms: N_4  and  C_12
REMARK                            x       y       z     vdW  Elec       q    Type
REMARK                         _______ _______ _______ _____ _____    ______ ____
ROOT
ATOM      1  C   UNL     1      10.498   1.374   1.454  0.00  0.00    +0.017 C 
ATOM      2  C   UNL     1       9.333   0.792   0.611  0.00  0.00    +0.025 C 
ATOM      3  C   UNL     1       8.079   1.303   1.352  0.00  0.00    +0.088 C 
ATOM      4  N   UNL     1       8.484   1.610   2.736  0.00  0.00    -0.298 NA
ATOM      5  C   UNL     1       9.920   1.289   2.888  0.00  0.00    +0.085 C 
ATOM      6  C   UNL     1       8.221   3.017   3.062  0.00  0.00    +0.105 C 
ENDROOT
BRANCH   3   7
ATOM      7  C   UNL     1       7.015   0.237   1.353  0.00  0.00    -0.012 A 
ATOM      8  C   UNL     1       7.316  -1.052   1.749  0.00  0.00    +0.115 A 
ATOM      9  N   UNL     1       6.390  -1.991   1.753  0.00  0.00    -0.263 NA
ATOM     10  C   UNL     1       5.150  -1.743   1.381  0.00  0.00    +0.111 A 
ATOM     11  C   UNL     1       4.774  -0.477   0.973  0.00  0.00    +0.020 A 
ATOM     12  C   UNL     1       5.719   0.537   0.961  0.00  0.00    +0.008 A 
ENDBRANCH   3   7
TORSDOF 1
ENDMDL
MODEL 8
REMARK VINA RESULT:    -3.525      2.183      4.390
REMARK INTER + INTRA:          -3.923
REMARK INTER:                  -3.716
REMARK INTRA:                  -0.207
REMARK UNBOUND:                -0.192
REMARK  Name = Nicotine.pdb
REMARK  2 active torsions:
REMARK  status: ('A' for Active; 'I' for Inactive)
REMARK    1  A    between atoms: C_3  and  C_6
REMARK    2  A    between atoms: N_4  and  C_12
REMARK                            x       y       z     vdW  Elec       q    Type
REMARK                         _______ _______ _______ _____ _____    ______ ____
ROOT
ATOM      1  C   UNL     1       9.077  -4.766   2.626  0.00  0.00    +0.017 C 
ATOM      2  C   UNL     1       8.724  -3.753   1.506  0.00  0.00    +0.025 C 
ATOM      3  C   UNL     1       9.340  -2.435   2.023  0.00  0.00    +0.088 C 
ATOM      4  N   UNL     1       9.481  -2.563   3.484  0.00  0.00    -0.298 NA
ATOM      5  C   UNL     1       8.959  -3.884   3.894  0.00  0.00    +0.085 C 
ATOM      6  C   UNL     1      10.881  -2.399   3.895  0.00  0.00    +0.105 C 
ENDROOT
BRANCH   3   7
ATOM      7  C   UNL     1       8.430  -1.280   1.693  0.00  0.00    -0.012 A 
ATOM      8  C   UNL     1       7.060  -1.409   1.826  0.00  0.00    +0.115 A 
ATOM      9  N   UNL     1       6.257  -0.403   1.539  0.00  0.00    -0.263 NA
ATOM     10  C   UNL     1       6.722   0.756   1.117  0.00  0.00    +0.111 A 
ATOM     11  C   UNL     1       8.080   0.960   0.961  0.00  0.00    +0.020 A 
ATOM     12  C   UNL     1       8.956  -0.074   1.257  0.00  0.00    +0.008 A 
ENDBRANCH   3   7
TORSDOF 1
ENDMDL
MODEL 9
REMARK VINA RESULT:    -3.488      2.068      4.679
REMARK INTER + INTRA:          -3.883
REMARK INTER:                  -3.661
REMARK INTRA:                  -0.222
REMARK UNBOUND:                -0.192
REMARK  Name = Nicotine.pdb
REMARK  2 active torsions:
REMARK  status: ('A' for Active; 'I' for Inactive)
REMARK    1  A    between atoms: C_3  and  C_6
REMARK    2  A    between atoms: N_4  and  C_12
REMARK                            x       y       z     vdW  Elec       q    Type
REMARK                         _______ _______ _______ _____ _____    ______ ____
ROOT
ATOM      1  C   UNL     1       7.716  -0.002   1.968  0.00  0.00    +0.017 C 
ATOM      2  C   UNL     1       6.708   0.637   0.976  0.00  0.00    +0.025 C 
ATOM      3  C   UNL     1       5.367  -0.011   1.379  0.00  0.00    +0.088 C 
ATOM      4  N   UNL     1       5.682  -1.268   2.081  0.00  0.00    -0.298 NA
ATOM      5  C   UNL     1       7.150  -1.438   2.107  0.00  0.00    +0.085 C 
ATOM      6  C   UNL     1       5.127  -1.266   3.441  0.00  0.00    +0.105 C 
ENDROOT
BRANCH   3   7
ATOM      7  C   UNL     1       4.547  -0.301   0.148  0.00  0.00    -0.012 A 
ATOM      8  C   UNL     1       4.016  -1.560  -0.057  0.00  0.00    +0.115 A 
ATOM      9  N   UNL     1       3.297  -1.822  -1.132  0.00  0.00    -0.263 NA
ATOM     10  C   UNL     1       3.058  -0.903  -2.046  0.00  0.00    +0.111 A 
ATOM     11  C   UNL     1       3.557   0.379  -1.909  0.00  0.00    +0.020 A 
ATOM     12  C   UNL     1       4.312   0.693  -0.790  0.00  0.00    +0.008 A 
ENDBRANCH   3   7
TORSDOF 1
ENDMDL
MODEL 10
REMARK VINA RESULT:    -3.475      1.144      4.660
REMARK INTER + INTRA:          -3.871
REMARK INTER:                  -3.670
REMARK INTRA:                  -0.200
REMARK UNBOUND:                -0.192
REMARK  Name = Nicotine.pdb
REMARK  2 active torsions:
REMARK  status: ('A' for Active; 'I' for Inactive)
REMARK    1  A    between atoms: C_3  and  C_6
REMARK    2  A    between atoms: N_4  and  C_12
REMARK                            x       y       z     vdW  Elec       q    Type
REMARK                         _______ _______ _______ _____ _____    ______ ____
ROOT
ATOM      1  C   UNL     1       9.620   0.848   1.012  0.00  0.00    +0.017 C 
ATOM      2  C   UNL     1       8.071   0.919   0.950  0.00  0.00    +0.025 C 
ATOM      3  C   UNL     1       7.634  -0.121   2.003  0.00  0.00    +0.088 C 
ATOM      4  N   UNL     1       8.757  -1.058   2.185  0.00  0.00    -0.298 NA
ATOM      5  C   UNL     1       9.854  -0.660   1.277  0.00  0.00    +0.085 C 
ATOM      6  C   UNL     1       9.209  -1.074   3.582  0.00  0.00    +0.105 C 
ENDROOT
BRANCH   3   7
ATOM      7  C   UNL     1       6.418  -0.865   1.515  0.00  0.00    -0.012 A 
ATOM      8  C   UNL     1       5.357  -0.179   0.956  0.00  0.00    +0.115 A 
ATOM      9  N   UNL     1       4.289  -0.822   0.526  0.00  0.00    -0.263 NA
ATOM     10  C   UNL     1       4.189  -2.134   0.611  0.00  0.00    +0.111 A 
ATOM     11  C   UNL     1       5.210  -2.888   1.159  0.00  0.00    +0.020 A 
ATOM     12  C   UNL     1       6.351  -2.246   1.617  0.00  0.00    +0.008 A 
ENDBRANCH   3   7
TORSDOF 1
ENDMDL
