MODEL 1
REMARK VINA RESULT:    -3.782      0.000      0.000
REMARK INTER + INTRA:          -4.259
REMARK INTER:                  -4.003
REMARK INTRA:                  -0.256
REMARK UNBOUND:                -0.256
REMARK  Name = Nicotine.pdb
REMARK  2 active torsions:
REMARK  status: ('A' for Active; 'I' for Inactive)
REMARK    1  A    between atoms: C_3  and  C_6
REMARK    2  A    between atoms: N_4  and  C_12
REMARK                            x       y       z     vdW  Elec       q    Type
REMARK                         _______ _______ _______ _____ _____    ______ ____
ROOT
ATOM      1  C   UNL     1       5.381   1.727   1.876  0.00  0.00    +0.017 C 
ATOM      2  C   UNL     1       6.368   0.919   0.993  0.00  0.00    +0.025 C 
ATOM      3  C   UNL     1       6.853  -0.196   1.945  0.00  0.00    +0.088 C 
ATOM      4  N   UNL     1       6.634   0.281   3.322  0.00  0.00    -0.298 NA
ATOM      5  C   UNL     1       6.063   1.643   3.265  0.00  0.00    +0.085 C 
ATOM      6  C   UNL     1       5.751  -0.631   4.061  0.00  0.00    +0.105 C 
ENDROOT
BRANCH   3   7
ATOM      7  C   UNL     1       8.318  -0.461   1.719  0.00  0.00    -0.012 A 
ATOM      8  C   UNL     1       8.870  -1.679   2.067  0.00  0.00    +0.115 A 
ATOM      9  N   UNL     1      10.152  -1.920   1.873  0.00  0.00    -0.263 NA
ATOM     10  C   UNL     1      10.954  -1.017   1.343  0.00  0.00    +0.111 A 
ATOM     11  C   UNL     1      10.474   0.224   0.969  0.00  0.00    +0.020 A 
ATOM     12  C   UNL     1       9.130   0.511   1.154  0.00  0.00    +0.008 A 
ENDBRANCH   3   7
TORSDOF 1
ENDMDL
MODEL 2
REMARK VINA RESULT:    -3.726      1.053      1.712
REMARK INTER + INTRA:          -4.200
REMARK INTER:                  -4.001
REMARK INTRA:                  -0.199
REMARK UNBOUND:                -0.256
REMARK  Name = Nicotine.pdb
REMARK  2 active torsions:
REMARK  status: ('A' for Active; 'I' for Inactive)
REMARK    1  A    between atoms: C_3  and  C_6
REMARK    2  A    between atoms: N_4  and  C_12
REMARK                            x       y       z     vdW  Elec       q    Type
REMARK                         _______ _______ _______ _____ _____    ______ ____
ROOT
ATOM      1  C   UNL     1       4.759  -0.621   1.266  0.00  0.00    +0.017 C 
ATOM      2  C   UNL     1       6.042  -1.325   1.781  0.00  0.00    +0.025 C 
ATOM      3  C   UNL     1       6.940  -0.143   2.205  0.00  0.00    +0.088 C 
ATOM      4  N   UNL     1       6.471   1.047   1.473  0.00  0.00    -0.298 NA
ATOM      5  C   UNL     1       5.346   0.650   0.601  0.00  0.00    +0.085 C 
ATOM      6  C   UNL     1       6.069   2.112   2.401  0.00  0.00    +0.105 C 
ENDROOT
BRANCH   3   7
ATOM      7  C   UNL     1       8.375  -0.435   1.847  0.00  0.00    -0.012 A 
ATOM      8  C   UNL     1       8.926  -1.672   2.121  0.00  0.00    +0.115 A 
ATOM      9  N   UNL     1      10.180  -1.936   1.810  0.00  0.00    -0.263 NA
ATOM     10  C   UNL     1      10.954  -1.039   1.232  0.00  0.00    +0.111 A 
ATOM     11  C   UNL     1      10.472   0.220   0.927  0.00  0.00    +0.020 A 
ATOM     12  C   UNL     1       9.157   0.532   1.234  0.00  0.00    +0.008 A 
ENDBRANCH   3   7
TORSDOF 1
ENDMDL
MODEL 3
REMARK VINA RESULT:    -3.635      1.036      1.415
REMARK INTER + INTRA:          -4.103
REMARK INTER:                  -3.885
REMARK INTRA:                  -0.218
REMARK UNBOUND:                -0.256
REMARK  Name = Nicotine.pdb
REMARK  2 active torsions:
REMARK  status: ('A' for Active; 'I' for Inactive)
REMARK    1  A    between atoms: C_3  and  C_6
REMARK    2  A    between atoms: N_4  and  C_12
REMARK                            x       y       z     vdW  Elec       q    Type
REMARK                         _______ _______ _______ _____ _____    ______ ____
ROOT
ATOM      1  C   UNL     1       5.555   2.093   2.947  0.00  0.00    +0.017 C 
ATOM      2  C   UNL     1       6.966   2.123   2.303  0.00  0.00    +0.025 C 
ATOM      3  C   UNL     1       6.945   0.896   1.366  0.00  0.00    +0.088 C 
ATOM      4  N   UNL     1       5.906  -0.021   1.869  0.00  0.00    -0.298 NA
ATOM      5  C   UNL     1       5.305   0.570   3.083  0.00  0.00    +0.085 C 
ATOM      6  C   UNL     1       4.885  -0.273   0.844  0.00  0.00    +0.105 C 
ENDROOT
BRANCH   3   7
ATOM      7  C   UNL     1       8.288   0.213   1.386  0.00  0.00    -0.012 A 
ATOM      8  C   UNL     1       8.412  -1.070   1.885  0.00  0.00    +0.115 A 
ATOM      9  N   UNL     1       9.583  -1.675   1.907  0.00  0.00    -0.263 NA
ATOM     10  C   UNL     1      10.675  -1.088   1.458  0.00  0.00    +0.111 A 
ATOM     11  C   UNL     1      10.629   0.194   0.944  0.00  0.00    +0.020 A 
ATOM     12  C   UNL     1       9.414   0.860   0.900  0.00  0.00    +0.008 A 
ENDBRANCH   3   7
TORSDOF 1
ENDMDL
MODEL 4
REMARK VINA RESULT:    -3.628      1.495      4.197
REMARK INTER + INTRA:          -4.096
REMARK INTER:                  -3.873
REMARK INTRA:                  -0.223
REMARK UNBOUND:                -0.256
REMARK  Name = Nicotine.pdb
REMARK  2 active torsions:
REMARK  status: ('A' for Active; 'I' for Inactive)
REMARK    1  A    between atoms: C_3  and  C_6
REMARK    2  A    between atoms: N_4  and  C_12
REMARK                            x       y       z     vdW  Elec       q    Type
REMARK                         _______ _______ _______ _____ _____    ______ ____
ROOT
ATOM      1  C   UNL     1      10.623  -0.334   1.170  0.00  0.00    +0.017 C 
ATOM      2  C   UNL     1       9.320   0.486   0.979  0.00  0.00    +0.025 C 
ATOM      3  C   UNL     1       8.429  -0.002   2.141  0.00  0.00    +0.088 C 
ATOM      4  N   UNL     1       8.930  -1.327   2.549  0.00  0.00    -0.298 NA
ATOM      5  C   UNL     1      10.068  -1.689   1.678  0.00  0.00    +0.085 C 
ATOM      6  C   UNL     1       9.327  -1.328   3.963  0.00  0.00    +0.105 C 
ENDROOT
BRANCH   3   7
ATOM      7  C   UNL     1       6.999  -0.112   1.680  0.00  0.00    -0.012 A 
ATOM      8  C   UNL     1       6.334  -1.322   1.749  0.00  0.00    +0.115 A 
ATOM      9  N   UNL     1       5.082  -1.427   1.348  0.00  0.00    -0.263 NA
ATOM     10  C   UNL     1       4.419  -0.394   0.868  0.00  0.00    +0.111 A 
ATOM     11  C   UNL     1       5.019   0.848   0.769  0.00  0.00    +0.020 A 
ATOM     12  C   UNL     1       6.332   0.998   1.186  0.00  0.00    +0.008 A 
ENDBRANCH   3   7
TORSDOF 1
ENDMDL
MODEL 5
REMARK VINA RESULT:    -3.459      2.175      4.161
REMARK INTER + INTRA:          -3.918
REMARK INTER:                  -3.704
REMARK INTRA:                  -0.214
REMARK UNBOUND:                -0.256
REMARK  Name = Nicotine.pdb
REMARK  2 active torsions:
REMARK  status: ('A' for Active; 'I' for Inactive)
REMARK    1  A    between atoms: C_3  and  C_6
REMARK    2  A    between atoms: N_4  and  C_12
REMARK                            x       y       z     vdW  Elec       q    Type
REMARK                         _______ _______ _______ _____ _____    ______ ____
ROOT
ATOM      1  C   UNL     1      10.077   0.910   0.890  0.00  0.00    +0.017 C 
ATOM      2  C   UNL     1       8.650   0.348   1.127  0.00  0.00    +0.025 C 
ATOM      3  C   UNL     1       8.862  -0.665   2.272  0.00  0.00    +0.088 C 
ATOM      4  N   UNL     1      10.285  -1.049   2.258  0.00  0.00    -0.298 NA
ATOM      5  C   UNL     1      10.953  -0.342   1.145  0.00  0.00    +0.085 C 
ATOM      6  C   UNL     1      10.928  -0.738   3.541  0.00  0.00    +0.105 C 
ENDROOT
BRANCH   3   7
ATOM      7  C   UNL     1       8.000  -1.880   2.048  0.00  0.00    -0.012 A 
ATOM      8  C   UNL     1       6.625  -1.758   1.976  0.00  0.00    +0.115 A 
ATOM      9  N   UNL     1       5.863  -2.816   1.780  0.00  0.00    -0.263 NA
ATOM     10  C   UNL     1       6.375  -4.024   1.647  0.00  0.00    +0.111 A 
ATOM     11  C   UNL     1       7.741  -4.224   1.708  0.00  0.00    +0.020 A 
ATOM     12  C   UNL     1       8.575  -3.134   1.907  0.00  0.00    +0.008 A 
ENDBRANCH   3   7
TORSDOF 1
ENDMDL
MODEL 6
REMARK VINA RESULT:    -3.439      2.132      2.807
REMARK INTER + INTRA:          -3.896
REMARK INTER:                  -3.640
REMARK INTRA:                  -0.256
REMARK UNBOUND:                -0.256
REMARK  Name = Nicotine.pdb
REMARK  2 active torsions:
REMARK  status: ('A' for Active; 'I' for Inactive)
REMARK    1  A    between atoms: C_3  and  C_6
REMARK    2  A    between atoms: N_4  and  C_12
REMARK                            x       y       z     vdW  Elec       q    Type
REMARK                         _______ _______ _______ _____ _____    ______ ____
ROOT
ATOM      1  C   UNL     1       4.752  -0.778   1.133  0.00  0.00    +0.017 C 
ATOM      2  C   UNL     1       6.161  -0.756   1.780  0.00  0.00    +0.025 C 
ATOM      3  C   UNL     1       6.309   0.709   2.242  0.00  0.00    +0.088 C 
ATOM      4  N   UNL     1       5.380   1.518   1.433  0.00  0.00    -0.298 NA
ATOM      5  C   UNL     1       4.686   0.626   0.480  0.00  0.00    +0.085 C 
ATOM      6  C   UNL     1       4.418   2.227   2.287  0.00  0.00    +0.105 C 
ENDROOT
BRANCH   3   7
ATOM      7  C   UNL     1       7.725   1.176   2.019  0.00  0.00    -0.012 A 
ATOM      8  C   UNL     1       8.254   2.194   2.789  0.00  0.00    +0.115 A 
ATOM      9  N   UNL     1       9.492   2.609   2.601  0.00  0.00    -0.263 NA
ATOM     10  C   UNL     1      10.269   2.076   1.680  0.00  0.00    +0.111 A 
ATOM     11  C   UNL     1       9.808   1.052   0.872  0.00  0.00    +0.020 A 
ATOM     12  C   UNL     1       8.514   0.587   1.044  0.00  0.00    +0.008 A 
ENDBRANCH   3   7
TORSDOF 1
ENDMDL
MODEL 7
REMARK VINA RESULT:    -3.343      3.770      5.062
REMARK INTER + INTRA:          -3.794
REMARK INTER:                  -3.587
REMARK INTRA:                  -0.207
REMARK UNBOUND:                -0.256
REMARK  Name = Nicotine.pdb
REMARK  2 active torsions:
REMARK  status: ('A' for Active; 'I' for Inactive)
REMARK    1  A    between atoms: C_3  and  C_6
REMARK    2  A    between atoms: N_4  and  C_12
REMARK                            x       y       z     vdW  Elec       q    Type
REMARK                         _______ _______ _______ _____ _____    ______ ____
ROOT
ATOM      1  C   UNL     1       2.552   1.390  -2.673  0.00  0.00    +0.017 C 
ATOM      2  C   UNL     1       3.516   0.279  -2.180  0.00  0.00    +0.025 C 
ATOM      3  C   UNL     1       2.985  -0.039  -0.766  0.00  0.00    +0.088 C 
ATOM      4  N   UNL     1       2.223   1.139  -0.311  0.00  0.00    -0.298 NA
ATOM      5  C   UNL     1       2.282   2.174  -1.365  0.00  0.00    +0.085 C 
ATOM      6  C   UNL     1       0.834   0.780  -0.001  0.00  0.00    +0.105 C 
ENDROOT
BRANCH   3   7
ATOM      7  C   UNL     1       4.138  -0.298   0.169  0.00  0.00    -0.012 A 
ATOM      8  C   UNL     1       4.318  -1.550   0.726  0.00  0.00    +0.115 A 
ATOM      9  N   UNL     1       5.324  -1.785   1.545  0.00  0.00    -0.263 NA
ATOM     10  C   UNL     1       6.193  -0.846   1.864  0.00  0.00    +0.111 A 
ATOM     11  C   UNL     1       6.078   0.430   1.345  0.00  0.00    +0.020 A 
ATOM     12  C   UNL     1       5.035   0.713   0.476  0.00  0.00    +0.008 A 
ENDBRANCH   3   7
TORSDOF 1
ENDMDL
MODEL 8
REMARK VINA RESULT:    -3.317      3.874      6.159
REMARK INTER + INTRA:          -3.767
REMARK INTER:                  -3.574
REMARK INTRA:                  -0.193
REMARK UNBOUND:                -0.256
REMARK  Name = Nicotine.pdb
REMARK  2 active torsions:
REMARK  status: ('A' for Active; 'I' for Inactive)
REMARK    1  A    between atoms: C_3  and  C_6
REMARK    2  A    between atoms: N_4  and  C_12
REMARK                            x       y       z     vdW  Elec       q    Type
REMARK                         _______ _______ _______ _____ _____    ______ ____
ROOT
ATOM      1  C   UNL     1       5.383   2.014   2.244  0.00  0.00    +0.017 C 
ATOM      2  C   UNL     1       4.057   2.270   1.481  0.00  0.00    +0.025 C 
ATOM      3  C   UNL     1       3.753   0.898   0.842  0.00  0.00    +0.088 C 
ATOM      4  N   UNL     1       5.028   0.162   0.762  0.00  0.00    -0.298 NA
ATOM      5  C   UNL     1       6.104   1.024   1.296  0.00  0.00    +0.085 C 
ATOM      6  C   UNL     1       4.952  -1.105   1.500  0.00  0.00    +0.105 C 
ENDROOT
BRANCH   3   7
ATOM      7  C   UNL     1       3.183   1.091  -0.539  0.00  0.00    -0.012 A 
ATOM      8  C   UNL     1       2.267   2.096  -0.783  0.00  0.00    +0.115 A 
ATOM      9  N   UNL     1       1.762   2.271  -1.989  0.00  0.00    -0.263 NA
ATOM     10  C   UNL     1       2.107   1.502  -3.003  0.00  0.00    +0.111 A 
ATOM     11  C   UNL     1       3.018   0.476  -2.835  0.00  0.00    +0.020 A 
ATOM     12  C   UNL     1       3.574   0.265  -1.582  0.00  0.00    +0.008 A 
ENDBRANCH   3   7
TORSDOF 1
ENDMDL
MODEL 9
REMARK VINA RESULT:    -3.264      2.331      3.173
REMARK INTER + INTRA:          -3.711
REMARK INTER:                  -3.488
REMARK INTRA:                  -0.223
REMARK UNBOUND:                -0.256
REMARK  Name = Nicotine.pdb
REMARK  2 active torsions:
REMARK  status: ('A' for Active; 'I' for Inactive)
REMARK    1  A    between atoms: C_3  and  C_6
REMARK    2  A    between atoms: N_4  and  C_12
REMARK                            x       y       z     vdW  Elec       q    Type
REMARK                         _______ _______ _______ _____ _____    ______ ____
ROOT
ATOM      1  C   UNL     1       2.743   1.716  -0.348  0.00  0.00    +0.017 C 
ATOM      2  C   UNL     1       3.852   0.635  -0.446  0.00  0.00    +0.025 C 
ATOM      3  C   UNL     1       4.042   0.199   1.022  0.00  0.00    +0.088 C 
ATOM      4  N   UNL     1       3.549   1.298   1.872  0.00  0.00    -0.298 NA
ATOM      5  C   UNL     1       3.090   2.399   0.999  0.00  0.00    +0.085 C 
ATOM      6  C   UNL     1       2.469   0.839   2.754  0.00  0.00    +0.105 C 
ENDROOT
BRANCH   3   7
ATOM      7  C   UNL     1       5.502  -0.050   1.298  0.00  0.00    -0.012 A 
ATOM      8  C   UNL     1       5.922  -1.272   1.788  0.00  0.00    +0.115 A 
ATOM      9  N   UNL     1       7.198  -1.498   2.033  0.00  0.00    -0.263 NA
ATOM     10  C   UNL     1       8.118  -0.577   1.822  0.00  0.00    +0.111 A 
ATOM     11  C   UNL     1       7.773   0.669   1.332  0.00  0.00    +0.020 A 
ATOM     12  C   UNL     1       6.441   0.941   1.058  0.00  0.00    +0.008 A 
ENDBRANCH   3   7
TORSDOF 1
ENDMDL
MODEL 10
REMARK VINA RESULT:    -3.210      1.933      4.856
REMARK INTER + INTRA:          -3.654
REMARK INTER:                  -3.433
REMARK INTRA:                  -0.221
REMARK UNBOUND:                -0.256
REMARK  Name = Nicotine.pdb
REMARK  2 active torsions:
REMARK  status: ('A' for Active; 'I' for Inactive)
REMARK    1  A    between atoms: C_3  and  C_6
REMARK    2  A    between atoms: N_4  and  C_12
REMARK                            x       y       z     vdW  Elec       q    Type
REMARK                         _______ _______ _______ _____ _____    ______ ____
ROOT
ATOM      1  C   UNL     1       8.681  -0.356   1.649  0.00  0.00    +0.017 C 
ATOM      2  C   UNL     1       7.833   0.828   1.114  0.00  0.00    +0.025 C 
ATOM      3  C   UNL     1       6.760   1.009   2.209  0.00  0.00    +0.088 C 
ATOM      4  N   UNL     1       6.660  -0.268   2.938  0.00  0.00    -0.298 NA
ATOM      5  C   UNL     1       7.599  -1.233   2.329  0.00  0.00    +0.085 C 
ATOM      6  C   UNL     1       6.946  -0.084   4.366  0.00  0.00    +0.105 C 
ENDROOT
BRANCH   3   7
ATOM      7  C   UNL     1       5.435   1.346   1.577  0.00  0.00    -0.012 A 
ATOM      8  C   UNL     1       4.768   2.505   1.927  0.00  0.00    +0.115 A 
ATOM      9  N   UNL     1       3.607   2.808   1.379  0.00  0.00    -0.263 NA
ATOM     10  C   UNL     1       3.039   2.026   0.483  0.00  0.00    +0.111 A 
ATOM     11  C   UNL     1       3.647   0.850   0.083  0.00  0.00    +0.020 A 
ATOM     12  C   UNL     1       4.870   0.501   0.634  0.00  0.00    +0.008 A 
ENDBRANCH   3   7
TORSDOF 1
ENDMDL
