MODEL 1
REMARK VINA RESULT:    -2.299      0.000      0.000
REMARK INTER + INTRA:          -2.645
REMARK INTER:                  -2.433
REMARK INTRA:                  -0.212
REMARK UNBOUND:                -0.212
REMARK  Name = Nicotine.pdb
REMARK  2 active torsions:
REMARK  status: ('A' for Active; 'I' for Inactive)
REMARK    1  A    between atoms: C_3  and  C_6
REMARK    2  A    between atoms: N_4  and  C_12
REMARK                            x       y       z     vdW  Elec       q    Type
REMARK                         _______ _______ _______ _____ _____    ______ ____
ROOT
ATOM      1  C   UNL     1      10.870  -0.338   3.628  0.00  0.00    +0.017 C 
ATOM      2  C   UNL     1       9.463  -0.313   2.974  0.00  0.00    +0.025 C 
ATOM      3  C   UNL     1       8.635  -1.232   3.898  0.00  0.00    +0.088 C 
ATOM      4  N   UNL     1       9.584  -2.113   4.602  0.00  0.00    -0.298 NA
ATOM      5  C   UNL     1      10.952  -1.799   4.138  0.00  0.00    +0.085 C 
ATOM      6  C   UNL     1       9.471  -1.953   6.057  0.00  0.00    +0.105 C 
ENDROOT
BRANCH   3   7
ATOM      7  C   UNL     1       7.679  -2.057   3.076  0.00  0.00    -0.012 A 
ATOM      8  C   UNL     1       8.044  -2.507   1.822  0.00  0.00    +0.115 A 
ATOM      9  N   UNL     1       7.214  -3.231   1.096  0.00  0.00    -0.263 NA
ATOM     10  C   UNL     1       6.012  -3.551   1.532  0.00  0.00    +0.111 A 
ATOM     11  C   UNL     1       5.577  -3.137   2.777  0.00  0.00    +0.020 A 
ATOM     12  C   UNL     1       6.424  -2.380   3.571  0.00  0.00    +0.008 A 
ENDBRANCH   3   7
TORSDOF 1
ENDMDL
MODEL 2
REMARK VINA RESULT:    -2.210      1.483      2.234
REMARK INTER + INTRA:          -2.551
REMARK INTER:                  -2.306
REMARK INTRA:                  -0.245
REMARK UNBOUND:                -0.212
REMARK  Name = Nicotine.pdb
REMARK  2 active torsions:
REMARK  status: ('A' for Active; 'I' for Inactive)
REMARK    1  A    between atoms: C_3  and  C_6
REMARK    2  A    between atoms: N_4  and  C_12
REMARK                            x       y       z     vdW  Elec       q    Type
REMARK                         _______ _______ _______ _____ _____    ______ ____
ROOT
ATOM      1  C   UNL     1      10.954  -1.557   4.757  0.00  0.00    +0.017 C 
ATOM      2  C   UNL     1       9.635  -2.321   5.049  0.00  0.00    +0.025 C 
ATOM      3  C   UNL     1       9.101  -2.644   3.637  0.00  0.00    +0.088 C 
ATOM      4  N   UNL     1       9.715  -1.679   2.707  0.00  0.00    -0.298 NA
ATOM      5  C   UNL     1      10.579  -0.763   3.480  0.00  0.00    +0.085 C 
ATOM      6  C   UNL     1      10.481  -2.370   1.661  0.00  0.00    +0.105 C 
ENDROOT
BRANCH   3   7
ATOM      7  C   UNL     1       7.602  -2.501   3.611  0.00  0.00    -0.012 A 
ATOM      8  C   UNL     1       6.888  -2.829   2.474  0.00  0.00    +0.115 A 
ATOM      9  N   UNL     1       5.575  -2.707   2.443  0.00  0.00    -0.263 NA
ATOM     10  C   UNL     1       4.895  -2.272   3.485  0.00  0.00    +0.111 A 
ATOM     11  C   UNL     1       5.540  -1.925   4.657  0.00  0.00    +0.020 A 
ATOM     12  C   UNL     1       6.920  -2.045   4.729  0.00  0.00    +0.008 A 
ENDBRANCH   3   7
TORSDOF 1
ENDMDL
MODEL 3
REMARK VINA RESULT:    -2.088      1.884      2.450
REMARK INTER + INTRA:          -2.422
REMARK INTER:                  -2.208
REMARK INTRA:                  -0.214
REMARK UNBOUND:                -0.212
REMARK  Name = Nicotine.pdb
REMARK  2 active torsions:
REMARK  status: ('A' for Active; 'I' for Inactive)
REMARK    1  A    between atoms: C_3  and  C_6
REMARK    2  A    between atoms: N_4  and  C_12
REMARK                            x       y       z     vdW  Elec       q    Type
REMARK                         _______ _______ _______ _____ _____    ______ ____
ROOT
ATOM      1  C   UNL     1      10.907  -3.184   2.959  0.00  0.00    +0.017 C 
ATOM      2  C   UNL     1       9.682  -2.238   2.844  0.00  0.00    +0.025 C 
ATOM      3  C   UNL     1       9.364  -1.901   4.316  0.00  0.00    +0.088 C 
ATOM      4  N   UNL     1       9.940  -2.975   5.145  0.00  0.00    -0.298 NA
ATOM      5  C   UNL     1      10.575  -3.969   4.253  0.00  0.00    +0.085 C 
ATOM      6  C   UNL     1      10.910  -2.436   6.107  0.00  0.00    +0.105 C 
ENDROOT
BRANCH   3   7
ATOM      7  C   UNL     1       7.872  -1.840   4.517  0.00  0.00    -0.012 A 
ATOM      8  C   UNL     1       7.016  -2.317   3.543  0.00  0.00    +0.115 A 
ATOM      9  N   UNL     1       5.708  -2.268   3.711  0.00  0.00    -0.263 NA
ATOM     10  C   UNL     1       5.169  -1.767   4.805  0.00  0.00    +0.111 A 
ATOM     11  C   UNL     1       5.962  -1.272   5.823  0.00  0.00    +0.020 A 
ATOM     12  C   UNL     1       7.341  -1.311   5.684  0.00  0.00    +0.008 A 
ENDBRANCH   3   7
TORSDOF 1
ENDMDL
MODEL 4
REMARK VINA RESULT:    -2.047      6.850      7.688
REMARK INTER + INTRA:          -2.379
REMARK INTER:                  -2.129
REMARK INTRA:                  -0.250
REMARK UNBOUND:                -0.212
REMARK  Name = Nicotine.pdb
REMARK  2 active torsions:
REMARK  status: ('A' for Active; 'I' for Inactive)
REMARK    1  A    between atoms: C_3  and  C_6
REMARK    2  A    between atoms: N_4  and  C_12
REMARK                            x       y       z     vdW  Elec       q    Type
REMARK                         _______ _______ _______ _____ _____    ______ ____
ROOT
ATOM      1  C   UNL     1      10.420   4.101  -0.465  0.00  0.00    +0.017 C 
ATOM      2  C   UNL     1       9.196   3.215  -0.115  0.00  0.00    +0.025 C 
ATOM      3  C   UNL     1       8.390   3.200  -1.432  0.00  0.00    +0.088 C 
ATOM      4  N   UNL     1       8.793   4.390  -2.203  0.00  0.00    -0.298 NA
ATOM      5  C   UNL     1       9.787   5.148  -1.415  0.00  0.00    +0.085 C 
ATOM      6  C   UNL     1       9.338   4.010  -3.513  0.00  0.00    +0.105 C 
ENDROOT
BRANCH   3   7
ATOM      7  C   UNL     1       6.915   3.257  -1.131  0.00  0.00    -0.012 A 
ATOM      8  C   UNL     1       6.020   2.516  -1.878  0.00  0.00    +0.115 A 
ATOM      9  N   UNL     1       4.727   2.560  -1.621  0.00  0.00    -0.263 NA
ATOM     10  C   UNL     1       4.239   3.306  -0.651  0.00  0.00    +0.111 A 
ATOM     11  C   UNL     1       5.073   4.075   0.139  0.00  0.00    +0.020 A 
ATOM     12  C   UNL     1       6.439   4.050  -0.098  0.00  0.00    +0.008 A 
ENDBRANCH   3   7
TORSDOF 1
ENDMDL
MODEL 5
REMARK VINA RESULT:    -1.988      1.745      4.289
REMARK INTER + INTRA:          -2.316
REMARK INTER:                  -2.102
REMARK INTRA:                  -0.214
REMARK UNBOUND:                -0.212
REMARK  Name = Nicotine.pdb
REMARK  2 active torsions:
REMARK  status: ('A' for Active; 'I' for Inactive)
REMARK    1  A    between atoms: C_3  and  C_6
REMARK    2  A    between atoms: N_4  and  C_12
REMARK                            x       y       z     vdW  Elec       q    Type
REMARK                         _______ _______ _______ _____ _____    ______ ____
ROOT
ATOM      1  C   UNL     1       5.102  -2.644   3.307  0.00  0.00    +0.017 C 
ATOM      2  C   UNL     1       6.565  -2.719   2.797  0.00  0.00    +0.025 C 
ATOM      3  C   UNL     1       7.375  -2.920   4.096  0.00  0.00    +0.088 C 
ATOM      4  N   UNL     1       6.546  -2.423   5.209  0.00  0.00    -0.298 NA
ATOM      5  C   UNL     1       5.277  -1.903   4.656  0.00  0.00    +0.085 C 
ATOM      6  C   UNL     1       6.296  -3.483   6.194  0.00  0.00    +0.105 C 
ENDROOT
BRANCH   3   7
ATOM      7  C   UNL     1       8.661  -2.139   4.024  0.00  0.00    -0.012 A 
ATOM      8  C   UNL     1       8.854  -1.199   3.029  0.00  0.00    +0.115 A 
ATOM      9  N   UNL     1       9.977  -0.511   2.959  0.00  0.00    -0.263 NA
ATOM     10  C   UNL     1      10.954  -0.689   3.826  0.00  0.00    +0.111 A 
ATOM     11  C   UNL     1      10.833  -1.611   4.849  0.00  0.00    +0.020 A 
ATOM     12  C   UNL     1       9.664  -2.350   4.958  0.00  0.00    +0.008 A 
ENDBRANCH   3   7
TORSDOF 1
ENDMDL
MODEL 6
REMARK VINA RESULT:    -1.968      1.986      3.461
REMARK INTER + INTRA:          -2.296
REMARK INTER:                  -2.127
REMARK INTRA:                  -0.169
REMARK UNBOUND:                -0.212
REMARK  Name = Nicotine.pdb
REMARK  2 active torsions:
REMARK  status: ('A' for Active; 'I' for Inactive)
REMARK    1  A    between atoms: C_3  and  C_6
REMARK    2  A    between atoms: N_4  and  C_12
REMARK                            x       y       z     vdW  Elec       q    Type
REMARK                         _______ _______ _______ _____ _____    ______ ____
ROOT
ATOM      1  C   UNL     1      10.915  -3.472   2.783  0.00  0.00    +0.017 C 
ATOM      2  C   UNL     1       9.645  -3.675   3.649  0.00  0.00    +0.025 C 
ATOM      3  C   UNL     1       8.665  -2.627   3.080  0.00  0.00    +0.088 C 
ATOM      4  N   UNL     1       9.473  -1.591   2.412  0.00  0.00    -0.298 NA
ATOM      5  C   UNL     1      10.903  -1.938   2.564  0.00  0.00    +0.085 C 
ATOM      6  C   UNL     1       9.108  -1.471   0.994  0.00  0.00    +0.105 C 
ENDROOT
BRANCH   3   7
ATOM      7  C   UNL     1       7.865  -2.012   4.199  0.00  0.00    -0.012 A 
ATOM      8  C   UNL     1       8.461  -1.131   5.082  0.00  0.00    +0.115 A 
ATOM      9  N   UNL     1       7.768  -0.589   6.064  0.00  0.00    -0.263 NA
ATOM     10  C   UNL     1       6.491  -0.861   6.244  0.00  0.00    +0.111 A 
ATOM     11  C   UNL     1       5.827  -1.732   5.400  0.00  0.00    +0.020 A 
ATOM     12  C   UNL     1       6.522  -2.318   4.353  0.00  0.00    +0.008 A 
ENDBRANCH   3   7
TORSDOF 1
ENDMDL
MODEL 7
REMARK VINA RESULT:    -1.958      1.780      3.965
REMARK INTER + INTRA:          -2.285
REMARK INTER:                  -2.038
REMARK INTRA:                  -0.247
REMARK UNBOUND:                -0.212
REMARK  Name = Nicotine.pdb
REMARK  2 active torsions:
REMARK  status: ('A' for Active; 'I' for Inactive)
REMARK    1  A    between atoms: C_3  and  C_6
REMARK    2  A    between atoms: N_4  and  C_12
REMARK                            x       y       z     vdW  Elec       q    Type
REMARK                         _______ _______ _______ _____ _____    ______ ____
ROOT
ATOM      1  C   UNL     1       7.886  -4.131   0.110  0.00  0.00    +0.017 C 
ATOM      2  C   UNL     1       7.295  -2.992   0.982  0.00  0.00    +0.025 C 
ATOM      3  C   UNL     1       8.553  -2.280   1.523  0.00  0.00    +0.088 C 
ATOM      4  N   UNL     1       9.664  -3.246   1.455  0.00  0.00    -0.298 NA
ATOM      5  C   UNL     1       9.145  -4.524   0.922  0.00  0.00    +0.085 C 
ATOM      6  C   UNL     1      10.758  -2.733   0.621  0.00  0.00    +0.105 C 
ENDROOT
BRANCH   3   7
ATOM      7  C   UNL     1       8.327  -1.857   2.952  0.00  0.00    -0.012 A 
ATOM      8  C   UNL     1       9.272  -1.095   3.612  0.00  0.00    +0.115 A 
ATOM      9  N   UNL     1       9.083  -0.720   4.862  0.00  0.00    -0.263 NA
ATOM     10  C   UNL     1       7.995  -1.052   5.528  0.00  0.00    +0.111 A 
ATOM     11  C   UNL     1       7.005  -1.813   4.933  0.00  0.00    +0.020 A 
ATOM     12  C   UNL     1       7.167  -2.221   3.618  0.00  0.00    +0.008 A 
ENDBRANCH   3   7
TORSDOF 1
ENDMDL
MODEL 8
REMARK VINA RESULT:    -1.917      2.663      3.490
REMARK INTER + INTRA:          -2.241
REMARK INTER:                  -2.043
REMARK INTRA:                  -0.198
REMARK UNBOUND:                -0.212
REMARK  Name = Nicotine.pdb
REMARK  2 active torsions:
REMARK  status: ('A' for Active; 'I' for Inactive)
REMARK    1  A    between atoms: C_3  and  C_6
REMARK    2  A    between atoms: N_4  and  C_12
REMARK                            x       y       z     vdW  Elec       q    Type
REMARK                         _______ _______ _______ _____ _____    ______ ____
ROOT
ATOM      1  C   UNL     1       9.631  -0.405   3.601  0.00  0.00    +0.017 C 
ATOM      2  C   UNL     1       9.126  -1.084   2.301  0.00  0.00    +0.025 C 
ATOM      3  C   UNL     1       9.555  -2.555   2.488  0.00  0.00    +0.088 C 
ATOM      4  N   UNL     1      10.662  -2.566   3.462  0.00  0.00    -0.298 NA
ATOM      5  C   UNL     1      10.950  -1.173   3.863  0.00  0.00    +0.085 C 
ATOM      6  C   UNL     1      10.328  -3.393   4.629  0.00  0.00    +0.105 C 
ENDROOT
BRANCH   3   7
ATOM      7  C   UNL     1      10.021  -3.124   1.173  0.00  0.00    -0.012 A 
ATOM      8  C   UNL     1       9.941  -2.370   0.017  0.00  0.00    +0.115 A 
ATOM      9  N   UNL     1      10.347  -2.861  -1.138  0.00  0.00    -0.263 NA
ATOM     10  C   UNL     1      10.842  -4.079  -1.238  0.00  0.00    +0.111 A 
ATOM     11  C   UNL     1      10.954  -4.891  -0.125  0.00  0.00    +0.020 A 
ATOM     12  C   UNL     1      10.542  -4.407   1.108  0.00  0.00    +0.008 A 
ENDBRANCH   3   7
TORSDOF 1
ENDMDL
MODEL 9
REMARK VINA RESULT:    -1.871      2.230      4.555
REMARK INTER + INTRA:          -2.193
REMARK INTER:                  -1.962
REMARK INTRA:                  -0.231
REMARK UNBOUND:                -0.212
REMARK  Name = Nicotine.pdb
REMARK  2 active torsions:
REMARK  status: ('A' for Active; 'I' for Inactive)
REMARK    1  A    between atoms: C_3  and  C_6
REMARK    2  A    between atoms: N_4  and  C_12
REMARK                            x       y       z     vdW  Elec       q    Type
REMARK                         _______ _______ _______ _____ _____    ______ ____
ROOT
ATOM      1  C   UNL     1       8.384  -2.691  -0.744  0.00  0.00    +0.017 C 
ATOM      2  C   UNL     1       8.898  -1.668   0.303  0.00  0.00    +0.025 C 
ATOM      3  C   UNL     1      10.050  -2.428   0.994  0.00  0.00    +0.088 C 
ATOM      4  N   UNL     1       9.813  -3.868   0.780  0.00  0.00    -0.298 NA
ATOM      5  C   UNL     1       8.559  -4.030   0.014  0.00  0.00    +0.085 C 
ATOM      6  C   UNL     1      10.944  -4.489   0.080  0.00  0.00    +0.105 C 
ENDROOT
BRANCH   3   7
ATOM      7  C   UNL     1      10.054  -2.121   2.469  0.00  0.00    -0.012 A 
ATOM      8  C   UNL     1      10.916  -2.788   3.319  0.00  0.00    +0.115 A 
ATOM      9  N   UNL     1      10.926  -2.525   4.611  0.00  0.00    -0.263 NA
ATOM     10  C   UNL     1      10.123  -1.625   5.142  0.00  0.00    +0.111 A 
ATOM     11  C   UNL     1       9.233  -0.918   4.354  0.00  0.00    +0.020 A 
ATOM     12  C   UNL     1       9.198  -1.163   2.990  0.00  0.00    +0.008 A 
ENDBRANCH   3   7
TORSDOF 1
ENDMDL
MODEL 10
REMARK VINA RESULT:    -0.208      2.113      3.067
REMARK INTER + INTRA:          -0.433
REMARK INTER:                  -0.177
REMARK INTRA:                  -0.256
REMARK UNBOUND:                -0.212
REMARK  Name = Nicotine.pdb
REMARK  2 active torsions:
REMARK  status: ('A' for Active; 'I' for Inactive)
REMARK    1  A    between atoms: C_3  and  C_6
REMARK    2  A    between atoms: N_4  and  C_12
REMARK                            x       y       z     vdW  Elec       q    Type
REMARK                         _______ _______ _______ _____ _____    ______ ____
ROOT
ATOM      1  C   UNL     1       7.496  -1.615   5.446  0.00  0.00    +0.017 C 
ATOM      2  C   UNL     1       7.572  -2.466   4.151  0.00  0.00    +0.025 C 
ATOM      3  C   UNL     1       9.084  -2.732   3.999  0.00  0.00    +0.088 C 
ATOM      4  N   UNL     1       9.791  -1.681   4.753  0.00  0.00    -0.298 NA
ATOM      5  C   UNL     1       8.788  -0.767   5.340  0.00  0.00    +0.085 C 
ATOM      6  C   UNL     1      10.646  -2.264   5.795  0.00  0.00    +0.105 C 
ENDROOT
BRANCH   3   7
ATOM      7  C   UNL     1       9.472  -2.670   2.544  0.00  0.00    -0.012 A 
ATOM      8  C   UNL     1      10.608  -3.318   2.096  0.00  0.00    +0.115 A 
ATOM      9  N   UNL     1      10.954  -3.269   0.824  0.00  0.00    -0.263 NA
ATOM     10  C   UNL     1      10.239  -2.607  -0.064  0.00  0.00    +0.111 A 
ATOM     11  C   UNL     1       9.091  -1.935   0.311  0.00  0.00    +0.020 A 
ATOM     12  C   UNL     1       8.692  -1.968   1.638  0.00  0.00    +0.008 A 
ENDBRANCH   3   7
TORSDOF 1
ENDMDL
