MODEL 1
REMARK VINA RESULT:    -4.383      0.000      0.000
REMARK INTER + INTRA:          -4.837
REMARK INTER:                  -4.640
REMARK INTRA:                  -0.197
REMARK UNBOUND:                -0.197
REMARK  Name = Nicotine.pdb
REMARK  2 active torsions:
REMARK  status: ('A' for Active; 'I' for Inactive)
REMARK    1  A    between atoms: C_3  and  C_6
REMARK    2  A    between atoms: N_4  and  C_12
REMARK                            x       y       z     vdW  Elec       q    Type
REMARK                         _______ _______ _______ _____ _____    ______ ____
ROOT
ATOM      1  C   UNL     1       4.874   3.083   0.221  0.00  0.00    +0.017 C 
ATOM      2  C   UNL     1       3.715   3.283   1.233  0.00  0.00    +0.025 C 
ATOM      3  C   UNL     1       4.384   4.082   2.372  0.00  0.00    +0.088 C 
ATOM      4  N   UNL     1       5.834   3.835   2.286  0.00  0.00    -0.298 NA
ATOM      5  C   UNL     1       6.088   2.903   1.166  0.00  0.00    +0.085 C 
ATOM      6  C   UNL     1       6.573   5.091   2.105  0.00  0.00    +0.105 C 
ENDROOT
BRANCH   3   7
ATOM      7  C   UNL     1       3.860   3.611   3.704  0.00  0.00    -0.012 A 
ATOM      8  C   UNL     1       2.854   2.666   3.765  0.00  0.00    +0.115 A 
ATOM      9  N   UNL     1       2.390   2.248   4.927  0.00  0.00    -0.263 NA
ATOM     10  C   UNL     1       2.861   2.711   6.068  0.00  0.00    +0.111 A 
ATOM     11  C   UNL     1       3.868   3.658   6.086  0.00  0.00    +0.020 A 
ATOM     12  C   UNL     1       4.384   4.117   4.884  0.00  0.00    +0.008 A 
ENDBRANCH   3   7
TORSDOF 1
ENDMDL
MODEL 2
REMARK VINA RESULT:    -4.331      1.994      3.321
REMARK INTER + INTRA:          -4.781
REMARK INTER:                  -4.566
REMARK INTRA:                  -0.215
REMARK UNBOUND:                -0.197
REMARK  Name = Nicotine.pdb
REMARK  2 active torsions:
REMARK  status: ('A' for Active; 'I' for Inactive)
REMARK    1  A    between atoms: C_3  and  C_6
REMARK    2  A    between atoms: N_4  and  C_12
REMARK                            x       y       z     vdW  Elec       q    Type
REMARK                         _______ _______ _______ _____ _____    ______ ____
ROOT
ATOM      1  C   UNL     1       7.236   5.958   2.095  0.00  0.00    +0.017 C 
ATOM      2  C   UNL     1       6.674   4.516   1.977  0.00  0.00    +0.025 C 
ATOM      3  C   UNL     1       5.393   4.711   1.138  0.00  0.00    +0.088 C 
ATOM      4  N   UNL     1       4.983   6.119   1.287  0.00  0.00    -0.298 NA
ATOM      5  C   UNL     1       5.935   6.793   2.195  0.00  0.00    +0.085 C 
ATOM      6  C   UNL     1       4.932   6.793  -0.017  0.00  0.00    +0.105 C 
ENDROOT
BRANCH   3   7
ATOM      7  C   UNL     1       4.304   3.802   1.648  0.00  0.00    -0.012 A 
ATOM      8  C   UNL     1       4.340   3.327   2.945  0.00  0.00    +0.115 A 
ATOM      9  N   UNL     1       3.390   2.532   3.399  0.00  0.00    -0.263 NA
ATOM     10  C   UNL     1       2.378   2.160   2.641  0.00  0.00    +0.111 A 
ATOM     11  C   UNL     1       2.274   2.595   1.333  0.00  0.00    +0.020 A 
ATOM     12  C   UNL     1       3.251   3.437   0.823  0.00  0.00    +0.008 A 
ENDBRANCH   3   7
TORSDOF 1
ENDMDL
MODEL 3
REMARK VINA RESULT:    -4.326      0.792      1.373
REMARK INTER + INTRA:          -4.776
REMARK INTER:                  -4.536
REMARK INTRA:                  -0.240
REMARK UNBOUND:                -0.197
REMARK  Name = Nicotine.pdb
REMARK  2 active torsions:
REMARK  status: ('A' for Active; 'I' for Inactive)
REMARK    1  A    between atoms: C_3  and  C_6
REMARK    2  A    between atoms: N_4  and  C_12
REMARK                            x       y       z     vdW  Elec       q    Type
REMARK                         _______ _______ _______ _____ _____    ______ ____
ROOT
ATOM      1  C   UNL     1       4.673   3.143   0.194  0.00  0.00    +0.017 C 
ATOM      2  C   UNL     1       3.570   3.398   1.256  0.00  0.00    +0.025 C 
ATOM      3  C   UNL     1       4.341   4.094   2.397  0.00  0.00    +0.088 C 
ATOM      4  N   UNL     1       5.763   3.733   2.248  0.00  0.00    -0.298 NA
ATOM      5  C   UNL     1       5.900   2.829   1.086  0.00  0.00    +0.085 C 
ATOM      6  C   UNL     1       6.596   4.931   2.084  0.00  0.00    +0.105 C 
ENDROOT
BRANCH   3   7
ATOM      7  C   UNL     1       3.827   3.617   3.730  0.00  0.00    -0.012 A 
ATOM      8  C   UNL     1       4.367   4.106   4.904  0.00  0.00    +0.115 A 
ATOM      9  N   UNL     1       3.922   3.694   6.075  0.00  0.00    -0.263 NA
ATOM     10  C   UNL     1       2.954   2.804   6.174  0.00  0.00    +0.111 A 
ATOM     11  C   UNL     1       2.365   2.270   5.043  0.00  0.00    +0.020 A 
ATOM     12  C   UNL     1       2.803   2.684   3.795  0.00  0.00    +0.008 A 
ENDBRANCH   3   7
TORSDOF 1
ENDMDL
MODEL 4
REMARK VINA RESULT:    -4.207      2.884      3.380
REMARK INTER + INTRA:          -4.649
REMARK INTER:                  -4.394
REMARK INTRA:                  -0.256
REMARK UNBOUND:                -0.197
REMARK  Name = Nicotine.pdb
REMARK  2 active torsions:
REMARK  status: ('A' for Active; 'I' for Inactive)
REMARK    1  A    between atoms: C_3  and  C_6
REMARK    2  A    between atoms: N_4  and  C_12
REMARK                            x       y       z     vdW  Elec       q    Type
REMARK                         _______ _______ _______ _____ _____    ______ ____
ROOT
ATOM      1  C   UNL     1       6.355   2.939   0.913  0.00  0.00    +0.017 C 
ATOM      2  C   UNL     1       4.932   2.900   0.296  0.00  0.00    +0.025 C 
ATOM      3  C   UNL     1       4.370   4.298   0.632  0.00  0.00    +0.088 C 
ATOM      4  N   UNL     1       5.134   4.811   1.783  0.00  0.00    -0.298 NA
ATOM      5  C   UNL     1       6.121   3.788   2.187  0.00  0.00    +0.085 C 
ATOM      6  C   UNL     1       5.796   6.080   1.452  0.00  0.00    +0.105 C 
ENDROOT
BRANCH   3   7
ATOM      7  C   UNL     1       2.910   4.191   0.990  0.00  0.00    -0.012 A 
ATOM      8  C   UNL     1       2.108   5.316   0.998  0.00  0.00    +0.115 A 
ATOM      9  N   UNL     1       0.830   5.232   1.311  0.00  0.00    -0.263 NA
ATOM     10  C   UNL     1       0.268   4.081   1.626  0.00  0.00    +0.111 A 
ATOM     11  C   UNL     1       1.007   2.913   1.639  0.00  0.00    +0.020 A 
ATOM     12  C   UNL     1       2.353   2.962   1.310  0.00  0.00    +0.008 A 
ENDBRANCH   3   7
TORSDOF 1
ENDMDL
MODEL 5
REMARK VINA RESULT:    -3.979      1.076      4.701
REMARK INTER + INTRA:          -4.408
REMARK INTER:                  -4.195
REMARK INTRA:                  -0.213
REMARK UNBOUND:                -0.197
REMARK  Name = Nicotine.pdb
REMARK  2 active torsions:
REMARK  status: ('A' for Active; 'I' for Inactive)
REMARK    1  A    between atoms: C_3  and  C_6
REMARK    2  A    between atoms: N_4  and  C_12
REMARK                            x       y       z     vdW  Elec       q    Type
REMARK                         _______ _______ _______ _____ _____    ______ ____
ROOT
ATOM      1  C   UNL     1       2.994   3.331   6.151  0.00  0.00    +0.017 C 
ATOM      2  C   UNL     1       3.943   3.947   5.089  0.00  0.00    +0.025 C 
ATOM      3  C   UNL     1       3.114   3.857   3.790  0.00  0.00    +0.088 C 
ATOM      4  N   UNL     1       2.106   2.800   3.987  0.00  0.00    -0.298 NA
ATOM      5  C   UNL     1       2.290   2.219   5.334  0.00  0.00    +0.085 C 
ATOM      6  C   UNL     1       0.746   3.332   3.824  0.00  0.00    +0.105 C 
ENDROOT
BRANCH   3   7
ATOM      7  C   UNL     1       4.012   3.501   2.633  0.00  0.00    -0.012 A 
ATOM      8  C   UNL     1       5.311   3.088   2.858  0.00  0.00    +0.115 A 
ATOM      9  N   UNL     1       6.103   2.775   1.851  0.00  0.00    -0.263 NA
ATOM     10  C   UNL     1       5.693   2.842   0.600  0.00  0.00    +0.111 A 
ATOM     11  C   UNL     1       4.406   3.246   0.297  0.00  0.00    +0.020 A 
ATOM     12  C   UNL     1       3.543   3.578   1.330  0.00  0.00    +0.008 A 
ENDBRANCH   3   7
TORSDOF 1
ENDMDL
MODEL 6
REMARK VINA RESULT:    -3.871      1.842      4.571
REMARK INTER + INTRA:          -4.294
REMARK INTER:                  -4.041
REMARK INTRA:                  -0.254
REMARK UNBOUND:                -0.197
REMARK  Name = Nicotine.pdb
REMARK  2 active torsions:
REMARK  status: ('A' for Active; 'I' for Inactive)
REMARK    1  A    between atoms: C_3  and  C_6
REMARK    2  A    between atoms: N_4  and  C_12
REMARK                            x       y       z     vdW  Elec       q    Type
REMARK                         _______ _______ _______ _____ _____    ______ ____
ROOT
ATOM      1  C   UNL     1       2.569   2.155   2.861  0.00  0.00    +0.017 C 
ATOM      2  C   UNL     1       3.626   2.673   1.850  0.00  0.00    +0.025 C 
ATOM      3  C   UNL     1       4.494   3.617   2.708  0.00  0.00    +0.088 C 
ATOM      4  N   UNL     1       3.678   4.031   3.864  0.00  0.00    -0.298 NA
ATOM      5  C   UNL     1       2.343   3.407   3.746  0.00  0.00    +0.085 C 
ATOM      6  C   UNL     1       4.325   3.654   5.128  0.00  0.00    +0.105 C 
ENDROOT
BRANCH   3   7
ATOM      7  C   UNL     1       4.889   4.826   1.900  0.00  0.00    -0.012 A 
ATOM      8  C   UNL     1       5.867   5.686   2.362  0.00  0.00    +0.115 A 
ATOM      9  N   UNL     1       6.220   6.746   1.660  0.00  0.00    -0.263 NA
ATOM     10  C   UNL     1       5.659   7.027   0.501  0.00  0.00    +0.111 A 
ATOM     11  C   UNL     1       4.674   6.213  -0.025  0.00  0.00    +0.020 A 
ATOM     12  C   UNL     1       4.281   5.086   0.681  0.00  0.00    +0.008 A 
ENDBRANCH   3   7
TORSDOF 1
ENDMDL
MODEL 7
REMARK VINA RESULT:    -3.809      2.592      4.619
REMARK INTER + INTRA:          -4.228
REMARK INTER:                  -4.018
REMARK INTRA:                  -0.211
REMARK UNBOUND:                -0.197
REMARK  Name = Nicotine.pdb
REMARK  2 active torsions:
REMARK  status: ('A' for Active; 'I' for Inactive)
REMARK    1  A    between atoms: C_3  and  C_6
REMARK    2  A    between atoms: N_4  and  C_12
REMARK                            x       y       z     vdW  Elec       q    Type
REMARK                         _______ _______ _______ _____ _____    ______ ____
ROOT
ATOM      1  C   UNL     1       1.082   6.160   1.465  0.00  0.00    +0.017 C 
ATOM      2  C   UNL     1       2.457   5.957   0.777  0.00  0.00    +0.025 C 
ATOM      3  C   UNL     1       2.708   4.443   0.941  0.00  0.00    +0.088 C 
ATOM      4  N   UNL     1       1.887   3.985   2.077  0.00  0.00    -0.298 NA
ATOM      5  C   UNL     1       1.165   5.148   2.635  0.00  0.00    +0.085 C 
ATOM      6  C   UNL     1       0.951   2.933   1.661  0.00  0.00    +0.105 C 
ENDROOT
BRANCH   3   7
ATOM      7  C   UNL     1       4.166   4.193   1.226  0.00  0.00    -0.012 A 
ATOM      8  C   UNL     1       4.883   5.068   2.020  0.00  0.00    +0.115 A 
ATOM      9  N   UNL     1       6.160   4.856   2.274  0.00  0.00    -0.263 NA
ATOM     10  C   UNL     1       6.800   3.811   1.787  0.00  0.00    +0.111 A 
ATOM     11  C   UNL     1       6.147   2.892   0.985  0.00  0.00    +0.020 A 
ATOM     12  C   UNL     1       4.804   3.079   0.701  0.00  0.00    +0.008 A 
ENDBRANCH   3   7
TORSDOF 1
ENDMDL
MODEL 8
REMARK VINA RESULT:    -3.750      1.640      2.161
REMARK INTER + INTRA:          -4.167
REMARK INTER:                  -3.953
REMARK INTRA:                  -0.214
REMARK UNBOUND:                -0.197
REMARK  Name = Nicotine.pdb
REMARK  2 active torsions:
REMARK  status: ('A' for Active; 'I' for Inactive)
REMARK    1  A    between atoms: C_3  and  C_6
REMARK    2  A    between atoms: N_4  and  C_12
REMARK                            x       y       z     vdW  Elec       q    Type
REMARK                         _______ _______ _______ _____ _____    ______ ____
ROOT
ATOM      1  C   UNL     1       4.504   4.397   0.016  0.00  0.00    +0.017 C 
ATOM      2  C   UNL     1       4.159   3.274   1.029  0.00  0.00    +0.025 C 
ATOM      3  C   UNL     1       2.921   3.835   1.761  0.00  0.00    +0.088 C 
ATOM      4  N   UNL     1       2.944   5.300   1.599  0.00  0.00    -0.298 NA
ATOM      5  C   UNL     1       4.149   5.669   0.826  0.00  0.00    +0.085 C 
ATOM      6  C   UNL     1       1.724   5.776   0.934  0.00  0.00    +0.105 C 
ENDROOT
BRANCH   3   7
ATOM      7  C   UNL     1       2.984   3.478   3.223  0.00  0.00    -0.012 A 
ATOM      8  C   UNL     1       2.001   2.692   3.795  0.00  0.00    +0.115 A 
ATOM      9  N   UNL     1       2.049   2.375   5.074  0.00  0.00    -0.263 NA
ATOM     10  C   UNL     1       3.027   2.790   5.854  0.00  0.00    +0.111 A 
ATOM     11  C   UNL     1       4.046   3.579   5.354  0.00  0.00    +0.020 A 
ATOM     12  C   UNL     1       4.032   3.929   4.012  0.00  0.00    +0.008 A 
ENDBRANCH   3   7
TORSDOF 1
ENDMDL
MODEL 9
REMARK VINA RESULT:    -3.749      1.513      3.999
REMARK INTER + INTRA:          -4.165
REMARK INTER:                  -3.955
REMARK INTRA:                  -0.210
REMARK UNBOUND:                -0.197
REMARK  Name = Nicotine.pdb
REMARK  2 active torsions:
REMARK  status: ('A' for Active; 'I' for Inactive)
REMARK    1  A    between atoms: C_3  and  C_6
REMARK    2  A    between atoms: N_4  and  C_12
REMARK                            x       y       z     vdW  Elec       q    Type
REMARK                         _______ _______ _______ _____ _____    ______ ____
ROOT
ATOM      1  C   UNL     1       1.609   2.535   1.813  0.00  0.00    +0.017 C 
ATOM      2  C   UNL     1       3.095   2.848   1.495  0.00  0.00    +0.025 C 
ATOM      3  C   UNL     1       3.719   3.029   2.895  0.00  0.00    +0.088 C 
ATOM      4  N   UNL     1       2.624   3.367   3.821  0.00  0.00    -0.298 NA
ATOM      5  C   UNL     1       1.361   3.427   3.055  0.00  0.00    +0.085 C 
ATOM      6  C   UNL     1       2.534   2.385   4.910  0.00  0.00    +0.105 C 
ENDROOT
BRANCH   3   7
ATOM      7  C   UNL     1       4.730   4.147   2.865  0.00  0.00    -0.012 A 
ATOM      8  C   UNL     1       5.767   4.127   1.951  0.00  0.00    +0.115 A 
ATOM      9  N   UNL     1       6.656   5.101   1.919  0.00  0.00    -0.263 NA
ATOM     10  C   UNL     1       6.593   6.124   2.747  0.00  0.00    +0.111 A 
ATOM     11  C   UNL     1       5.584   6.213   3.688  0.00  0.00    +0.020 A 
ATOM     12  C   UNL     1       4.628   5.210   3.749  0.00  0.00    +0.008 A 
ENDBRANCH   3   7
TORSDOF 1
ENDMDL
MODEL 10
REMARK VINA RESULT:    -3.692      1.604      2.202
REMARK INTER + INTRA:          -4.104
REMARK INTER:                  -3.863
REMARK INTRA:                  -0.241
REMARK UNBOUND:                -0.197
REMARK  Name = Nicotine.pdb
REMARK  2 active torsions:
REMARK  status: ('A' for Active; 'I' for Inactive)
REMARK    1  A    between atoms: C_3  and  C_6
REMARK    2  A    between atoms: N_4  and  C_12
REMARK                            x       y       z     vdW  Elec       q    Type
REMARK                         _______ _______ _______ _____ _____    ______ ____
ROOT
ATOM      1  C   UNL     1       6.490   3.418   1.429  0.00  0.00    +0.017 C 
ATOM      2  C   UNL     1       5.319   2.546   1.951  0.00  0.00    +0.025 C 
ATOM      3  C   UNL     1       4.071   3.336   1.503  0.00  0.00    +0.088 C 
ATOM      4  N   UNL     1       4.489   4.735   1.300  0.00  0.00    -0.298 NA
ATOM      5  C   UNL     1       5.927   4.848   1.625  0.00  0.00    +0.085 C 
ATOM      6  C   UNL     1       4.225   5.169  -0.078  0.00  0.00    +0.105 C 
ENDROOT
BRANCH   3   7
ATOM      7  C   UNL     1       3.010   3.267   2.570  0.00  0.00    -0.012 A 
ATOM      8  C   UNL     1       1.789   3.888   2.384  0.00  0.00    +0.115 A 
ATOM      9  N   UNL     1       0.855   3.832   3.313  0.00  0.00    -0.263 NA
ATOM     10  C   UNL     1       1.044   3.188   4.448  0.00  0.00    +0.111 A 
ATOM     11  C   UNL     1       2.239   2.543   4.705  0.00  0.00    +0.020 A 
ATOM     12  C   UNL     1       3.243   2.575   3.749  0.00  0.00    +0.008 A 
ENDBRANCH   3   7
TORSDOF 1
ENDMDL
