MODEL 1
REMARK VINA RESULT:    -4.378      0.000      0.000
REMARK INTER + INTRA:          -4.831
REMARK INTER:                  -4.634
REMARK INTRA:                  -0.197
REMARK UNBOUND:                -0.197
REMARK  Name = Nicotine.pdb
REMARK  2 active torsions:
REMARK  status: ('A' for Active; 'I' for Inactive)
REMARK    1  A    between atoms: C_3  and  C_6
REMARK    2  A    between atoms: N_4  and  C_12
REMARK                            x       y       z     vdW  Elec       q    Type
REMARK                         _______ _______ _______ _____ _____    ______ ____
ROOT
ATOM      1  C   UNL     1       4.888   3.065   0.224  0.00  0.00    +0.017 C 
ATOM      2  C   UNL     1       3.732   3.278   1.236  0.00  0.00    +0.025 C 
ATOM      3  C   UNL     1       4.409   4.066   2.377  0.00  0.00    +0.088 C 
ATOM      4  N   UNL     1       5.857   3.801   2.292  0.00  0.00    -0.298 NA
ATOM      5  C   UNL     1       6.099   2.868   1.170  0.00  0.00    +0.085 C 
ATOM      6  C   UNL     1       6.612   5.048   2.114  0.00  0.00    +0.105 C 
ENDROOT
BRANCH   3   7
ATOM      7  C   UNL     1       3.879   3.599   3.708  0.00  0.00    -0.012 A 
ATOM      8  C   UNL     1       2.860   2.667   3.766  0.00  0.00    +0.115 A 
ATOM      9  N   UNL     1       2.390   2.253   4.927  0.00  0.00    -0.263 NA
ATOM     10  C   UNL     1       2.866   2.706   6.069  0.00  0.00    +0.111 A 
ATOM     11  C   UNL     1       3.886   3.640   6.090  0.00  0.00    +0.020 A 
ATOM     12  C   UNL     1       4.409   4.094   4.889  0.00  0.00    +0.008 A 
ENDBRANCH   3   7
TORSDOF 1
ENDMDL
MODEL 2
REMARK VINA RESULT:    -4.356      0.782      1.368
REMARK INTER + INTRA:          -4.808
REMARK INTER:                  -4.575
REMARK INTRA:                  -0.233
REMARK UNBOUND:                -0.197
REMARK  Name = Nicotine.pdb
REMARK  2 active torsions:
REMARK  status: ('A' for Active; 'I' for Inactive)
REMARK    1  A    between atoms: C_3  and  C_6
REMARK    2  A    between atoms: N_4  and  C_12
REMARK                            x       y       z     vdW  Elec       q    Type
REMARK                         _______ _______ _______ _____ _____    ______ ____
ROOT
ATOM      1  C   UNL     1       4.908   3.040   0.211  0.00  0.00    +0.017 C 
ATOM      2  C   UNL     1       3.745   3.260   1.214  0.00  0.00    +0.025 C 
ATOM      3  C   UNL     1       4.416   4.057   2.353  0.00  0.00    +0.088 C 
ATOM      4  N   UNL     1       5.864   3.792   2.278  0.00  0.00    -0.298 NA
ATOM      5  C   UNL     1       6.114   2.852   1.165  0.00  0.00    +0.085 C 
ATOM      6  C   UNL     1       6.619   5.038   2.095  0.00  0.00    +0.105 C 
ENDROOT
BRANCH   3   7
ATOM      7  C   UNL     1       3.878   3.600   3.684  0.00  0.00    -0.012 A 
ATOM      8  C   UNL     1       4.404   4.101   4.860  0.00  0.00    +0.115 A 
ATOM      9  N   UNL     1       3.939   3.706   6.030  0.00  0.00    -0.263 NA
ATOM     10  C   UNL     1       2.963   2.825   6.126  0.00  0.00    +0.111 A 
ATOM     11  C   UNL     1       2.387   2.280   4.993  0.00  0.00    +0.020 A 
ATOM     12  C   UNL     1       2.847   2.675   3.746  0.00  0.00    +0.008 A 
ENDBRANCH   3   7
TORSDOF 1
ENDMDL
MODEL 3
REMARK VINA RESULT:    -4.273      1.991      3.325
REMARK INTER + INTRA:          -4.719
REMARK INTER:                  -4.507
REMARK INTRA:                  -0.213
REMARK UNBOUND:                -0.197
REMARK  Name = Nicotine.pdb
REMARK  2 active torsions:
REMARK  status: ('A' for Active; 'I' for Inactive)
REMARK    1  A    between atoms: C_3  and  C_6
REMARK    2  A    between atoms: N_4  and  C_12
REMARK                            x       y       z     vdW  Elec       q    Type
REMARK                         _______ _______ _______ _____ _____    ______ ____
ROOT
ATOM      1  C   UNL     1       7.337   5.692   2.148  0.00  0.00    +0.017 C 
ATOM      2  C   UNL     1       6.661   4.319   1.890  0.00  0.00    +0.025 C 
ATOM      3  C   UNL     1       5.364   4.705   1.147  0.00  0.00    +0.088 C 
ATOM      4  N   UNL     1       5.071   6.110   1.480  0.00  0.00    -0.298 NA
ATOM      5  C   UNL     1       6.110   6.600   2.412  0.00  0.00    +0.085 C 
ATOM      6  C   UNL     1       5.017   6.939   0.269  0.00  0.00    +0.105 C 
ENDROOT
BRANCH   3   7
ATOM      7  C   UNL     1       4.231   3.822   1.601  0.00  0.00    -0.012 A 
ATOM      8  C   UNL     1       4.173   3.376   2.907  0.00  0.00    +0.115 A 
ATOM      9  N   UNL     1       3.184   2.602   3.313  0.00  0.00    -0.263 NA
ATOM     10  C   UNL     1       2.220   2.225   2.497  0.00  0.00    +0.111 A 
ATOM     11  C   UNL     1       2.211   2.633   1.176  0.00  0.00    +0.020 A 
ATOM     12  C   UNL     1       3.231   3.450   0.715  0.00  0.00    +0.008 A 
ENDBRANCH   3   7
TORSDOF 1
ENDMDL
MODEL 4
REMARK VINA RESULT:    -4.258      1.604      4.644
REMARK INTER + INTRA:          -4.704
REMARK INTER:                  -4.481
REMARK INTRA:                  -0.222
REMARK UNBOUND:                -0.197
REMARK  Name = Nicotine.pdb
REMARK  2 active torsions:
REMARK  status: ('A' for Active; 'I' for Inactive)
REMARK    1  A    between atoms: C_3  and  C_6
REMARK    2  A    between atoms: N_4  and  C_12
REMARK                            x       y       z     vdW  Elec       q    Type
REMARK                         _______ _______ _______ _____ _____    ______ ____
ROOT
ATOM      1  C   UNL     1      -0.046   3.301   2.986  0.00  0.00    +0.017 C 
ATOM      2  C   UNL     1       0.990   2.747   1.972  0.00  0.00    +0.025 C 
ATOM      3  C   UNL     1       2.205   2.415   2.864  0.00  0.00    +0.088 C 
ATOM      4  N   UNL     1       2.083   3.226   4.089  0.00  0.00    -0.298 NA
ATOM      5  C   UNL     1       0.866   4.059   3.982  0.00  0.00    +0.085 C 
ATOM      6  C   UNL     1       2.035   2.373   5.283  0.00  0.00    +0.105 C 
ENDROOT
BRANCH   3   7
ATOM      7  C   UNL     1       3.481   2.763   2.142  0.00  0.00    -0.012 A 
ATOM      8  C   UNL     1       4.676   2.840   2.832  0.00  0.00    +0.115 A 
ATOM      9  N   UNL     1       5.797   3.144   2.208  0.00  0.00    -0.263 NA
ATOM     10  C   UNL     1       5.826   3.385   0.913  0.00  0.00    +0.111 A 
ATOM     11  C   UNL     1       4.670   3.326   0.156  0.00  0.00    +0.020 A 
ATOM     12  C   UNL     1       3.473   3.005   0.777  0.00  0.00    +0.008 A 
ENDBRANCH   3   7
TORSDOF 1
ENDMDL
MODEL 5
REMARK VINA RESULT:    -4.134      2.541      3.355
REMARK INTER + INTRA:          -4.572
REMARK INTER:                  -4.324
REMARK INTRA:                  -0.248
REMARK UNBOUND:                -0.197
REMARK  Name = Nicotine.pdb
REMARK  2 active torsions:
REMARK  status: ('A' for Active; 'I' for Inactive)
REMARK    1  A    between atoms: C_3  and  C_6
REMARK    2  A    between atoms: N_4  and  C_12
REMARK                            x       y       z     vdW  Elec       q    Type
REMARK                         _______ _______ _______ _____ _____    ______ ____
ROOT
ATOM      1  C   UNL     1       6.093   2.886   0.972  0.00  0.00    +0.017 C 
ATOM      2  C   UNL     1       4.742   3.221   0.287  0.00  0.00    +0.025 C 
ATOM      3  C   UNL     1       4.162   4.331   1.189  0.00  0.00    +0.088 C 
ATOM      4  N   UNL     1       4.806   4.203   2.508  0.00  0.00    -0.298 NA
ATOM      5  C   UNL     1       5.735   3.054   2.469  0.00  0.00    +0.085 C 
ATOM      6  C   UNL     1       5.512   5.439   2.872  0.00  0.00    +0.105 C 
ENDROOT
BRANCH   3   7
ATOM      7  C   UNL     1       2.672   4.154   1.325  0.00  0.00    -0.012 A 
ATOM      8  C   UNL     1       1.833   5.253   1.310  0.00  0.00    +0.115 A 
ATOM      9  N   UNL     1       0.528   5.107   1.428  0.00  0.00    -0.263 NA
ATOM     10  C   UNL     1      -0.027   3.919   1.565  0.00  0.00    +0.111 A 
ATOM     11  C   UNL     1       0.748   2.774   1.589  0.00  0.00    +0.020 A 
ATOM     12  C   UNL     1       2.124   2.888   1.461  0.00  0.00    +0.008 A 
ENDBRANCH   3   7
TORSDOF 1
ENDMDL
MODEL 6
REMARK VINA RESULT:    -3.960      1.143      4.613
REMARK INTER + INTRA:          -4.388
REMARK INTER:                  -4.218
REMARK INTRA:                  -0.170
REMARK UNBOUND:                -0.197
REMARK  Name = Nicotine.pdb
REMARK  2 active torsions:
REMARK  status: ('A' for Active; 'I' for Inactive)
REMARK    1  A    between atoms: C_3  and  C_6
REMARK    2  A    between atoms: N_4  and  C_12
REMARK                            x       y       z     vdW  Elec       q    Type
REMARK                         _______ _______ _______ _____ _____    ______ ____
ROOT
ATOM      1  C   UNL     1       3.727   5.090   6.122  0.00  0.00    +0.017 C 
ATOM      2  C   UNL     1       3.741   5.308   4.586  0.00  0.00    +0.025 C 
ATOM      3  C   UNL     1       3.250   3.951   4.038  0.00  0.00    +0.088 C 
ATOM      4  N   UNL     1       3.507   2.941   5.080  0.00  0.00    -0.298 NA
ATOM      5  C   UNL     1       4.155   3.605   6.231  0.00  0.00    +0.085 C 
ATOM      6  C   UNL     1       2.263   2.275   5.487  0.00  0.00    +0.105 C 
ENDROOT
BRANCH   3   7
ATOM      7  C   UNL     1       4.008   3.601   2.784  0.00  0.00    -0.012 A 
ATOM      8  C   UNL     1       5.348   3.271   2.846  0.00  0.00    +0.115 A 
ATOM      9  N   UNL     1       6.018   2.963   1.752  0.00  0.00    -0.263 NA
ATOM     10  C   UNL     1       5.444   2.957   0.566  0.00  0.00    +0.111 A 
ATOM     11  C   UNL     1       4.106   3.275   0.426  0.00  0.00    +0.020 A 
ATOM     12  C   UNL     1       3.368   3.599   1.554  0.00  0.00    +0.008 A 
ENDBRANCH   3   7
TORSDOF 1
ENDMDL
MODEL 7
REMARK VINA RESULT:    -3.697      2.184      4.617
REMARK INTER + INTRA:          -4.111
REMARK INTER:                  -3.909
REMARK INTRA:                  -0.201
REMARK UNBOUND:                -0.197
REMARK  Name = Nicotine.pdb
REMARK  2 active torsions:
REMARK  status: ('A' for Active; 'I' for Inactive)
REMARK    1  A    between atoms: C_3  and  C_6
REMARK    2  A    between atoms: N_4  and  C_12
REMARK                            x       y       z     vdW  Elec       q    Type
REMARK                         _______ _______ _______ _____ _____    ______ ____
ROOT
ATOM      1  C   UNL     1       0.255   3.255   3.591  0.00  0.00    +0.017 C 
ATOM      2  C   UNL     1       1.792   3.330   3.790  0.00  0.00    +0.025 C 
ATOM      3  C   UNL     1       2.248   4.248   2.636  0.00  0.00    +0.088 C 
ATOM      4  N   UNL     1       1.202   4.197   1.598  0.00  0.00    -0.298 NA
ATOM      5  C   UNL     1       0.139   3.272   2.046  0.00  0.00    +0.085 C 
ATOM      6  C   UNL     1       0.659   5.535   1.330  0.00  0.00    +0.105 C 
ENDROOT
BRANCH   3   7
ATOM      7  C   UNL     1       3.555   3.754   2.073  0.00  0.00    -0.012 A 
ATOM      8  C   UNL     1       4.596   3.416   2.917  0.00  0.00    +0.115 A 
ATOM      9  N   UNL     1       5.744   2.983   2.432  0.00  0.00    -0.263 NA
ATOM     10  C   UNL     1       5.945   2.855   1.135  0.00  0.00    +0.111 A 
ATOM     11  C   UNL     1       4.949   3.174   0.230  0.00  0.00    +0.020 A 
ATOM     12  C   UNL     1       3.728   3.627   0.703  0.00  0.00    +0.008 A 
ENDBRANCH   3   7
TORSDOF 1
ENDMDL
MODEL 8
REMARK VINA RESULT:    -3.692      2.528      4.646
REMARK INTER + INTRA:          -4.105
REMARK INTER:                  -3.893
REMARK INTRA:                  -0.212
REMARK UNBOUND:                -0.197
REMARK  Name = Nicotine.pdb
REMARK  2 active torsions:
REMARK  status: ('A' for Active; 'I' for Inactive)
REMARK    1  A    between atoms: C_3  and  C_6
REMARK    2  A    between atoms: N_4  and  C_12
REMARK                            x       y       z     vdW  Elec       q    Type
REMARK                         _______ _______ _______ _____ _____    ______ ____
ROOT
ATOM      1  C   UNL     1       0.972   6.117   1.729  0.00  0.00    +0.017 C 
ATOM      2  C   UNL     1       2.338   5.993   1.005  0.00  0.00    +0.025 C 
ATOM      3  C   UNL     1       2.611   4.474   1.037  0.00  0.00    +0.088 C 
ATOM      4  N   UNL     1       1.816   3.910   2.143  0.00  0.00    -0.298 NA
ATOM      5  C   UNL     1       1.088   5.012   2.808  0.00  0.00    +0.085 C 
ATOM      6  C   UNL     1       0.887   2.883   1.655  0.00  0.00    +0.105 C 
ENDROOT
BRANCH   3   7
ATOM      7  C   UNL     1       4.077   4.221   1.277  0.00  0.00    -0.012 A 
ATOM      8  C   UNL     1       4.804   5.055   2.105  0.00  0.00    +0.115 A 
ATOM      9  N   UNL     1       6.087   4.841   2.320  0.00  0.00    -0.263 NA
ATOM     10  C   UNL     1       6.725   3.832   1.760  0.00  0.00    +0.111 A 
ATOM     11  C   UNL     1       6.064   2.956   0.920  0.00  0.00    +0.020 A 
ATOM     12  C   UNL     1       4.712   3.146   0.674  0.00  0.00    +0.008 A 
ENDBRANCH   3   7
TORSDOF 1
ENDMDL
MODEL 9
REMARK VINA RESULT:    -3.235      3.594      5.241
REMARK INTER + INTRA:          -3.621
REMARK INTER:                  -3.366
REMARK INTRA:                  -0.255
REMARK UNBOUND:                -0.197
REMARK  Name = Nicotine.pdb
REMARK  2 active torsions:
REMARK  status: ('A' for Active; 'I' for Inactive)
REMARK    1  A    between atoms: C_3  and  C_6
REMARK    2  A    between atoms: N_4  and  C_12
REMARK                            x       y       z     vdW  Elec       q    Type
REMARK                         _______ _______ _______ _____ _____    ______ ____
ROOT
ATOM      1  C   UNL     1      -1.936   3.824   0.655  0.00  0.00    +0.017 C 
ATOM      2  C   UNL     1      -0.875   2.760   1.043  0.00  0.00    +0.025 C 
ATOM      3  C   UNL     1      -0.372   3.257   2.415  0.00  0.00    +0.088 C 
ATOM      4  N   UNL     1      -0.668   4.699   2.494  0.00  0.00    -0.298 NA
ATOM      5  C   UNL     1      -1.306   5.118   1.227  0.00  0.00    +0.085 C 
ATOM      6  C   UNL     1      -1.532   4.997   3.643  0.00  0.00    +0.105 C 
ENDROOT
BRANCH   3   7
ATOM      7  C   UNL     1       1.113   3.031   2.529  0.00  0.00    -0.012 A 
ATOM      8  C   UNL     1       1.700   2.851   3.767  0.00  0.00    +0.115 A 
ATOM      9  N   UNL     1       3.000   2.652   3.876  0.00  0.00    -0.263 NA
ATOM     10  C   UNL     1       3.786   2.617   2.818  0.00  0.00    +0.111 A 
ATOM     11  C   UNL     1       3.270   2.788   1.547  0.00  0.00    +0.020 A 
ATOM     12  C   UNL     1       1.908   2.994   1.393  0.00  0.00    +0.008 A 
ENDBRANCH   3   7
TORSDOF 1
ENDMDL
MODEL 10
REMARK VINA RESULT:    -3.213      1.943      2.791
REMARK INTER + INTRA:          -3.598
REMARK INTER:                  -3.360
REMARK INTRA:                  -0.238
REMARK UNBOUND:                -0.197
REMARK  Name = Nicotine.pdb
REMARK  2 active torsions:
REMARK  status: ('A' for Active; 'I' for Inactive)
REMARK    1  A    between atoms: C_3  and  C_6
REMARK    2  A    between atoms: N_4  and  C_12
REMARK                            x       y       z     vdW  Elec       q    Type
REMARK                         _______ _______ _______ _____ _____    ______ ____
ROOT
ATOM      1  C   UNL     1       5.803   5.572   2.295  0.00  0.00    +0.017 C 
ATOM      2  C   UNL     1       4.818   4.887   3.277  0.00  0.00    +0.025 C 
ATOM      3  C   UNL     1       4.185   3.774   2.414  0.00  0.00    +0.088 C 
ATOM      4  N   UNL     1       4.347   4.170   1.004  0.00  0.00    -0.298 NA
ATOM      5  C   UNL     1       5.026   5.483   0.958  0.00  0.00    +0.085 C 
ATOM      6  C   UNL     1       5.105   3.159   0.256  0.00  0.00    +0.105 C 
ENDROOT
BRANCH   3   7
ATOM      7  C   UNL     1       2.722   3.639   2.745  0.00  0.00    -0.012 A 
ATOM      8  C   UNL     1       1.936   2.719   2.076  0.00  0.00    +0.115 A 
ATOM      9  N   UNL     1       0.654   2.594   2.360  0.00  0.00    -0.263 NA
ATOM     10  C   UNL     1       0.073   3.333   3.284  0.00  0.00    +0.111 A 
ATOM     11  C   UNL     1       0.795   4.274   3.994  0.00  0.00    +0.020 A 
ATOM     12  C   UNL     1       2.147   4.430   3.728  0.00  0.00    +0.008 A 
ENDBRANCH   3   7
TORSDOF 1
ENDMDL
