MODEL 1
REMARK VINA RESULT:    -3.793      0.000      0.000
REMARK INTER + INTRA:          -4.200
REMARK INTER:                  -4.015
REMARK INTRA:                  -0.185
REMARK UNBOUND:                -0.185
REMARK  Name = Nicotine.pdb
REMARK  2 active torsions:
REMARK  status: ('A' for Active; 'I' for Inactive)
REMARK    1  A    between atoms: C_3  and  C_6
REMARK    2  A    between atoms: N_4  and  C_12
REMARK                            x       y       z     vdW  Elec       q    Type
REMARK                         _______ _______ _______ _____ _____    ______ ____
ROOT
ATOM      1  C   UNL     1       4.427  -2.331  -4.040  0.00  0.00    +0.017 C 
ATOM      2  C   UNL     1       3.077  -1.642  -4.372  0.00  0.00    +0.025 C 
ATOM      3  C   UNL     1       3.410  -0.815  -5.632  0.00  0.00    +0.088 C 
ATOM      4  N   UNL     1       4.868  -0.599  -5.640  0.00  0.00    -0.298 NA
ATOM      5  C   UNL     1       5.444  -1.231  -4.434  0.00  0.00    +0.085 C 
ATOM      6  C   UNL     1       5.474  -1.143  -6.862  0.00  0.00    +0.105 C 
ENDROOT
BRANCH   3   7
ATOM      7  C   UNL     1       2.694   0.510  -5.579  0.00  0.00    -0.012 A 
ATOM      8  C   UNL     1       2.866   1.355  -4.498  0.00  0.00    +0.115 A 
ATOM      9  N   UNL     1       2.243   2.516  -4.444  0.00  0.00    -0.263 NA
ATOM     10  C   UNL     1       1.438   2.916  -5.408  0.00  0.00    +0.111 A 
ATOM     11  C   UNL     1       1.217   2.125  -6.521  0.00  0.00    +0.020 A 
ATOM     12  C   UNL     1       1.859   0.900  -6.615  0.00  0.00    +0.008 A 
ENDBRANCH   3   7
TORSDOF 1
ENDMDL
MODEL 2
REMARK VINA RESULT:    -3.639      1.361      4.334
REMARK INTER + INTRA:          -4.036
REMARK INTER:                  -3.787
REMARK INTRA:                  -0.249
REMARK UNBOUND:                -0.185
REMARK  Name = Nicotine.pdb
REMARK  2 active torsions:
REMARK  status: ('A' for Active; 'I' for Inactive)
REMARK    1  A    between atoms: C_3  and  C_6
REMARK    2  A    between atoms: N_4  and  C_12
REMARK                            x       y       z     vdW  Elec       q    Type
REMARK                         _______ _______ _______ _____ _____    ______ ____
ROOT
ATOM      1  C   UNL     1       1.240   2.638  -5.287  0.00  0.00    +0.017 C 
ATOM      2  C   UNL     1       2.132   1.865  -4.281  0.00  0.00    +0.025 C 
ATOM      3  C   UNL     1       3.395   1.548  -5.110  0.00  0.00    +0.088 C 
ATOM      4  N   UNL     1       3.010   1.604  -6.532  0.00  0.00    -0.298 NA
ATOM      5  C   UNL     1       1.567   1.914  -6.617  0.00  0.00    +0.085 C 
ATOM      6  C   UNL     1       3.807   2.603  -7.255  0.00  0.00    +0.105 C 
ENDROOT
BRANCH   3   7
ATOM      7  C   UNL     1       3.901   0.171  -4.768  0.00  0.00    -0.012 A 
ATOM      8  C   UNL     1       5.258  -0.068  -4.658  0.00  0.00    +0.115 A 
ATOM      9  N   UNL     1       5.709  -1.271  -4.359  0.00  0.00    -0.263 NA
ATOM     10  C   UNL     1       4.893  -2.286  -4.155  0.00  0.00    +0.111 A 
ATOM     11  C   UNL     1       3.523  -2.123  -4.248  0.00  0.00    +0.020 A 
ATOM     12  C   UNL     1       3.012  -0.872  -4.555  0.00  0.00    +0.008 A 
ENDBRANCH   3   7
TORSDOF 1
ENDMDL
MODEL 3
REMARK VINA RESULT:    -3.619      0.968      1.903
REMARK INTER + INTRA:          -4.015
REMARK INTER:                  -3.802
REMARK INTRA:                  -0.214
REMARK UNBOUND:                -0.185
REMARK  Name = Nicotine.pdb
REMARK  2 active torsions:
REMARK  status: ('A' for Active; 'I' for Inactive)
REMARK    1  A    between atoms: C_3  and  C_6
REMARK    2  A    between atoms: N_4  and  C_12
REMARK                            x       y       z     vdW  Elec       q    Type
REMARK                         _______ _______ _______ _____ _____    ______ ____
ROOT
ATOM      1  C   UNL     1       5.283  -1.717  -6.558  0.00  0.00    +0.017 C 
ATOM      2  C   UNL     1       5.008  -0.217  -6.272  0.00  0.00    +0.025 C 
ATOM      3  C   UNL     1       3.959  -0.266  -5.141  0.00  0.00    +0.088 C 
ATOM      4  N   UNL     1       3.304  -1.584  -5.209  0.00  0.00    -0.298 NA
ATOM      5  C   UNL     1       3.880  -2.339  -6.342  0.00  0.00    +0.085 C 
ATOM      6  C   UNL     1       3.467  -2.320  -3.949  0.00  0.00    +0.105 C 
ENDROOT
BRANCH   3   7
ATOM      7  C   UNL     1       2.940   0.826  -5.340  0.00  0.00    -0.012 A 
ATOM      8  C   UNL     1       2.781   1.815  -4.388  0.00  0.00    +0.115 A 
ATOM      9  N   UNL     1       1.891   2.774  -4.554  0.00  0.00    -0.263 NA
ATOM     10  C   UNL     1       1.123   2.829  -5.624  0.00  0.00    +0.111 A 
ATOM     11  C   UNL     1       1.226   1.875  -6.619  0.00  0.00    +0.020 A 
ATOM     12  C   UNL     1       2.154   0.854  -6.482  0.00  0.00    +0.008 A 
ENDBRANCH   3   7
TORSDOF 1
ENDMDL
MODEL 4
REMARK VINA RESULT:    -3.451      5.678      7.656
REMARK INTER + INTRA:          -3.838
REMARK INTER:                  -3.663
REMARK INTRA:                  -0.175
REMARK UNBOUND:                -0.185
REMARK  Name = Nicotine.pdb
REMARK  2 active torsions:
REMARK  status: ('A' for Active; 'I' for Inactive)
REMARK    1  A    between atoms: C_3  and  C_6
REMARK    2  A    between atoms: N_4  and  C_12
REMARK                            x       y       z     vdW  Elec       q    Type
REMARK                         _______ _______ _______ _____ _____    ______ ____
ROOT
ATOM      1  C   UNL     1       6.467  -3.343   2.750  0.00  0.00    +0.017 C 
ATOM      2  C   UNL     1       6.038  -2.570   1.475  0.00  0.00    +0.025 C 
ATOM      3  C   UNL     1       6.515  -3.492   0.333  0.00  0.00    +0.088 C 
ATOM      4  N   UNL     1       7.583  -4.349   0.879  0.00  0.00    -0.298 NA
ATOM      5  C   UNL     1       7.803  -3.981   2.294  0.00  0.00    +0.085 C 
ATOM      6  C   UNL     1       7.236  -5.770   0.752  0.00  0.00    +0.105 C 
ENDROOT
BRANCH   3   7
ATOM      7  C   UNL     1       7.052  -2.664  -0.805  0.00  0.00    -0.012 A 
ATOM      8  C   UNL     1       8.169  -1.870  -0.625  0.00  0.00    +0.115 A 
ATOM      9  N   UNL     1       8.646  -1.142  -1.616  0.00  0.00    -0.263 NA
ATOM     10  C   UNL     1       8.083  -1.139  -2.808  0.00  0.00    +0.111 A 
ATOM     11  C   UNL     1       6.962  -1.908  -3.062  0.00  0.00    +0.020 A 
ATOM     12  C   UNL     1       6.436  -2.691  -2.047  0.00  0.00    +0.008 A 
ENDBRANCH   3   7
TORSDOF 1
ENDMDL
MODEL 5
REMARK VINA RESULT:    -3.448      2.316      3.340
REMARK INTER + INTRA:          -3.834
REMARK INTER:                  -3.645
REMARK INTRA:                  -0.190
REMARK UNBOUND:                -0.185
REMARK  Name = Nicotine.pdb
REMARK  2 active torsions:
REMARK  status: ('A' for Active; 'I' for Inactive)
REMARK    1  A    between atoms: C_3  and  C_6
REMARK    2  A    between atoms: N_4  and  C_12
REMARK                            x       y       z     vdW  Elec       q    Type
REMARK                         _______ _______ _______ _____ _____    ______ ____
ROOT
ATOM      1  C   UNL     1       3.057  -2.057  -4.274  0.00  0.00    +0.017 C 
ATOM      2  C   UNL     1       3.273  -0.568  -4.656  0.00  0.00    +0.025 C 
ATOM      3  C   UNL     1       4.694  -0.568  -5.260  0.00  0.00    +0.088 C 
ATOM      4  N   UNL     1       5.391  -1.756  -4.737  0.00  0.00    -0.298 NA
ATOM      5  C   UNL     1       4.479  -2.473  -3.821  0.00  0.00    +0.085 C 
ATOM      6  C   UNL     1       5.835  -2.631  -5.830  0.00  0.00    +0.105 C 
ENDROOT
BRANCH   3   7
ATOM      7  C   UNL     1       5.426   0.682  -4.847  0.00  0.00    -0.012 A 
ATOM      8  C   UNL     1       4.744   1.729  -4.256  0.00  0.00    +0.115 A 
ATOM      9  N   UNL     1       5.378   2.827  -3.892  0.00  0.00    -0.263 NA
ATOM     10  C   UNL     1       6.676   2.970  -4.073  0.00  0.00    +0.111 A 
ATOM     11  C   UNL     1       7.425   1.965  -4.657  0.00  0.00    +0.020 A 
ATOM     12  C   UNL     1       6.793   0.794  -5.048  0.00  0.00    +0.008 A 
ENDBRANCH   3   7
TORSDOF 1
ENDMDL
MODEL 6
REMARK VINA RESULT:    -3.430      2.630      5.356
REMARK INTER + INTRA:          -3.815
REMARK INTER:                  -3.601
REMARK INTRA:                  -0.214
REMARK UNBOUND:                -0.185
REMARK  Name = Nicotine.pdb
REMARK  2 active torsions:
REMARK  status: ('A' for Active; 'I' for Inactive)
REMARK    1  A    between atoms: C_3  and  C_6
REMARK    2  A    between atoms: N_4  and  C_12
REMARK                            x       y       z     vdW  Elec       q    Type
REMARK                         _______ _______ _______ _____ _____    ______ ____
ROOT
ATOM      1  C   UNL     1       3.136  -0.519  -4.862  0.00  0.00    +0.017 C 
ATOM      2  C   UNL     1       4.606  -0.076  -4.637  0.00  0.00    +0.025 C 
ATOM      3  C   UNL     1       5.391  -1.398  -4.770  0.00  0.00    +0.088 C 
ATOM      4  N   UNL     1       4.445  -2.497  -4.504  0.00  0.00    -0.298 NA
ATOM      5  C   UNL     1       3.123  -1.914  -4.189  0.00  0.00    +0.085 C 
ATOM      6  C   UNL     1       4.359  -3.408  -5.652  0.00  0.00    +0.105 C 
ENDROOT
BRANCH   3   7
ATOM      7  C   UNL     1       6.513  -1.432  -3.765  0.00  0.00    -0.012 A 
ATOM      8  C   UNL     1       7.550  -0.521  -3.844  0.00  0.00    +0.115 A 
ATOM      9  N   UNL     1       8.536  -0.543  -2.969  0.00  0.00    -0.263 NA
ATOM     10  C   UNL     1       8.574  -1.426  -1.991  0.00  0.00    +0.111 A 
ATOM     11  C   UNL     1       7.572  -2.368  -1.848  0.00  0.00    +0.020 A 
ATOM     12  C   UNL     1       6.517  -2.372  -2.746  0.00  0.00    +0.008 A 
ENDBRANCH   3   7
TORSDOF 1
ENDMDL
MODEL 7
REMARK VINA RESULT:    -3.424      5.125      7.445
REMARK INTER + INTRA:          -3.810
REMARK INTER:                  -3.588
REMARK INTRA:                  -0.221
REMARK UNBOUND:                -0.185
REMARK  Name = Nicotine.pdb
REMARK  2 active torsions:
REMARK  status: ('A' for Active; 'I' for Inactive)
REMARK    1  A    between atoms: C_3  and  C_6
REMARK    2  A    between atoms: N_4  and  C_12
REMARK                            x       y       z     vdW  Elec       q    Type
REMARK                         _______ _______ _______ _____ _____    ______ ____
ROOT
ATOM      1  C   UNL     1       9.484  -2.647  -2.995  0.00  0.00    +0.017 C 
ATOM      2  C   UNL     1       8.935  -3.309  -1.704  0.00  0.00    +0.025 C 
ATOM      3  C   UNL     1       7.486  -2.781  -1.632  0.00  0.00    +0.088 C 
ATOM      4  N   UNL     1       7.434  -1.539  -2.425  0.00  0.00    -0.298 NA
ATOM      5  C   UNL     1       8.785  -1.265  -2.960  0.00  0.00    +0.085 C 
ATOM      6  C   UNL     1       6.449  -1.648  -3.509  0.00  0.00    +0.105 C 
ENDROOT
BRANCH   3   7
ATOM      7  C   UNL     1       7.117  -2.491  -0.200  0.00  0.00    -0.012 A 
ATOM      8  C   UNL     1       6.020  -3.104   0.376  0.00  0.00    +0.115 A 
ATOM      9  N   UNL     1       5.689  -2.856   1.629  0.00  0.00    -0.263 NA
ATOM     10  C   UNL     1       6.384  -2.022   2.377  0.00  0.00    +0.111 A 
ATOM     11  C   UNL     1       7.494  -1.373   1.869  0.00  0.00    +0.020 A 
ATOM     12  C   UNL     1       7.875  -1.613   0.558  0.00  0.00    +0.008 A 
ENDBRANCH   3   7
TORSDOF 1
ENDMDL
MODEL 8
REMARK VINA RESULT:    -3.304      4.511      6.707
REMARK INTER + INTRA:          -3.682
REMARK INTER:                  -3.458
REMARK INTRA:                  -0.224
REMARK UNBOUND:                -0.185
REMARK  Name = Nicotine.pdb
REMARK  2 active torsions:
REMARK  status: ('A' for Active; 'I' for Inactive)
REMARK    1  A    between atoms: C_3  and  C_6
REMARK    2  A    between atoms: N_4  and  C_12
REMARK                            x       y       z     vdW  Elec       q    Type
REMARK                         _______ _______ _______ _____ _____    ______ ____
ROOT
ATOM      1  C   UNL     1       8.586  -4.669   0.314  0.00  0.00    +0.017 C 
ATOM      2  C   UNL     1       8.416  -3.731  -0.910  0.00  0.00    +0.025 C 
ATOM      3  C   UNL     1       7.140  -2.935  -0.563  0.00  0.00    +0.088 C 
ATOM      4  N   UNL     1       6.380  -3.734   0.415  0.00  0.00    -0.298 NA
ATOM      5  C   UNL     1       7.113  -4.993   0.667  0.00  0.00    +0.085 C 
ATOM      6  C   UNL     1       6.174  -2.986   1.662  0.00  0.00    +0.105 C 
ENDROOT
BRANCH   3   7
ATOM      7  C   UNL     1       6.315  -2.722  -1.805  0.00  0.00    -0.012 A 
ATOM      8  C   UNL     1       5.010  -3.173  -1.863  0.00  0.00    +0.115 A 
ATOM      9  N   UNL     1       4.280  -2.991  -2.947  0.00  0.00    -0.263 NA
ATOM     10  C   UNL     1       4.761  -2.376  -4.010  0.00  0.00    +0.111 A 
ATOM     11  C   UNL     1       6.057  -1.897  -4.025  0.00  0.00    +0.020 A 
ATOM     12  C   UNL     1       6.852  -2.066  -2.902  0.00  0.00    +0.008 A 
ENDBRANCH   3   7
TORSDOF 1
ENDMDL
MODEL 9
REMARK VINA RESULT:    -3.164      1.494      2.221
REMARK INTER + INTRA:          -3.534
REMARK INTER:                  -3.334
REMARK INTRA:                  -0.200
REMARK UNBOUND:                -0.185
REMARK  Name = Nicotine.pdb
REMARK  2 active torsions:
REMARK  status: ('A' for Active; 'I' for Inactive)
REMARK    1  A    between atoms: C_3  and  C_6
REMARK    2  A    between atoms: N_4  and  C_12
REMARK                            x       y       z     vdW  Elec       q    Type
REMARK                         _______ _______ _______ _____ _____    ______ ____
ROOT
ATOM      1  C   UNL     1       7.313  -2.066  -4.775  0.00  0.00    +0.017 C 
ATOM      2  C   UNL     1       6.404  -1.022  -4.075  0.00  0.00    +0.025 C 
ATOM      3  C   UNL     1       5.000  -1.367  -4.615  0.00  0.00    +0.088 C 
ATOM      4  N   UNL     1       5.186  -2.095  -5.883  0.00  0.00    -0.298 NA
ATOM      5  C   UNL     1       6.634  -2.192  -6.162  0.00  0.00    +0.085 C 
ATOM      6  C   UNL     1       4.570  -3.427  -5.821  0.00  0.00    +0.105 C 
ENDROOT
BRANCH   3   7
ATOM      7  C   UNL     1       4.219  -0.101  -4.858  0.00  0.00    -0.012 A 
ATOM      8  C   UNL     1       4.771   1.129  -4.556  0.00  0.00    +0.115 A 
ATOM      9  N   UNL     1       4.095   2.242  -4.767  0.00  0.00    -0.263 NA
ATOM     10  C   UNL     1       2.876   2.228  -5.268  0.00  0.00    +0.111 A 
ATOM     11  C   UNL     1       2.259   1.034  -5.595  0.00  0.00    +0.020 A 
ATOM     12  C   UNL     1       2.941  -0.156  -5.393  0.00  0.00    +0.008 A 
ENDBRANCH   3   7
TORSDOF 1
ENDMDL
MODEL 10
REMARK VINA RESULT:    -3.062      1.964      4.526
REMARK INTER + INTRA:          -3.426
REMARK INTER:                  -3.195
REMARK INTRA:                  -0.232
REMARK UNBOUND:                -0.185
REMARK  Name = Nicotine.pdb
REMARK  2 active torsions:
REMARK  status: ('A' for Active; 'I' for Inactive)
REMARK    1  A    between atoms: C_3  and  C_6
REMARK    2  A    between atoms: N_4  and  C_12
REMARK                            x       y       z     vdW  Elec       q    Type
REMARK                         _______ _______ _______ _____ _____    ______ ____
ROOT
ATOM      1  C   UNL     1       2.697   1.736  -5.195  0.00  0.00    +0.017 C 
ATOM      2  C   UNL     1       2.751   0.218  -4.880  0.00  0.00    +0.025 C 
ATOM      3  C   UNL     1       4.265  -0.065  -4.791  0.00  0.00    +0.088 C 
ATOM      4  N   UNL     1       4.953   1.001  -5.542  0.00  0.00    -0.298 NA
ATOM      5  C   UNL     1       3.935   1.910  -6.110  0.00  0.00    +0.085 C 
ATOM      6  C   UNL     1       5.891   1.732  -4.681  0.00  0.00    +0.105 C 
ENDROOT
BRANCH   3   7
ATOM      7  C   UNL     1       4.574  -1.406  -5.404  0.00  0.00    -0.012 A 
ATOM      8  C   UNL     1       5.883  -1.823  -5.551  0.00  0.00    +0.115 A 
ATOM      9  N   UNL     1       6.162  -2.996  -6.086  0.00  0.00    -0.263 NA
ATOM     10  C   UNL     1       5.212  -3.812  -6.499  0.00  0.00    +0.111 A 
ATOM     11  C   UNL     1       3.880  -3.464  -6.384  0.00  0.00    +0.020 A 
ATOM     12  C   UNL     1       3.548  -2.241  -5.822  0.00  0.00    +0.008 A 
ENDBRANCH   3   7
TORSDOF 1
ENDMDL
