MODEL 1
REMARK VINA RESULT:     0.000      0.000      0.000
REMARK INTER + INTRA:          -0.256
REMARK INTER:                   0.000
REMARK INTRA:                  -0.256
REMARK UNBOUND:                -0.256
REMARK  Name = Nicotine.pdb
REMARK  2 active torsions:
REMARK  status: ('A' for Active; 'I' for Inactive)
REMARK    1  A    between atoms: C_3  and  C_6
REMARK    2  A    between atoms: N_4  and  C_12
REMARK                            x       y       z     vdW  Elec       q    Type
REMARK                         _______ _______ _______ _____ _____    ______ ____
ROOT
ATOM      1  C   UNL     1       4.451  -2.503  -3.655  0.00  0.00    +0.017 C 
ATOM      2  C   UNL     1       3.249  -2.974  -2.794  0.00  0.00    +0.025 C 
ATOM      3  C   UNL     1       2.751  -1.664  -2.147  0.00  0.00    +0.088 C 
ATOM      4  N   UNL     1       3.876  -0.712  -2.167  0.00  0.00    -0.298 NA
ATOM      5  C   UNL     1       5.048  -1.380  -2.771  0.00  0.00    +0.085 C 
ATOM      6  C   UNL     1       3.523   0.505  -2.909  0.00  0.00    +0.105 C 
ENDROOT
BRANCH   3   7
ATOM      7  C   UNL     1       2.323  -1.924  -0.726  0.00  0.00    -0.012 A 
ATOM      8  C   UNL     1       1.455  -1.059  -0.088  0.00  0.00    +0.115 A 
ATOM      9  N   UNL     1       1.075  -1.279   1.156  0.00  0.00    -0.263 NA
ATOM     10  C   UNL     1       1.504  -2.323   1.837  0.00  0.00    +0.111 A 
ATOM     11  C   UNL     1       2.374  -3.233   1.264  0.00  0.00    +0.020 A 
ATOM     12  C   UNL     1       2.791  -3.037  -0.043  0.00  0.00    +0.008 A 
ENDBRANCH   3   7
TORSDOF 1
ENDMDL
MODEL 2
REMARK VINA RESULT:     0.000      8.010      9.405
REMARK INTER + INTRA:          -0.256
REMARK INTER:                   0.000
REMARK INTRA:                  -0.256
REMARK UNBOUND:                -0.256
REMARK  Name = Nicotine.pdb
REMARK  2 active torsions:
REMARK  status: ('A' for Active; 'I' for Inactive)
REMARK    1  A    between atoms: C_3  and  C_6
REMARK    2  A    between atoms: N_4  and  C_12
REMARK                            x       y       z     vdW  Elec       q    Type
REMARK                         _______ _______ _______ _____ _____    ______ ____
ROOT
ATOM      1  C   UNL     1      -3.075   2.722  -5.521  0.00  0.00    +0.017 C 
ATOM      2  C   UNL     1      -2.537   3.868  -4.626  0.00  0.00    +0.025 C 
ATOM      3  C   UNL     1      -2.886   3.388  -3.201  0.00  0.00    +0.088 C 
ATOM      4  N   UNL     1      -3.988   2.417  -3.324  0.00  0.00    -0.298 NA
ATOM      5  C   UNL     1      -4.351   2.296  -4.752  0.00  0.00    +0.085 C 
ATOM      6  C   UNL     1      -3.607   1.114  -2.764  0.00  0.00    +0.105 C 
ENDROOT
BRANCH   3   7
ATOM      7  C   UNL     1      -3.324   4.558  -2.358  0.00  0.00    -0.012 A 
ATOM      8  C   UNL     1      -3.265   4.487  -0.979  0.00  0.00    +0.115 A 
ATOM      9  N   UNL     1      -3.647   5.507  -0.235  0.00  0.00    -0.263 NA
ATOM     10  C   UNL     1      -4.095   6.626  -0.769  0.00  0.00    +0.111 A 
ATOM     11  C   UNL     1      -4.181   6.770  -2.141  0.00  0.00    +0.020 A 
ATOM     12  C   UNL     1      -3.784   5.721  -2.956  0.00  0.00    +0.008 A 
ENDBRANCH   3   7
TORSDOF 1
ENDMDL
MODEL 3
REMARK VINA RESULT:     0.000      6.070      7.660
REMARK INTER + INTRA:          -0.256
REMARK INTER:                   0.000
REMARK INTRA:                  -0.256
REMARK UNBOUND:                -0.256
REMARK  Name = Nicotine.pdb
REMARK  2 active torsions:
REMARK  status: ('A' for Active; 'I' for Inactive)
REMARK    1  A    between atoms: C_3  and  C_6
REMARK    2  A    between atoms: N_4  and  C_12
REMARK                            x       y       z     vdW  Elec       q    Type
REMARK                         _______ _______ _______ _____ _____    ______ ____
ROOT
ATOM      1  C   UNL     1      -2.545   1.926  -3.589  0.00  0.00    +0.017 C 
ATOM      2  C   UNL     1      -2.241   2.848  -2.379  0.00  0.00    +0.025 C 
ATOM      3  C   UNL     1      -2.269   1.873  -1.183  0.00  0.00    +0.088 C 
ATOM      4  N   UNL     1      -3.067   0.703  -1.592  0.00  0.00    -0.298 NA
ATOM      5  C   UNL     1      -3.551   0.922  -2.972  0.00  0.00    +0.085 C 
ATOM      6  C   UNL     1      -2.277  -0.532  -1.501  0.00  0.00    +0.105 C 
ENDROOT
BRANCH   3   7
ATOM      7  C   UNL     1      -2.909   2.540   0.007  0.00  0.00    -0.012 A 
ATOM      8  C   UNL     1      -2.668   2.071   1.284  0.00  0.00    +0.115 A 
ATOM      9  N   UNL     1      -3.223   2.649   2.332  0.00  0.00    -0.263 NA
ATOM     10  C   UNL     1      -4.024   3.689   2.205  0.00  0.00    +0.111 A 
ATOM     11  C   UNL     1      -4.311   4.214   0.959  0.00  0.00    +0.020 A 
ATOM     12  C   UNL     1      -3.741   3.636  -0.164  0.00  0.00    +0.008 A 
ENDBRANCH   3   7
TORSDOF 1
ENDMDL
MODEL 4
REMARK VINA RESULT:     0.000      5.230      5.760
REMARK INTER + INTRA:          -0.256
REMARK INTER:                   0.000
REMARK INTRA:                  -0.256
REMARK UNBOUND:                -0.256
REMARK  Name = Nicotine.pdb
REMARK  2 active torsions:
REMARK  status: ('A' for Active; 'I' for Inactive)
REMARK    1  A    between atoms: C_3  and  C_6
REMARK    2  A    between atoms: N_4  and  C_12
REMARK                            x       y       z     vdW  Elec       q    Type
REMARK                         _______ _______ _______ _____ _____    ______ ____
ROOT
ATOM      1  C   UNL     1       1.505   3.672   0.706  0.00  0.00    +0.017 C 
ATOM      2  C   UNL     1       1.460   2.306   1.440  0.00  0.00    +0.025 C 
ATOM      3  C   UNL     1       0.266   1.592   0.772  0.00  0.00    +0.088 C 
ATOM      4  N   UNL     1      -0.594   2.635   0.185  0.00  0.00    -0.298 NA
ATOM      5  C   UNL     1      -0.001   3.956   0.482  0.00  0.00    +0.085 C 
ATOM      6  C   UNL     1      -0.748   2.438  -1.262  0.00  0.00    +0.105 C 
ENDROOT
BRANCH   3   7
ATOM      7  C   UNL     1      -0.505   0.809   1.804  0.00  0.00    -0.012 A 
ATOM      8  C   UNL     1      -1.321  -0.238   1.420  0.00  0.00    +0.115 A 
ATOM      9  N   UNL     1      -1.999  -0.928   2.316  0.00  0.00    -0.263 NA
ATOM     10  C   UNL     1      -1.929  -0.651   3.603  0.00  0.00    +0.111 A 
ATOM     11  C   UNL     1      -1.133   0.383   4.061  0.00  0.00    +0.020 A 
ATOM     12  C   UNL     1      -0.401   1.127   3.149  0.00  0.00    +0.008 A 
ENDBRANCH   3   7
TORSDOF 1
ENDMDL
MODEL 5
REMARK VINA RESULT:     0.000      5.933      7.011
REMARK INTER + INTRA:          -0.256
REMARK INTER:                   0.000
REMARK INTRA:                  -0.256
REMARK UNBOUND:                -0.256
REMARK  Name = Nicotine.pdb
REMARK  2 active torsions:
REMARK  status: ('A' for Active; 'I' for Inactive)
REMARK    1  A    between atoms: C_3  and  C_6
REMARK    2  A    between atoms: N_4  and  C_12
REMARK                            x       y       z     vdW  Elec       q    Type
REMARK                         _______ _______ _______ _____ _____    ______ ____
ROOT
ATOM      1  C   UNL     1      -2.311   3.117  -5.781  0.00  0.00    +0.017 C 
ATOM      2  C   UNL     1      -2.588   2.271  -4.511  0.00  0.00    +0.025 C 
ATOM      3  C   UNL     1      -2.481   3.308  -3.373  0.00  0.00    +0.088 C 
ATOM      4  N   UNL     1      -1.670   4.430  -3.879  0.00  0.00    -0.298 NA
ATOM      5  C   UNL     1      -1.252   4.122  -5.263  0.00  0.00    +0.085 C 
ATOM      6  C   UNL     1      -2.422   5.691  -3.824  0.00  0.00    +0.105 C 
ENDROOT
BRANCH   3   7
ATOM      7  C   UNL     1      -1.810   2.688  -2.175  0.00  0.00    -0.012 A 
ATOM      8  C   UNL     1      -1.983   3.233  -0.917  0.00  0.00    +0.115 A 
ATOM      9  N   UNL     1      -1.400   2.697   0.137  0.00  0.00    -0.263 NA
ATOM     10  C   UNL     1      -0.634   1.629   0.036  0.00  0.00    +0.111 A 
ATOM     11  C   UNL     1      -0.415   1.028  -1.189  0.00  0.00    +0.020 A 
ATOM     12  C   UNL     1      -1.016   1.561  -2.319  0.00  0.00    +0.008 A 
ENDBRANCH   3   7
TORSDOF 1
ENDMDL
MODEL 6
REMARK VINA RESULT:     0.000      3.310      4.321
REMARK INTER + INTRA:          -0.256
REMARK INTER:                   0.000
REMARK INTRA:                  -0.256
REMARK UNBOUND:                -0.256
REMARK  Name = Nicotine.pdb
REMARK  2 active torsions:
REMARK  status: ('A' for Active; 'I' for Inactive)
REMARK    1  A    between atoms: C_3  and  C_6
REMARK    2  A    between atoms: N_4  and  C_12
REMARK                            x       y       z     vdW  Elec       q    Type
REMARK                         _______ _______ _______ _____ _____    ______ ____
ROOT
ATOM      1  C   UNL     1       3.952  -3.798   2.836  0.00  0.00    +0.017 C 
ATOM      2  C   UNL     1       3.102  -3.520   1.569  0.00  0.00    +0.025 C 
ATOM      3  C   UNL     1       3.027  -1.978   1.533  0.00  0.00    +0.088 C 
ATOM      4  N   UNL     1       3.281  -1.496   2.902  0.00  0.00    -0.298 NA
ATOM      5  C   UNL     1       3.482  -2.666   3.784  0.00  0.00    +0.085 C 
ATOM      6  C   UNL     1       4.445  -0.602   2.939  0.00  0.00    +0.105 C 
ENDROOT
BRANCH   3   7
ATOM      7  C   UNL     1       1.658  -1.542   1.079  0.00  0.00    -0.012 A 
ATOM      8  C   UNL     1       1.467  -0.280   0.549  0.00  0.00    +0.115 A 
ATOM      9  N   UNL     1       0.272   0.110   0.150  0.00  0.00    -0.263 NA
ATOM     10  C   UNL     1      -0.780  -0.680   0.238  0.00  0.00    +0.111 A 
ATOM     11  C   UNL     1      -0.666  -1.956   0.757  0.00  0.00    +0.020 A 
ATOM     12  C   UNL     1       0.576  -2.403   1.183  0.00  0.00    +0.008 A 
ENDBRANCH   3   7
TORSDOF 1
ENDMDL
MODEL 7
REMARK VINA RESULT:     0.000      4.388      6.289
REMARK INTER + INTRA:          -0.256
REMARK INTER:                   0.000
REMARK INTRA:                  -0.256
REMARK UNBOUND:                -0.256
REMARK  Name = Nicotine.pdb
REMARK  2 active torsions:
REMARK  status: ('A' for Active; 'I' for Inactive)
REMARK    1  A    between atoms: C_3  and  C_6
REMARK    2  A    between atoms: N_4  and  C_12
REMARK                            x       y       z     vdW  Elec       q    Type
REMARK                         _______ _______ _______ _____ _____    ______ ____
ROOT
ATOM      1  C   UNL     1      -2.425   1.600  -2.631  0.00  0.00    +0.017 C 
ATOM      2  C   UNL     1      -1.204   2.024  -1.773  0.00  0.00    +0.025 C 
ATOM      3  C   UNL     1      -0.408   2.937  -2.729  0.00  0.00    +0.088 C 
ATOM      4  N   UNL     1      -0.808   2.585  -4.103  0.00  0.00    -0.298 NA
ATOM      5  C   UNL     1      -1.792   1.483  -4.040  0.00  0.00    +0.085 C 
ATOM      6  C   UNL     1      -1.365   3.749  -4.804  0.00  0.00    +0.105 C 
ENDROOT
BRANCH   3   7
ATOM      7  C   UNL     1       1.070   2.705  -2.549  0.00  0.00    -0.012 A 
ATOM      8  C   UNL     1       1.981   3.667  -2.940  0.00  0.00    +0.115 A 
ATOM      9  N   UNL     1       3.276   3.472  -2.785  0.00  0.00    -0.263 NA
ATOM     10  C   UNL     1       3.752   2.361  -2.257  0.00  0.00    +0.111 A 
ATOM     11  C   UNL     1       2.900   1.355  -1.841  0.00  0.00    +0.020 A 
ATOM     12  C   UNL     1       1.532   1.526  -1.983  0.00  0.00    +0.008 A 
ENDBRANCH   3   7
TORSDOF 1
ENDMDL
MODEL 8
REMARK VINA RESULT:     0.000      3.561      5.475
REMARK INTER + INTRA:          -0.256
REMARK INTER:                   0.000
REMARK INTRA:                  -0.256
REMARK UNBOUND:                -0.256
REMARK  Name = Nicotine.pdb
REMARK  2 active torsions:
REMARK  status: ('A' for Active; 'I' for Inactive)
REMARK    1  A    between atoms: C_3  and  C_6
REMARK    2  A    between atoms: N_4  and  C_12
REMARK                            x       y       z     vdW  Elec       q    Type
REMARK                         _______ _______ _______ _____ _____    ______ ____
ROOT
ATOM      1  C   UNL     1       2.133  -2.081  -0.955  0.00  0.00    +0.017 C 
ATOM      2  C   UNL     1       1.549  -2.162  -2.390  0.00  0.00    +0.025 C 
ATOM      3  C   UNL     1       0.636  -3.405  -2.323  0.00  0.00    +0.088 C 
ATOM      4  N   UNL     1       1.113  -4.237  -1.204  0.00  0.00    -0.298 NA
ATOM      5  C   UNL     1       2.289  -3.580  -0.595  0.00  0.00    +0.085 C 
ATOM      6  C   UNL     1       0.051  -4.442  -0.210  0.00  0.00    +0.105 C 
ENDROOT
BRANCH   3   7
ATOM      7  C   UNL     1       0.727  -4.178  -3.613  0.00  0.00    -0.012 A 
ATOM      8  C   UNL     1      -0.281  -5.049  -3.979  0.00  0.00    +0.115 A 
ATOM      9  N   UNL     1      -0.210  -5.729  -5.107  0.00  0.00    -0.263 NA
ATOM     10  C   UNL     1       0.818  -5.609  -5.924  0.00  0.00    +0.111 A 
ATOM     11  C   UNL     1       1.864  -4.757  -5.625  0.00  0.00    +0.020 A 
ATOM     12  C   UNL     1       1.821  -4.021  -4.451  0.00  0.00    +0.008 A 
ENDBRANCH   3   7
TORSDOF 1
ENDMDL
MODEL 9
REMARK VINA RESULT:     0.000      4.949      7.193
REMARK INTER + INTRA:          -0.256
REMARK INTER:                   0.000
REMARK INTRA:                  -0.256
REMARK UNBOUND:                -0.256
REMARK  Name = Nicotine.pdb
REMARK  2 active torsions:
REMARK  status: ('A' for Active; 'I' for Inactive)
REMARK    1  A    between atoms: C_3  and  C_6
REMARK    2  A    between atoms: N_4  and  C_12
REMARK                            x       y       z     vdW  Elec       q    Type
REMARK                         _______ _______ _______ _____ _____    ______ ____
ROOT
ATOM      1  C   UNL     1      -2.329   2.705   2.657  0.00  0.00    +0.017 C 
ATOM      2  C   UNL     1      -2.780   1.674   1.589  0.00  0.00    +0.025 C 
ATOM      3  C   UNL     1      -2.819   0.349   2.382  0.00  0.00    +0.088 C 
ATOM      4  N   UNL     1      -1.940   0.515   3.553  0.00  0.00    -0.298 NA
ATOM      5  C   UNL     1      -1.342   1.866   3.506  0.00  0.00    +0.085 C 
ATOM      6  C   UNL     1      -2.683   0.310   4.803  0.00  0.00    +0.105 C 
ENDROOT
BRANCH   3   7
ATOM      7  C   UNL     1      -2.318  -0.779   1.518  0.00  0.00    -0.012 A 
ATOM      8  C   UNL     1      -2.654  -2.087   1.814  0.00  0.00    +0.115 A 
ATOM      9  N   UNL     1      -2.220  -3.081   1.063  0.00  0.00    -0.263 NA
ATOM     10  C   UNL     1      -1.455  -2.872   0.011  0.00  0.00    +0.111 A 
ATOM     11  C   UNL     1      -1.078  -1.591  -0.347  0.00  0.00    +0.020 A 
ATOM     12  C   UNL     1      -1.520  -0.520   0.415  0.00  0.00    +0.008 A 
ENDBRANCH   3   7
TORSDOF 1
ENDMDL
MODEL 10
REMARK VINA RESULT:     0.000      6.663      7.629
REMARK INTER + INTRA:          -0.256
REMARK INTER:                   0.000
REMARK INTRA:                  -0.256
REMARK UNBOUND:                -0.256
REMARK  Name = Nicotine.pdb
REMARK  2 active torsions:
REMARK  status: ('A' for Active; 'I' for Inactive)
REMARK    1  A    between atoms: C_3  and  C_6
REMARK    2  A    between atoms: N_4  and  C_12
REMARK                            x       y       z     vdW  Elec       q    Type
REMARK                         _______ _______ _______ _____ _____    ______ ____
ROOT
ATOM      1  C   UNL     1       5.934   6.307   1.594  0.00  0.00    +0.017 C 
ATOM      2  C   UNL     1       6.130   5.261   2.723  0.00  0.00    +0.025 C 
ATOM      3  C   UNL     1       7.115   4.252   2.095  0.00  0.00    +0.088 C 
ATOM      4  N   UNL     1       7.007   4.390   0.631  0.00  0.00    -0.298 NA
ATOM      5  C   UNL     1       5.985   5.415   0.329  0.00  0.00    +0.085 C 
ATOM      6  C   UNL     1       8.302   4.745   0.038  0.00  0.00    +0.105 C 
ENDROOT
BRANCH   3   7
ATOM      7  C   UNL     1       6.747   2.851   2.508  0.00  0.00    -0.012 A 
ATOM      8  C   UNL     1       7.685   1.838   2.457  0.00  0.00    +0.115 A 
ATOM      9  N   UNL     1       7.372   0.608   2.817  0.00  0.00    -0.263 NA
ATOM     10  C   UNL     1       6.161   0.297   3.237  0.00  0.00    +0.111 A 
ATOM     11  C   UNL     1       5.170   1.257   3.315  0.00  0.00    +0.020 A 
ATOM     12  C   UNL     1       5.465   2.562   2.950  0.00  0.00    +0.008 A 
ENDBRANCH   3   7
TORSDOF 1
ENDMDL
