MODEL 1
REMARK VINA RESULT:     0.000      0.000      0.000
REMARK INTER + INTRA:          -0.256
REMARK INTER:                   0.000
REMARK INTRA:                  -0.256
REMARK UNBOUND:                -0.256
REMARK  Name = Nicotine.pdb
REMARK  2 active torsions:
REMARK  status: ('A' for Active; 'I' for Inactive)
REMARK    1  A    between atoms: C_3  and  C_6
REMARK    2  A    between atoms: N_4  and  C_12
REMARK                            x       y       z     vdW  Elec       q    Type
REMARK                         _______ _______ _______ _____ _____    ______ ____
ROOT
ATOM      1  C   UNL     1       3.796   2.080   3.120  0.00  0.00    +0.017 C 
ATOM      2  C   UNL     1       3.999   1.064   4.275  0.00  0.00    +0.025 C 
ATOM      3  C   UNL     1       5.481   0.660   4.126  0.00  0.00    +0.088 C 
ATOM      4  N   UNL     1       5.874   0.944   2.734  0.00  0.00    -0.298 NA
ATOM      5  C   UNL     1       4.699   1.479   2.013  0.00  0.00    +0.085 C 
ATOM      6  C   UNL     1       6.997   1.889   2.686  0.00  0.00    +0.105 C 
ENDROOT
BRANCH   3   7
ATOM      7  C   UNL     1       5.644  -0.809   4.416  0.00  0.00    -0.012 A 
ATOM      8  C   UNL     1       6.876  -1.318   4.779  0.00  0.00    +0.115 A 
ATOM      9  N   UNL     1       7.027  -2.603   5.034  0.00  0.00    -0.263 NA
ATOM     10  C   UNL     1       6.019  -3.449   4.955  0.00  0.00    +0.111 A 
ATOM     11  C   UNL     1       4.756  -3.013   4.599  0.00  0.00    +0.020 A 
ATOM     12  C   UNL     1       4.558  -1.668   4.328  0.00  0.00    +0.008 A 
ENDBRANCH   3   7
TORSDOF 1
ENDMDL
MODEL 2
REMARK VINA RESULT:     0.000      4.528      5.835
REMARK INTER + INTRA:          -0.256
REMARK INTER:                   0.000
REMARK INTRA:                  -0.256
REMARK UNBOUND:                -0.256
REMARK  Name = Nicotine.pdb
REMARK  2 active torsions:
REMARK  status: ('A' for Active; 'I' for Inactive)
REMARK    1  A    between atoms: C_3  and  C_6
REMARK    2  A    between atoms: N_4  and  C_12
REMARK                            x       y       z     vdW  Elec       q    Type
REMARK                         _______ _______ _______ _____ _____    ______ ____
ROOT
ATOM      1  C   UNL     1       1.516   3.002  -1.891  0.00  0.00    +0.017 C 
ATOM      2  C   UNL     1       2.626   2.428  -0.971  0.00  0.00    +0.025 C 
ATOM      3  C   UNL     1       2.913   1.046  -1.593  0.00  0.00    +0.088 C 
ATOM      4  N   UNL     1       1.722   0.661  -2.371  0.00  0.00    -0.298 NA
ATOM      5  C   UNL     1       0.707   1.727  -2.237  0.00  0.00    +0.085 C 
ATOM      6  C   UNL     1       2.064   0.434  -3.781  0.00  0.00    +0.105 C 
ENDROOT
BRANCH   3   7
ATOM      7  C   UNL     1       3.164   0.035  -0.504  0.00  0.00    -0.012 A 
ATOM      8  C   UNL     1       3.858  -1.129  -0.777  0.00  0.00    +0.115 A 
ATOM      9  N   UNL     1       4.082  -2.018   0.170  0.00  0.00    -0.263 NA
ATOM     10  C   UNL     1       3.659  -1.837   1.405  0.00  0.00    +0.111 A 
ATOM     11  C   UNL     1       2.959  -0.697   1.753  0.00  0.00    +0.020 A 
ATOM     12  C   UNL     1       2.708   0.263   0.785  0.00  0.00    +0.008 A 
ENDBRANCH   3   7
TORSDOF 1
ENDMDL
MODEL 3
REMARK VINA RESULT:     0.000      6.234      7.164
REMARK INTER + INTRA:          -0.256
REMARK INTER:                   0.000
REMARK INTRA:                  -0.256
REMARK UNBOUND:                -0.256
REMARK  Name = Nicotine.pdb
REMARK  2 active torsions:
REMARK  status: ('A' for Active; 'I' for Inactive)
REMARK    1  A    between atoms: C_3  and  C_6
REMARK    2  A    between atoms: N_4  and  C_12
REMARK                            x       y       z     vdW  Elec       q    Type
REMARK                         _______ _______ _______ _____ _____    ______ ____
ROOT
ATOM      1  C   UNL     1       8.936  -4.776  -2.338  0.00  0.00    +0.017 C 
ATOM      2  C   UNL     1       7.431  -4.990  -2.030  0.00  0.00    +0.025 C 
ATOM      3  C   UNL     1       6.803  -3.632  -2.410  0.00  0.00    +0.088 C 
ATOM      4  N   UNL     1       7.877  -2.624  -2.358  0.00  0.00    -0.298 NA
ATOM      5  C   UNL     1       9.129  -3.291  -1.941  0.00  0.00    +0.085 C 
ATOM      6  C   UNL     1       8.042  -1.961  -3.659  0.00  0.00    +0.105 C 
ENDROOT
BRANCH   3   7
ATOM      7  C   UNL     1       5.717  -3.276  -1.428  0.00  0.00    -0.012 A 
ATOM      8  C   UNL     1       4.731  -2.372  -1.773  0.00  0.00    +0.115 A 
ATOM      9  N   UNL     1       3.777  -2.055  -0.919  0.00  0.00    -0.263 NA
ATOM     10  C   UNL     1       3.724  -2.583   0.288  0.00  0.00    +0.111 A 
ATOM     11  C   UNL     1       4.676  -3.495   0.704  0.00  0.00    +0.020 A 
ATOM     12  C   UNL     1       5.691  -3.856  -0.169  0.00  0.00    +0.008 A 
ENDBRANCH   3   7
TORSDOF 1
ENDMDL
MODEL 4
REMARK VINA RESULT:     0.000      3.913      6.115
REMARK INTER + INTRA:          -0.256
REMARK INTER:                   0.000
REMARK INTRA:                  -0.256
REMARK UNBOUND:                -0.256
REMARK  Name = Nicotine.pdb
REMARK  2 active torsions:
REMARK  status: ('A' for Active; 'I' for Inactive)
REMARK    1  A    between atoms: C_3  and  C_6
REMARK    2  A    between atoms: N_4  and  C_12
REMARK                            x       y       z     vdW  Elec       q    Type
REMARK                         _______ _______ _______ _____ _____    ______ ____
ROOT
ATOM      1  C   UNL     1      -0.795   4.799   1.149  0.00  0.00    +0.017 C 
ATOM      2  C   UNL     1       0.416   4.912   2.112  0.00  0.00    +0.025 C 
ATOM      3  C   UNL     1       1.613   4.553   1.207  0.00  0.00    +0.088 C 
ATOM      4  N   UNL     1       1.086   3.769   0.075  0.00  0.00    -0.298 NA
ATOM      5  C   UNL     1      -0.373   3.608   0.253  0.00  0.00    +0.085 C 
ATOM      6  C   UNL     1       1.392   4.421  -1.205  0.00  0.00    +0.105 C 
ENDROOT
BRANCH   3   7
ATOM      7  C   UNL     1       2.612   3.731   1.980  0.00  0.00    -0.012 A 
ATOM      8  C   UNL     1       3.928   3.657   1.564  0.00  0.00    +0.115 A 
ATOM      9  N   UNL     1       4.808   2.940   2.236  0.00  0.00    -0.263 NA
ATOM     10  C   UNL     1       4.473   2.269   3.320  0.00  0.00    +0.111 A 
ATOM     11  C   UNL     1       3.175   2.296   3.796  0.00  0.00    +0.020 A 
ATOM     12  C   UNL     1       2.224   3.044   3.120  0.00  0.00    +0.008 A 
ENDBRANCH   3   7
TORSDOF 1
ENDMDL
MODEL 5
REMARK VINA RESULT:     0.000      9.007     11.452
REMARK INTER + INTRA:          -0.256
REMARK INTER:                   0.000
REMARK INTRA:                  -0.256
REMARK UNBOUND:                -0.256
REMARK  Name = Nicotine.pdb
REMARK  2 active torsions:
REMARK  status: ('A' for Active; 'I' for Inactive)
REMARK    1  A    between atoms: C_3  and  C_6
REMARK    2  A    between atoms: N_4  and  C_12
REMARK                            x       y       z     vdW  Elec       q    Type
REMARK                         _______ _______ _______ _____ _____    ______ ____
ROOT
ATOM      1  C   UNL     1       2.084   3.313  -5.158  0.00  0.00    +0.017 C 
ATOM      2  C   UNL     1       0.669   3.868  -5.473  0.00  0.00    +0.025 C 
ATOM      3  C   UNL     1       0.017   3.968  -4.077  0.00  0.00    +0.088 C 
ATOM      4  N   UNL     1       0.741   3.040  -3.189  0.00  0.00    -0.298 NA
ATOM      5  C   UNL     1       1.789   2.356  -3.976  0.00  0.00    +0.085 C 
ATOM      6  C   UNL     1       1.322   3.752  -2.044  0.00  0.00    +0.105 C 
ENDROOT
BRANCH   3   7
ATOM      7  C   UNL     1      -1.435   3.574  -4.160  0.00  0.00    -0.012 A 
ATOM      8  C   UNL     1      -2.327   3.986  -3.189  0.00  0.00    +0.115 A 
ATOM      9  N   UNL     1      -3.600   3.645  -3.254  0.00  0.00    -0.263 NA
ATOM     10  C   UNL     1      -4.069   2.904  -4.238  0.00  0.00    +0.111 A 
ATOM     11  C   UNL     1      -3.236   2.455  -5.246  0.00  0.00    +0.020 A 
ATOM     12  C   UNL     1      -1.893   2.798  -5.214  0.00  0.00    +0.008 A 
ENDBRANCH   3   7
TORSDOF 1
ENDMDL
MODEL 6
REMARK VINA RESULT:     0.000      3.740      4.954
REMARK INTER + INTRA:          -0.256
REMARK INTER:                   0.000
REMARK INTRA:                  -0.256
REMARK UNBOUND:                -0.256
REMARK  Name = Nicotine.pdb
REMARK  2 active torsions:
REMARK  status: ('A' for Active; 'I' for Inactive)
REMARK    1  A    between atoms: C_3  and  C_6
REMARK    2  A    between atoms: N_4  and  C_12
REMARK                            x       y       z     vdW  Elec       q    Type
REMARK                         _______ _______ _______ _____ _____    ______ ____
ROOT
ATOM      1  C   UNL     1       0.508   1.060   5.400  0.00  0.00    +0.017 C 
ATOM      2  C   UNL     1       1.765   1.001   4.492  0.00  0.00    +0.025 C 
ATOM      3  C   UNL     1       1.216   0.407   3.178  0.00  0.00    +0.088 C 
ATOM      4  N   UNL     1      -0.024  -0.318   3.509  0.00  0.00    -0.298 NA
ATOM      5  C   UNL     1      -0.251  -0.220   4.967  0.00  0.00    +0.085 C 
ATOM      6  C   UNL     1      -1.166   0.222   2.760  0.00  0.00    +0.105 C 
ENDROOT
BRANCH   3   7
ATOM      7  C   UNL     1       2.224  -0.544   2.585  0.00  0.00    -0.012 A 
ATOM      8  C   UNL     1       2.182  -0.858   1.240  0.00  0.00    +0.115 A 
ATOM      9  N   UNL     1       3.060  -1.689   0.713  0.00  0.00    -0.263 NA
ATOM     10  C   UNL     1       4.006  -2.250   1.440  0.00  0.00    +0.111 A 
ATOM     11  C   UNL     1       4.112  -1.983   2.792  0.00  0.00    +0.020 A 
ATOM     12  C   UNL     1       3.209  -1.110   3.380  0.00  0.00    +0.008 A 
ENDBRANCH   3   7
TORSDOF 1
ENDMDL
MODEL 7
REMARK VINA RESULT:     0.000      4.888      6.345
REMARK INTER + INTRA:          -0.256
REMARK INTER:                   0.000
REMARK INTRA:                  -0.256
REMARK UNBOUND:                -0.256
REMARK  Name = Nicotine.pdb
REMARK  2 active torsions:
REMARK  status: ('A' for Active; 'I' for Inactive)
REMARK    1  A    between atoms: C_3  and  C_6
REMARK    2  A    between atoms: N_4  and  C_12
REMARK                            x       y       z     vdW  Elec       q    Type
REMARK                         _______ _______ _______ _____ _____    ______ ____
ROOT
ATOM      1  C   UNL     1       4.082  -0.470  -3.410  0.00  0.00    +0.017 C 
ATOM      2  C   UNL     1       5.126  -0.785  -2.307  0.00  0.00    +0.025 C 
ATOM      3  C   UNL     1       5.017   0.434  -1.367  0.00  0.00    +0.088 C 
ATOM      4  N   UNL     1       4.441   1.541  -2.152  0.00  0.00    -0.298 NA
ATOM      5  C   UNL     1       4.214   1.068  -3.535  0.00  0.00    +0.085 C 
ATOM      6  C   UNL     1       3.192   2.022  -1.548  0.00  0.00    +0.105 C 
ENDROOT
BRANCH   3   7
ATOM      7  C   UNL     1       6.384   0.818  -0.865  0.00  0.00    -0.012 A 
ATOM      8  C   UNL     1       6.521   1.561   0.293  0.00  0.00    +0.115 A 
ATOM      9  N   UNL     1       7.714   1.901   0.739  0.00  0.00    -0.263 NA
ATOM     10  C   UNL     1       8.817   1.551   0.107  0.00  0.00    +0.111 A 
ATOM     11  C   UNL     1       8.759   0.807  -1.057  0.00  0.00    +0.020 A 
ATOM     12  C   UNL     1       7.522   0.426  -1.554  0.00  0.00    +0.008 A 
ENDBRANCH   3   7
TORSDOF 1
ENDMDL
MODEL 8
REMARK VINA RESULT:     0.000      2.857      3.785
REMARK INTER + INTRA:          -0.256
REMARK INTER:                   0.000
REMARK INTRA:                  -0.256
REMARK UNBOUND:                -0.256
REMARK  Name = Nicotine.pdb
REMARK  2 active torsions:
REMARK  status: ('A' for Active; 'I' for Inactive)
REMARK    1  A    between atoms: C_3  and  C_6
REMARK    2  A    between atoms: N_4  and  C_12
REMARK                            x       y       z     vdW  Elec       q    Type
REMARK                         _______ _______ _______ _____ _____    ______ ____
ROOT
ATOM      1  C   UNL     1       5.313   2.429   3.041  0.00  0.00    +0.017 C 
ATOM      2  C   UNL     1       5.266   1.117   2.214  0.00  0.00    +0.025 C 
ATOM      3  C   UNL     1       3.776   1.001   1.830  0.00  0.00    +0.088 C 
ATOM      4  N   UNL     1       3.010   1.799   2.805  0.00  0.00    -0.298 NA
ATOM      5  C   UNL     1       3.955   2.379   3.784  0.00  0.00    +0.085 C 
ATOM      6  C   UNL     1       2.236   2.851   2.133  0.00  0.00    +0.105 C 
ENDROOT
BRANCH   3   7
ATOM      7  C   UNL     1       3.341  -0.440   1.891  0.00  0.00    -0.012 A 
ATOM      8  C   UNL     1       2.226  -0.864   1.193  0.00  0.00    +0.115 A 
ATOM      9  N   UNL     1       1.838  -2.124   1.241  0.00  0.00    -0.263 NA
ATOM     10  C   UNL     1       2.491  -3.023   1.950  0.00  0.00    +0.111 A 
ATOM     11  C   UNL     1       3.616  -2.673   2.674  0.00  0.00    +0.020 A 
ATOM     12  C   UNL     1       4.056  -1.359   2.643  0.00  0.00    +0.008 A 
ENDBRANCH   3   7
TORSDOF 1
ENDMDL
MODEL 9
REMARK VINA RESULT:     0.000      4.767      6.173
REMARK INTER + INTRA:          -0.256
REMARK INTER:                   0.000
REMARK INTRA:                  -0.256
REMARK UNBOUND:                -0.256
REMARK  Name = Nicotine.pdb
REMARK  2 active torsions:
REMARK  status: ('A' for Active; 'I' for Inactive)
REMARK    1  A    between atoms: C_3  and  C_6
REMARK    2  A    between atoms: N_4  and  C_12
REMARK                            x       y       z     vdW  Elec       q    Type
REMARK                         _______ _______ _______ _____ _____    ______ ____
ROOT
ATOM      1  C   UNL     1       6.923   5.317  -2.185  0.00  0.00    +0.017 C 
ATOM      2  C   UNL     1       6.362   3.887  -1.972  0.00  0.00    +0.025 C 
ATOM      3  C   UNL     1       6.913   3.501  -0.583  0.00  0.00    +0.088 C 
ATOM      4  N   UNL     1       8.096   4.345  -0.333  0.00  0.00    -0.298 NA
ATOM      5  C   UNL     1       8.313   5.212  -1.510  0.00  0.00    +0.085 C 
ATOM      6  C   UNL     1       7.924   5.145   0.887  0.00  0.00    +0.105 C 
ENDROOT
BRANCH   3   7
ATOM      7  C   UNL     1       7.308   2.047  -0.574  0.00  0.00    -0.012 A 
ATOM      8  C   UNL     1       7.407   1.358   0.620  0.00  0.00    +0.115 A 
ATOM      9  N   UNL     1       7.752   0.085   0.637  0.00  0.00    -0.263 NA
ATOM     10  C   UNL     1       8.014  -0.577  -0.473  0.00  0.00    +0.111 A 
ATOM     11  C   UNL     1       7.935   0.046  -1.704  0.00  0.00    +0.020 A 
ATOM     12  C   UNL     1       7.570   1.383  -1.762  0.00  0.00    +0.008 A 
ENDBRANCH   3   7
TORSDOF 1
ENDMDL
MODEL 10
REMARK VINA RESULT:     0.000      5.346      6.796
REMARK INTER + INTRA:          -0.256
REMARK INTER:                   0.000
REMARK INTRA:                  -0.256
REMARK UNBOUND:                -0.256
REMARK  Name = Nicotine.pdb
REMARK  2 active torsions:
REMARK  status: ('A' for Active; 'I' for Inactive)
REMARK    1  A    between atoms: C_3  and  C_6
REMARK    2  A    between atoms: N_4  and  C_12
REMARK                            x       y       z     vdW  Elec       q    Type
REMARK                         _______ _______ _______ _____ _____    ______ ____
ROOT
ATOM      1  C   UNL     1       7.303   6.511  -0.721  0.00  0.00    +0.017 C 
ATOM      2  C   UNL     1       6.517   5.804   0.414  0.00  0.00    +0.025 C 
ATOM      3  C   UNL     1       6.283   4.389  -0.155  0.00  0.00    +0.088 C 
ATOM      4  N   UNL     1       6.389   4.485  -1.622  0.00  0.00    -0.298 NA
ATOM      5  C   UNL     1       6.651   5.894  -1.984  0.00  0.00    +0.085 C 
ATOM      6  C   UNL     1       7.447   3.604  -2.133  0.00  0.00    +0.105 C 
ENDROOT
BRANCH   3   7
ATOM      7  C   UNL     1       4.910   3.902   0.231  0.00  0.00    -0.012 A 
ATOM      8  C   UNL     1       4.624   2.550   0.234  0.00  0.00    +0.115 A 
ATOM      9  N   UNL     1       3.425   2.115   0.571  0.00  0.00    -0.263 NA
ATOM     10  C   UNL     1       2.458   2.943   0.914  0.00  0.00    +0.111 A 
ATOM     11  C   UNL     1       2.671   4.309   0.934  0.00  0.00    +0.020 A 
ATOM     12  C   UNL     1       3.920   4.803   0.591  0.00  0.00    +0.008 A 
ENDBRANCH   3   7
TORSDOF 1
ENDMDL
