MODEL 1
REMARK VINA RESULT:    -5.638      0.000      0.000
REMARK INTER + INTRA:          -6.182
REMARK INTER:                  -5.968
REMARK INTRA:                  -0.214
REMARK UNBOUND:                -0.214
REMARK  Name = Nicotine.pdb
REMARK  2 active torsions:
REMARK  status: ('A' for Active; 'I' for Inactive)
REMARK    1  A    between atoms: C_3  and  C_6
REMARK    2  A    between atoms: N_4  and  C_12
REMARK                            x       y       z     vdW  Elec       q    Type
REMARK                         _______ _______ _______ _____ _____    ______ ____
ROOT
ATOM      1  C   UNL     1      -4.195   2.758   2.871  0.00  0.00    +0.017 C 
ATOM      2  C   UNL     1      -2.917   3.092   3.684  0.00  0.00    +0.025 C 
ATOM      3  C   UNL     1      -3.075   4.599   3.976  0.00  0.00    +0.088 C 
ATOM      4  N   UNL     1      -3.994   5.147   2.962  0.00  0.00    -0.298 NA
ATOM      5  C   UNL     1      -4.389   4.055   2.046  0.00  0.00    +0.085 C 
ATOM      6  C   UNL     1      -5.171   5.758   3.592  0.00  0.00    +0.105 C 
ENDROOT
BRANCH   3   7
ATOM      7  C   UNL     1      -1.736   5.283   3.879  0.00  0.00    -0.012 A 
ATOM      8  C   UNL     1      -0.714   4.947   4.747  0.00  0.00    +0.115 A 
ATOM      9  N   UNL     1       0.461   5.540   4.669  0.00  0.00    -0.263 NA
ATOM     10  C   UNL     1       0.709   6.471   3.768  0.00  0.00    +0.111 A 
ATOM     11  C   UNL     1      -0.264   6.859   2.866  0.00  0.00    +0.020 A 
ATOM     12  C   UNL     1      -1.510   6.253   2.914  0.00  0.00    +0.008 A 
ENDBRANCH   3   7
TORSDOF 1
ENDMDL
MODEL 2
REMARK VINA RESULT:    -5.453      1.849      2.675
REMARK INTER + INTRA:          -5.986
REMARK INTER:                  -5.736
REMARK INTRA:                  -0.250
REMARK UNBOUND:                -0.214
REMARK  Name = Nicotine.pdb
REMARK  2 active torsions:
REMARK  status: ('A' for Active; 'I' for Inactive)
REMARK    1  A    between atoms: C_3  and  C_6
REMARK    2  A    between atoms: N_4  and  C_12
REMARK                            x       y       z     vdW  Elec       q    Type
REMARK                         _______ _______ _______ _____ _____    ______ ____
ROOT
ATOM      1  C   UNL     1      -5.122   1.207   3.368  0.00  0.00    +0.017 C 
ATOM      2  C   UNL     1      -4.496   1.947   4.579  0.00  0.00    +0.025 C 
ATOM      3  C   UNL     1      -4.027   3.283   3.965  0.00  0.00    +0.088 C 
ATOM      4  N   UNL     1      -3.869   3.066   2.515  0.00  0.00    -0.298 NA
ATOM      5  C   UNL     1      -4.192   1.655   2.212  0.00  0.00    +0.085 C 
ATOM      6  C   UNL     1      -4.725   3.980   1.748  0.00  0.00    +0.105 C 
ENDROOT
BRANCH   3   7
ATOM      7  C   UNL     1      -2.710   3.692   4.570  0.00  0.00    -0.012 A 
ATOM      8  C   UNL     1      -2.173   4.937   4.302  0.00  0.00    +0.115 A 
ATOM      9  N   UNL     1      -1.020   5.303   4.828  0.00  0.00    -0.263 NA
ATOM     10  C   UNL     1      -0.338   4.504   5.624  0.00  0.00    +0.111 A 
ATOM     11  C   UNL     1      -0.812   3.244   5.938  0.00  0.00    +0.020 A 
ATOM     12  C   UNL     1      -2.023   2.827   5.408  0.00  0.00    +0.008 A 
ENDBRANCH   3   7
TORSDOF 1
ENDMDL
MODEL 3
REMARK VINA RESULT:    -5.393      1.237      4.497
REMARK INTER + INTRA:          -5.922
REMARK INTER:                  -5.706
REMARK INTRA:                  -0.216
REMARK UNBOUND:                -0.214
REMARK  Name = Nicotine.pdb
REMARK  2 active torsions:
REMARK  status: ('A' for Active; 'I' for Inactive)
REMARK    1  A    between atoms: C_3  and  C_6
REMARK    2  A    between atoms: N_4  and  C_12
REMARK                            x       y       z     vdW  Elec       q    Type
REMARK                         _______ _______ _______ _____ _____    ______ ____
ROOT
ATOM      1  C   UNL     1       0.807   7.028   3.235  0.00  0.00    +0.017 C 
ATOM      2  C   UNL     1      -0.709   6.883   2.938  0.00  0.00    +0.025 C 
ATOM      3  C   UNL     1      -1.254   6.228   4.225  0.00  0.00    +0.088 C 
ATOM      4  N   UNL     1      -0.121   5.558   4.888  0.00  0.00    -0.298 NA
ATOM      5  C   UNL     1       1.089   5.747   4.059  0.00  0.00    +0.085 C 
ATOM      6  C   UNL     1       0.083   6.084   6.244  0.00  0.00    +0.105 C 
ENDROOT
BRANCH   3   7
ATOM      7  C   UNL     1      -2.316   5.218   3.877  0.00  0.00    -0.012 A 
ATOM      8  C   UNL     1      -2.375   4.008   4.541  0.00  0.00    +0.115 A 
ATOM      9  N   UNL     1      -3.302   3.119   4.243  0.00  0.00    -0.263 NA
ATOM     10  C   UNL     1      -4.202   3.344   3.306  0.00  0.00    +0.111 A 
ATOM     11  C   UNL     1      -4.206   4.532   2.599  0.00  0.00    +0.020 A 
ATOM     12  C   UNL     1      -3.250   5.493   2.889  0.00  0.00    +0.008 A 
ENDBRANCH   3   7
TORSDOF 1
ENDMDL
MODEL 4
REMARK VINA RESULT:    -5.393      1.662      2.247
REMARK INTER + INTRA:          -5.922
REMARK INTER:                  -5.672
REMARK INTRA:                  -0.250
REMARK UNBOUND:                -0.214
REMARK  Name = Nicotine.pdb
REMARK  2 active torsions:
REMARK  status: ('A' for Active; 'I' for Inactive)
REMARK    1  A    between atoms: C_3  and  C_6
REMARK    2  A    between atoms: N_4  and  C_12
REMARK                            x       y       z     vdW  Elec       q    Type
REMARK                         _______ _______ _______ _____ _____    ______ ____
ROOT
ATOM      1  C   UNL     1      -4.699   2.075   3.124  0.00  0.00    +0.017 C 
ATOM      2  C   UNL     1      -3.347   2.799   2.887  0.00  0.00    +0.025 C 
ATOM      3  C   UNL     1      -2.790   2.971   4.316  0.00  0.00    +0.088 C 
ATOM      4  N   UNL     1      -3.935   2.901   5.242  0.00  0.00    -0.298 NA
ATOM      5  C   UNL     1      -5.171   2.720   4.451  0.00  0.00    +0.085 C 
ATOM      6  C   UNL     1      -3.764   1.809   6.210  0.00  0.00    +0.105 C 
ENDROOT
BRANCH   3   7
ATOM      7  C   UNL     1      -2.108   4.308   4.443  0.00  0.00    -0.012 A 
ATOM      8  C   UNL     1      -0.941   4.431   5.174  0.00  0.00    +0.115 A 
ATOM      9  N   UNL     1      -0.337   5.597   5.290  0.00  0.00    -0.263 NA
ATOM     10  C   UNL     1      -0.816   6.685   4.720  0.00  0.00    +0.111 A 
ATOM     11  C   UNL     1      -1.979   6.640   3.973  0.00  0.00    +0.020 A 
ATOM     12  C   UNL     1      -2.638   5.430   3.824  0.00  0.00    +0.008 A 
ENDBRANCH   3   7
TORSDOF 1
ENDMDL
MODEL 5
REMARK VINA RESULT:    -5.347      1.608      2.711
REMARK INTER + INTRA:          -5.874
REMARK INTER:                  -5.663
REMARK INTRA:                  -0.211
REMARK UNBOUND:                -0.214
REMARK  Name = Nicotine.pdb
REMARK  2 active torsions:
REMARK  status: ('A' for Active; 'I' for Inactive)
REMARK    1  A    between atoms: C_3  and  C_6
REMARK    2  A    between atoms: N_4  and  C_12
REMARK                            x       y       z     vdW  Elec       q    Type
REMARK                         _______ _______ _______ _____ _____    ______ ____
ROOT
ATOM      1  C   UNL     1      -4.791   5.186   2.836  0.00  0.00    +0.017 C 
ATOM      2  C   UNL     1      -3.243   5.102   2.881  0.00  0.00    +0.025 C 
ATOM      3  C   UNL     1      -2.987   3.865   3.768  0.00  0.00    +0.088 C 
ATOM      4  N   UNL     1      -4.196   3.658   4.587  0.00  0.00    -0.298 NA
ATOM      5  C   UNL     1      -5.171   4.722   4.265  0.00  0.00    +0.085 C 
ATOM      6  C   UNL     1      -4.770   2.327   4.351  0.00  0.00    +0.105 C 
ENDROOT
BRANCH   3   7
ATOM      7  C   UNL     1      -1.798   4.111   4.660  0.00  0.00    -0.012 A 
ATOM      8  C   UNL     1      -1.219   5.364   4.724  0.00  0.00    +0.115 A 
ATOM      9  N   UNL     1      -0.178   5.587   5.502  0.00  0.00    -0.263 NA
ATOM     10  C   UNL     1       0.350   4.634   6.244  0.00  0.00    +0.111 A 
ATOM     11  C   UNL     1      -0.175   3.355   6.232  0.00  0.00    +0.020 A 
ATOM     12  C   UNL     1      -1.273   3.084   5.430  0.00  0.00    +0.008 A 
ENDBRANCH   3   7
TORSDOF 1
ENDMDL
MODEL 6
REMARK VINA RESULT:    -5.223      1.703      4.711
REMARK INTER + INTRA:          -5.742
REMARK INTER:                  -5.486
REMARK INTRA:                  -0.256
REMARK UNBOUND:                -0.214
REMARK  Name = Nicotine.pdb
REMARK  2 active torsions:
REMARK  status: ('A' for Active; 'I' for Inactive)
REMARK    1  A    between atoms: C_3  and  C_6
REMARK    2  A    between atoms: N_4  and  C_12
REMARK                            x       y       z     vdW  Elec       q    Type
REMARK                         _______ _______ _______ _____ _____    ______ ____
ROOT
ATOM      1  C   UNL     1      -1.848   6.592   3.818  0.00  0.00    +0.017 C 
ATOM      2  C   UNL     1      -3.241   5.913   3.749  0.00  0.00    +0.025 C 
ATOM      3  C   UNL     1      -2.990   4.539   4.406  0.00  0.00    +0.088 C 
ATOM      4  N   UNL     1      -1.546   4.262   4.302  0.00  0.00    -0.298 NA
ATOM      5  C   UNL     1      -0.901   5.387   3.592  0.00  0.00    +0.085 C 
ATOM      6  C   UNL     1      -0.950   4.066   5.630  0.00  0.00    +0.105 C 
ENDROOT
BRANCH   3   7
ATOM      7  C   UNL     1      -3.771   3.474   3.680  0.00  0.00    -0.012 A 
ATOM      8  C   UNL     1      -4.005   2.249   4.277  0.00  0.00    +0.115 A 
ATOM      9  N   UNL     1      -4.687   1.312   3.649  0.00  0.00    -0.263 NA
ATOM     10  C   UNL     1      -5.171   1.501   2.437  0.00  0.00    +0.111 A 
ATOM     11  C   UNL     1      -4.978   2.700   1.777  0.00  0.00    +0.020 A 
ATOM     12  C   UNL     1      -4.269   3.711   2.408  0.00  0.00    +0.008 A 
ENDBRANCH   3   7
TORSDOF 1
ENDMDL
MODEL 7
REMARK VINA RESULT:    -4.557      1.370      4.681
REMARK INTER + INTRA:          -5.038
REMARK INTER:                  -4.822
REMARK INTRA:                  -0.216
REMARK UNBOUND:                -0.214
REMARK  Name = Nicotine.pdb
REMARK  2 active torsions:
REMARK  status: ('A' for Active; 'I' for Inactive)
REMARK    1  A    between atoms: C_3  and  C_6
REMARK    2  A    between atoms: N_4  and  C_12
REMARK                            x       y       z     vdW  Elec       q    Type
REMARK                         _______ _______ _______ _____ _____    ______ ____
ROOT
ATOM      1  C   UNL     1       0.862   5.203   6.227  0.00  0.00    +0.017 C 
ATOM      2  C   UNL     1      -0.203   4.240   5.638  0.00  0.00    +0.025 C 
ATOM      3  C   UNL     1      -0.744   5.023   4.422  0.00  0.00    +0.088 C 
ATOM      4  N   UNL     1      -0.457   6.449   4.659  0.00  0.00    -0.298 NA
ATOM      5  C   UNL     1       0.210   6.585   5.971  0.00  0.00    +0.085 C 
ATOM      6  C   UNL     1       0.376   7.005   3.584  0.00  0.00    +0.105 C 
ENDROOT
BRANCH   3   7
ATOM      7  C   UNL     1      -2.230   4.811   4.296  0.00  0.00    -0.012 A 
ATOM      8  C   UNL     1      -3.015   5.740   3.640  0.00  0.00    +0.115 A 
ATOM      9  N   UNL     1      -4.317   5.562   3.525  0.00  0.00    -0.263 NA
ATOM     10  C   UNL     1      -4.918   4.502   4.027  0.00  0.00    +0.111 A 
ATOM     11  C   UNL     1      -4.198   3.530   4.696  0.00  0.00    +0.020 A 
ATOM     12  C   UNL     1      -2.827   3.680   4.832  0.00  0.00    +0.008 A 
ENDBRANCH   3   7
TORSDOF 1
ENDMDL
MODEL 8
REMARK VINA RESULT:    -3.452      2.044      4.334
REMARK INTER + INTRA:          -3.868
REMARK INTER:                  -3.619
REMARK INTRA:                  -0.249
REMARK UNBOUND:                -0.214
REMARK  Name = Nicotine.pdb
REMARK  2 active torsions:
REMARK  status: ('A' for Active; 'I' for Inactive)
REMARK    1  A    between atoms: C_3  and  C_6
REMARK    2  A    between atoms: N_4  and  C_12
REMARK                            x       y       z     vdW  Elec       q    Type
REMARK                         _______ _______ _______ _____ _____    ______ ____
ROOT
ATOM      1  C   UNL     1      -1.600   6.199   3.238  0.00  0.00    +0.017 C 
ATOM      2  C   UNL     1      -1.566   4.662   3.452  0.00  0.00    +0.025 C 
ATOM      3  C   UNL     1      -3.058   4.271   3.392  0.00  0.00    +0.088 C 
ATOM      4  N   UNL     1      -3.840   5.480   3.705  0.00  0.00    -0.298 NA
ATOM      5  C   UNL     1      -2.902   6.590   3.980  0.00  0.00    +0.085 C 
ATOM      6  C   UNL     1      -4.750   5.819   2.603  0.00  0.00    +0.105 C 
ENDROOT
BRANCH   3   7
ATOM      7  C   UNL     1      -3.346   3.195   4.407  0.00  0.00    -0.012 A 
ATOM      8  C   UNL     1      -4.578   2.567   4.429  0.00  0.00    +0.115 A 
ATOM      9  N   UNL     1      -4.838   1.624   5.314  0.00  0.00    -0.263 NA
ATOM     10  C   UNL     1      -3.945   1.245   6.206  0.00  0.00    +0.111 A 
ATOM     11  C   UNL     1      -2.691   1.827   6.244  0.00  0.00    +0.020 A 
ATOM     12  C   UNL     1      -2.379   2.818   5.326  0.00  0.00    +0.008 A 
ENDBRANCH   3   7
TORSDOF 1
ENDMDL
