MODEL 1
REMARK VINA RESULT:    -5.076      0.000      0.000
REMARK INTER + INTRA:          -5.627
REMARK INTER:                  -5.373
REMARK INTRA:                  -0.255
REMARK UNBOUND:                -0.255
REMARK  Name = Nicotine.pdb
REMARK  2 active torsions:
REMARK  status: ('A' for Active; 'I' for Inactive)
REMARK    1  A    between atoms: C_3  and  C_6
REMARK    2  A    between atoms: N_4  and  C_12
REMARK                            x       y       z     vdW  Elec       q    Type
REMARK                         _______ _______ _______ _____ _____    ______ ____
ROOT
ATOM      1  C   UNL     1      -1.327   6.060   4.451  0.00  0.00    +0.017 C 
ATOM      2  C   UNL     1      -2.779   5.592   4.165  0.00  0.00    +0.025 C 
ATOM      3  C   UNL     1      -2.738   4.092   4.529  0.00  0.00    +0.088 C 
ATOM      4  N   UNL     1      -1.331   3.661   4.447  0.00  0.00    -0.298 NA
ATOM      5  C   UNL     1      -0.508   4.815   4.027  0.00  0.00    +0.085 C 
ATOM      6  C   UNL     1      -0.869   3.125   5.734  0.00  0.00    +0.105 C 
ENDROOT
BRANCH   3   7
ATOM      7  C   UNL     1      -3.574   3.305   3.553  0.00  0.00    -0.012 A 
ATOM      8  C   UNL     1      -4.204   2.142   3.952  0.00  0.00    +0.115 A 
ATOM      9  N   UNL     1      -4.938   1.447   3.105  0.00  0.00    -0.263 NA
ATOM     10  C   UNL     1      -5.100   1.829   1.853  0.00  0.00    +0.111 A 
ATOM     11  C   UNL     1      -4.501   2.982   1.382  0.00  0.00    +0.020 A 
ATOM     12  C   UNL     1      -3.726   3.742   2.246  0.00  0.00    +0.008 A 
ENDBRANCH   3   7
TORSDOF 1
ENDMDL
MODEL 2
REMARK VINA RESULT:    -5.017      1.804      4.812
REMARK INTER + INTRA:          -5.565
REMARK INTER:                  -5.363
REMARK INTRA:                  -0.202
REMARK UNBOUND:                -0.255
REMARK  Name = Nicotine.pdb
REMARK  2 active torsions:
REMARK  status: ('A' for Active; 'I' for Inactive)
REMARK    1  A    between atoms: C_3  and  C_6
REMARK    2  A    between atoms: N_4  and  C_12
REMARK                            x       y       z     vdW  Elec       q    Type
REMARK                         _______ _______ _______ _____ _____    ______ ____
ROOT
ATOM      1  C   UNL     1      -4.219   2.554   2.285  0.00  0.00    +0.017 C 
ATOM      2  C   UNL     1      -2.943   2.578   3.168  0.00  0.00    +0.025 C 
ATOM      3  C   UNL     1      -2.908   4.031   3.687  0.00  0.00    +0.088 C 
ATOM      4  N   UNL     1      -3.700   4.849   2.752  0.00  0.00    -0.298 NA
ATOM      5  C   UNL     1      -4.199   3.975   1.669  0.00  0.00    +0.085 C 
ATOM      6  C   UNL     1      -4.809   5.516   3.444  0.00  0.00    +0.105 C 
ENDROOT
BRANCH   3   7
ATOM      7  C   UNL     1      -1.485   4.527   3.726  0.00  0.00    -0.012 A 
ATOM      8  C   UNL     1      -1.030   5.420   2.776  0.00  0.00    +0.115 A 
ATOM      9  N   UNL     1       0.213   5.859   2.803  0.00  0.00    -0.263 NA
ATOM     10  C   UNL     1       1.066   5.468   3.728  0.00  0.00    +0.111 A 
ATOM     11  C   UNL     1       0.683   4.576   4.712  0.00  0.00    +0.020 A 
ATOM     12  C   UNL     1      -0.618   4.097   4.719  0.00  0.00    +0.008 A 
ENDBRANCH   3   7
TORSDOF 1
ENDMDL
MODEL 3
REMARK VINA RESULT:    -5.011      1.633      4.574
REMARK INTER + INTRA:          -5.559
REMARK INTER:                  -5.355
REMARK INTRA:                  -0.204
REMARK UNBOUND:                -0.255
REMARK  Name = Nicotine.pdb
REMARK  2 active torsions:
REMARK  status: ('A' for Active; 'I' for Inactive)
REMARK    1  A    between atoms: C_3  and  C_6
REMARK    2  A    between atoms: N_4  and  C_12
REMARK                            x       y       z     vdW  Elec       q    Type
REMARK                         _______ _______ _______ _____ _____    ______ ____
ROOT
ATOM      1  C   UNL     1      -4.357   2.569   2.104  0.00  0.00    +0.017 C 
ATOM      2  C   UNL     1      -3.105   2.510   3.019  0.00  0.00    +0.025 C 
ATOM      3  C   UNL     1      -3.111   3.893   3.705  0.00  0.00    +0.088 C 
ATOM      4  N   UNL     1      -3.895   4.802   2.849  0.00  0.00    -0.298 NA
ATOM      5  C   UNL     1      -4.349   4.053   1.658  0.00  0.00    +0.085 C 
ATOM      6  C   UNL     1      -5.034   5.366   3.584  0.00  0.00    +0.105 C 
ENDROOT
BRANCH   3   7
ATOM      7  C   UNL     1      -1.700   4.404   3.841  0.00  0.00    -0.012 A 
ATOM      8  C   UNL     1      -0.875   3.920   4.839  0.00  0.00    +0.115 A 
ATOM      9  N   UNL     1       0.362   4.362   4.965  0.00  0.00    -0.263 NA
ATOM     10  C   UNL     1       0.858   5.275   4.153  0.00  0.00    +0.111 A 
ATOM     11  C   UNL     1       0.092   5.804   3.131  0.00  0.00    +0.020 A 
ATOM     12  C   UNL     1      -1.211   5.360   2.964  0.00  0.00    +0.008 A 
ENDBRANCH   3   7
TORSDOF 1
ENDMDL
MODEL 4
REMARK VINA RESULT:    -4.710      1.373      1.705
REMARK INTER + INTRA:          -5.240
REMARK INTER:                  -5.055
REMARK INTRA:                  -0.185
REMARK UNBOUND:                -0.255
REMARK  Name = Nicotine.pdb
REMARK  2 active torsions:
REMARK  status: ('A' for Active; 'I' for Inactive)
REMARK    1  A    between atoms: C_3  and  C_6
REMARK    2  A    between atoms: N_4  and  C_12
REMARK                            x       y       z     vdW  Elec       q    Type
REMARK                         _______ _______ _______ _____ _____    ______ ____
ROOT
ATOM      1  C   UNL     1      -0.021   5.868   4.888  0.00  0.00    +0.017 C 
ATOM      2  C   UNL     1      -1.482   5.866   4.365  0.00  0.00    +0.025 C 
ATOM      3  C   UNL     1      -1.949   4.421   4.644  0.00  0.00    +0.088 C 
ATOM      4  N   UNL     1      -0.740   3.584   4.745  0.00  0.00    -0.298 NA
ATOM      5  C   UNL     1       0.445   4.438   4.518  0.00  0.00    +0.085 C 
ATOM      6  C   UNL     1      -0.667   2.919   6.053  0.00  0.00    +0.105 C 
ENDROOT
BRANCH   3   7
ATOM      7  C   UNL     1      -2.817   3.936   3.512  0.00  0.00    -0.012 A 
ATOM      8  C   UNL     1      -3.526   4.836   2.739  0.00  0.00    +0.115 A 
ATOM      9  N   UNL     1      -4.288   4.419   1.747  0.00  0.00    -0.263 NA
ATOM     10  C   UNL     1      -4.405   3.139   1.453  0.00  0.00    +0.111 A 
ATOM     11  C   UNL     1      -3.725   2.181   2.181  0.00  0.00    +0.020 A 
ATOM     12  C   UNL     1      -2.910   2.582   3.229  0.00  0.00    +0.008 A 
ENDBRANCH   3   7
TORSDOF 1
ENDMDL
MODEL 5
REMARK VINA RESULT:    -4.552      1.955      2.638
REMARK INTER + INTRA:          -5.073
REMARK INTER:                  -4.861
REMARK INTRA:                  -0.212
REMARK UNBOUND:                -0.255
REMARK  Name = Nicotine.pdb
REMARK  2 active torsions:
REMARK  status: ('A' for Active; 'I' for Inactive)
REMARK    1  A    between atoms: C_3  and  C_6
REMARK    2  A    between atoms: N_4  and  C_12
REMARK                            x       y       z     vdW  Elec       q    Type
REMARK                         _______ _______ _______ _____ _____    ______ ____
ROOT
ATOM      1  C   UNL     1       0.496   3.247   5.692  0.00  0.00    +0.017 C 
ATOM      2  C   UNL     1      -0.768   2.803   4.911  0.00  0.00    +0.025 C 
ATOM      3  C   UNL     1      -1.009   3.980   3.942  0.00  0.00    +0.088 C 
ATOM      4  N   UNL     1      -0.343   5.162   4.517  0.00  0.00    -0.298 NA
ATOM      5  C   UNL     1       0.274   4.776   5.804  0.00  0.00    +0.085 C 
ATOM      6  C   UNL     1       0.662   5.703   3.592  0.00  0.00    +0.105 C 
ENDROOT
BRANCH   3   7
ATOM      7  C   UNL     1      -2.487   4.238   3.806  0.00  0.00    -0.012 A 
ATOM      8  C   UNL     1      -3.388   3.598   4.636  0.00  0.00    +0.115 A 
ATOM      9  N   UNL     1      -4.683   3.818   4.524  0.00  0.00    -0.263 NA
ATOM     10  C   UNL     1      -5.169   4.649   3.623  0.00  0.00    +0.111 A 
ATOM     11  C   UNL     1      -4.330   5.325   2.758  0.00  0.00    +0.020 A 
ATOM     12  C   UNL     1      -2.961   5.123   2.850  0.00  0.00    +0.008 A 
ENDBRANCH   3   7
TORSDOF 1
ENDMDL
MODEL 6
REMARK VINA RESULT:    -4.244      1.493      2.107
REMARK INTER + INTRA:          -4.747
REMARK INTER:                  -4.497
REMARK INTRA:                  -0.249
REMARK UNBOUND:                -0.255
REMARK  Name = Nicotine.pdb
REMARK  2 active torsions:
REMARK  status: ('A' for Active; 'I' for Inactive)
REMARK    1  A    between atoms: C_3  and  C_6
REMARK    2  A    between atoms: N_4  and  C_12
REMARK                            x       y       z     vdW  Elec       q    Type
REMARK                         _______ _______ _______ _____ _____    ______ ____
ROOT
ATOM      1  C   UNL     1       1.149   6.201   4.823  0.00  0.00    +0.017 C 
ATOM      2  C   UNL     1      -0.398   6.182   4.720  0.00  0.00    +0.025 C 
ATOM      3  C   UNL     1      -0.753   4.727   5.091  0.00  0.00    +0.088 C 
ATOM      4  N   UNL     1       0.447   3.908   4.843  0.00  0.00    -0.298 NA
ATOM      5  C   UNL     1       1.514   4.784   4.315  0.00  0.00    +0.085 C 
ATOM      6  C   UNL     1       0.883   3.227   6.069  0.00  0.00    +0.105 C 
ENDROOT
BRANCH   3   7
ATOM      7  C   UNL     1      -1.892   4.242   4.232  0.00  0.00    -0.012 A 
ATOM      8  C   UNL     1      -2.491   3.023   4.488  0.00  0.00    +0.115 A 
ATOM      9  N   UNL     1      -3.489   2.591   3.741  0.00  0.00    -0.263 NA
ATOM     10  C   UNL     1      -3.952   3.297   2.729  0.00  0.00    +0.111 A 
ATOM     11  C   UNL     1      -3.404   4.526   2.413  0.00  0.00    +0.020 A 
ATOM     12  C   UNL     1      -2.357   5.015   3.179  0.00  0.00    +0.008 A 
ENDBRANCH   3   7
TORSDOF 1
ENDMDL
MODEL 7
REMARK VINA RESULT:    -4.016      3.361      5.101
REMARK INTER + INTRA:          -4.506
REMARK INTER:                  -4.290
REMARK INTRA:                  -0.216
REMARK UNBOUND:                -0.255
REMARK  Name = Nicotine.pdb
REMARK  2 active torsions:
REMARK  status: ('A' for Active; 'I' for Inactive)
REMARK    1  A    between atoms: C_3  and  C_6
REMARK    2  A    between atoms: N_4  and  C_12
REMARK                            x       y       z     vdW  Elec       q    Type
REMARK                         _______ _______ _______ _____ _____    ______ ____
ROOT
ATOM      1  C   UNL     1       4.194   4.323   5.902  0.00  0.00    +0.017 C 
ATOM      2  C   UNL     1       2.921   5.196   5.753  0.00  0.00    +0.025 C 
ATOM      3  C   UNL     1       1.788   4.150   5.684  0.00  0.00    +0.088 C 
ATOM      4  N   UNL     1       2.394   2.878   5.249  0.00  0.00    -0.298 NA
ATOM      5  C   UNL     1       3.838   3.098   5.023  0.00  0.00    +0.085 C 
ATOM      6  C   UNL     1       2.171   1.821   6.244  0.00  0.00    +0.105 C 
ENDROOT
BRANCH   3   7
ATOM      7  C   UNL     1       0.745   4.588   4.689  0.00  0.00    -0.012 A 
ATOM      8  C   UNL     1       1.055   5.516   3.713  0.00  0.00    +0.115 A 
ATOM      9  N   UNL     1       0.148   5.906   2.839  0.00  0.00    -0.263 NA
ATOM     10  C   UNL     1      -1.082   5.431   2.859  0.00  0.00    +0.111 A 
ATOM     11  C   UNL     1      -1.466   4.500   3.805  0.00  0.00    +0.020 A 
ATOM     12  C   UNL     1      -0.537   4.063   4.737  0.00  0.00    +0.008 A 
ENDBRANCH   3   7
TORSDOF 1
ENDMDL
MODEL 8
REMARK VINA RESULT:    -3.677      1.559      4.349
REMARK INTER + INTRA:          -4.146
REMARK INTER:                  -3.891
REMARK INTRA:                  -0.255
REMARK UNBOUND:                -0.255
REMARK  Name = Nicotine.pdb
REMARK  2 active torsions:
REMARK  status: ('A' for Active; 'I' for Inactive)
REMARK    1  A    between atoms: C_3  and  C_6
REMARK    2  A    between atoms: N_4  and  C_12
REMARK                            x       y       z     vdW  Elec       q    Type
REMARK                         _______ _______ _______ _____ _____    ______ ____
ROOT
ATOM      1  C   UNL     1      -5.171   1.855   3.959  0.00  0.00    +0.017 C 
ATOM      2  C   UNL     1      -4.030   2.693   3.324  0.00  0.00    +0.025 C 
ATOM      3  C   UNL     1      -2.913   2.620   4.386  0.00  0.00    +0.088 C 
ATOM      4  N   UNL     1      -3.555   2.301   5.675  0.00  0.00    -0.298 NA
ATOM      5  C   UNL     1      -5.014   2.201   5.461  0.00  0.00    +0.085 C 
ATOM      6  C   UNL     1      -3.017   1.056   6.238  0.00  0.00    +0.105 C 
ENDROOT
BRANCH   3   7
ATOM      7  C   UNL     1      -2.205   3.946   4.479  0.00  0.00    -0.012 A 
ATOM      8  C   UNL     1      -0.884   4.008   4.881  0.00  0.00    +0.115 A 
ATOM      9  N   UNL     1      -0.257   5.165   4.964  0.00  0.00    -0.263 NA
ATOM     10  C   UNL     1      -0.857   6.301   4.671  0.00  0.00    +0.111 A 
ATOM     11  C   UNL     1      -2.178   6.319   4.261  0.00  0.00    +0.020 A 
ATOM     12  C   UNL     1      -2.868   5.121   4.156  0.00  0.00    +0.008 A 
ENDBRANCH   3   7
TORSDOF 1
ENDMDL
MODEL 9
REMARK VINA RESULT:    -3.421      2.466      3.967
REMARK INTER + INTRA:          -3.876
REMARK INTER:                  -3.643
REMARK INTRA:                  -0.233
REMARK UNBOUND:                -0.255
REMARK  Name = Nicotine.pdb
REMARK  2 active torsions:
REMARK  status: ('A' for Active; 'I' for Inactive)
REMARK    1  A    between atoms: C_3  and  C_6
REMARK    2  A    between atoms: N_4  and  C_12
REMARK                            x       y       z     vdW  Elec       q    Type
REMARK                         _______ _______ _______ _____ _____    ______ ____
ROOT
ATOM      1  C   UNL     1       2.223   5.998   5.743  0.00  0.00    +0.017 C 
ATOM      2  C   UNL     1       1.655   4.556   5.691  0.00  0.00    +0.025 C 
ATOM      3  C   UNL     1       0.666   4.615   4.507  0.00  0.00    +0.088 C 
ATOM      4  N   UNL     1       0.293   6.028   4.319  0.00  0.00    -0.298 NA
ATOM      5  C   UNL     1       0.983   6.838   5.346  0.00  0.00    +0.085 C 
ATOM      6  C   UNL     1       0.634   6.489   2.967  0.00  0.00    +0.105 C 
ENDROOT
BRANCH   3   7
ATOM      7  C   UNL     1      -0.559   3.797   4.821  0.00  0.00    -0.012 A 
ATOM      8  C   UNL     1      -1.635   3.787   3.952  0.00  0.00    +0.115 A 
ATOM      9  N   UNL     1      -2.711   3.074   4.220  0.00  0.00    -0.263 NA
ATOM     10  C   UNL     1      -2.807   2.347   5.315  0.00  0.00    +0.111 A 
ATOM     11  C   UNL     1      -1.771   2.307   6.230  0.00  0.00    +0.020 A 
ATOM     12  C   UNL     1      -0.621   3.040   5.980  0.00  0.00    +0.008 A 
ENDBRANCH   3   7
TORSDOF 1
ENDMDL
MODEL 10
REMARK VINA RESULT:    -2.993      3.113      5.127
REMARK INTER + INTRA:          -3.423
REMARK INTER:                  -3.179
REMARK INTRA:                  -0.244
REMARK UNBOUND:                -0.255
REMARK  Name = Nicotine.pdb
REMARK  2 active torsions:
REMARK  status: ('A' for Active; 'I' for Inactive)
REMARK    1  A    between atoms: C_3  and  C_6
REMARK    2  A    between atoms: N_4  and  C_12
REMARK                            x       y       z     vdW  Elec       q    Type
REMARK                         _______ _______ _______ _____ _____    ______ ____
ROOT
ATOM      1  C   UNL     1       4.140   3.644   4.850  0.00  0.00    +0.017 C 
ATOM      2  C   UNL     1       2.887   3.808   3.951  0.00  0.00    +0.025 C 
ATOM      3  C   UNL     1       2.158   5.011   4.588  0.00  0.00    +0.088 C 
ATOM      4  N   UNL     1       2.620   5.112   5.984  0.00  0.00    -0.298 NA
ATOM      5  C   UNL     1       3.577   4.015   6.244  0.00  0.00    +0.085 C 
ATOM      6  C   UNL     1       3.235   6.420   6.242  0.00  0.00    +0.105 C 
ENDROOT
BRANCH   3   7
ATOM      7  C   UNL     1       0.669   4.785   4.553  0.00  0.00    -0.012 A 
ATOM      8  C   UNL     1      -0.185   5.807   4.183  0.00  0.00    +0.115 A 
ATOM      9  N   UNL     1      -1.489   5.618   4.151  0.00  0.00    -0.263 NA
ATOM     10  C   UNL     1      -2.029   4.457   4.467  0.00  0.00    +0.111 A 
ATOM     11  C   UNL     1      -1.239   3.389   4.847  0.00  0.00    +0.020 A 
ATOM     12  C   UNL     1       0.138   3.549   4.887  0.00  0.00    +0.008 A 
ENDBRANCH   3   7
TORSDOF 1
ENDMDL
