MODEL 1
REMARK VINA RESULT:    -4.049      0.000      0.000
REMARK INTER + INTRA:          -4.525
REMARK INTER:                  -4.285
REMARK INTRA:                  -0.240
REMARK UNBOUND:                -0.240
REMARK  Name = Nicotine.pdb
REMARK  2 active torsions:
REMARK  status: ('A' for Active; 'I' for Inactive)
REMARK    1  A    between atoms: C_3  and  C_6
REMARK    2  A    between atoms: N_4  and  C_12
REMARK                            x       y       z     vdW  Elec       q    Type
REMARK                         _______ _______ _______ _____ _____    ______ ____
ROOT
ATOM      1  C   UNL     1      -2.847   5.721  -3.832  0.00  0.00    +0.017 C 
ATOM      2  C   UNL     1      -1.606   6.641  -3.971  0.00  0.00    +0.025 C 
ATOM      3  C   UNL     1      -1.031   6.243  -5.347  0.00  0.00    +0.088 C 
ATOM      4  N   UNL     1      -1.524   4.888  -5.651  0.00  0.00    -0.298 NA
ATOM      5  C   UNL     1      -2.353   4.423  -4.518  0.00  0.00    +0.085 C 
ATOM      6  C   UNL     1      -2.289   4.874  -6.905  0.00  0.00    +0.105 C 
ENDROOT
BRANCH   3   7
ATOM      7  C   UNL     1       0.474   6.243  -5.293  0.00  0.00    -0.012 A 
ATOM      8  C   UNL     1       1.210   6.851  -6.292  0.00  0.00    +0.115 A 
ATOM      9  N   UNL     1       2.528   6.855  -6.253  0.00  0.00    -0.263 NA
ATOM     10  C   UNL     1       3.194   6.284  -5.268  0.00  0.00    +0.111 A 
ATOM     11  C   UNL     1       2.526   5.657  -4.232  0.00  0.00    +0.020 A 
ATOM     12  C   UNL     1       1.140   5.637  -4.238  0.00  0.00    +0.008 A 
ENDBRANCH   3   7
TORSDOF 1
ENDMDL
MODEL 2
REMARK VINA RESULT:    -3.943      1.386      4.437
REMARK INTER + INTRA:          -4.413
REMARK INTER:                  -4.164
REMARK INTRA:                  -0.249
REMARK UNBOUND:                -0.240
REMARK  Name = Nicotine.pdb
REMARK  2 active torsions:
REMARK  status: ('A' for Active; 'I' for Inactive)
REMARK    1  A    between atoms: C_3  and  C_6
REMARK    2  A    between atoms: N_4  and  C_12
REMARK                            x       y       z     vdW  Elec       q    Type
REMARK                         _______ _______ _______ _____ _____    ______ ____
ROOT
ATOM      1  C   UNL     1       2.764   6.103  -4.883  0.00  0.00    +0.017 C 
ATOM      2  C   UNL     1       1.643   5.538  -3.972  0.00  0.00    +0.025 C 
ATOM      3  C   UNL     1       0.718   4.810  -4.970  0.00  0.00    +0.088 C 
ATOM      4  N   UNL     1       0.962   5.397  -6.300  0.00  0.00    -0.298 NA
ATOM      5  C   UNL     1       1.973   6.467  -6.164  0.00  0.00    +0.085 C 
ATOM      6  C   UNL     1       1.404   4.373  -7.255  0.00  0.00    +0.105 C 
ENDROOT
BRANCH   3   7
ATOM      7  C   UNL     1      -0.722   5.011  -4.576  0.00  0.00    -0.012 A 
ATOM      8  C   UNL     1      -1.625   3.969  -4.669  0.00  0.00    +0.115 A 
ATOM      9  N   UNL     1      -2.887   4.136  -4.326  0.00  0.00    -0.263 NA
ATOM     10  C   UNL     1      -3.337   5.294  -3.884  0.00  0.00    +0.111 A 
ATOM     11  C   UNL     1      -2.493   6.382  -3.764  0.00  0.00    +0.020 A 
ATOM     12  C   UNL     1      -1.158   6.242  -4.110  0.00  0.00    +0.008 A 
ENDBRANCH   3   7
TORSDOF 1
ENDMDL
MODEL 3
REMARK VINA RESULT:    -3.868      1.334      2.093
REMARK INTER + INTRA:          -4.334
REMARK INTER:                  -4.134
REMARK INTRA:                  -0.200
REMARK UNBOUND:                -0.240
REMARK  Name = Nicotine.pdb
REMARK  2 active torsions:
REMARK  status: ('A' for Active; 'I' for Inactive)
REMARK    1  A    between atoms: C_3  and  C_6
REMARK    2  A    between atoms: N_4  and  C_12
REMARK                            x       y       z     vdW  Elec       q    Type
REMARK                         _______ _______ _______ _____ _____    ______ ____
ROOT
ATOM      1  C   UNL     1      -2.557   2.993  -5.300  0.00  0.00    +0.017 C 
ATOM      2  C   UNL     1      -1.029   2.985  -5.030  0.00  0.00    +0.025 C 
ATOM      3  C   UNL     1      -0.765   4.408  -4.494  0.00  0.00    +0.088 C 
ATOM      4  N   UNL     1      -1.866   5.266  -4.967  0.00  0.00    -0.298 NA
ATOM      5  C   UNL     1      -2.781   4.445  -5.789  0.00  0.00    +0.085 C 
ATOM      6  C   UNL     1      -2.578   5.880  -3.839  0.00  0.00    +0.105 C 
ENDROOT
BRANCH   3   7
ATOM      7  C   UNL     1       0.549   4.920  -5.025  0.00  0.00    -0.012 A 
ATOM      8  C   UNL     1       0.864   4.782  -6.363  0.00  0.00    +0.115 A 
ATOM      9  N   UNL     1       2.012   5.228  -6.836  0.00  0.00    -0.263 NA
ATOM     10  C   UNL     1       2.899   5.817  -6.059  0.00  0.00    +0.111 A 
ATOM     11  C   UNL     1       2.654   5.991  -4.710  0.00  0.00    +0.020 A 
ATOM     12  C   UNL     1       1.456   5.540  -4.178  0.00  0.00    +0.008 A 
ENDBRANCH   3   7
TORSDOF 1
ENDMDL
MODEL 4
REMARK VINA RESULT:    -3.376      1.803      4.491
REMARK INTER + INTRA:          -3.813
REMARK INTER:                  -3.606
REMARK INTRA:                  -0.206
REMARK UNBOUND:                -0.240
REMARK  Name = Nicotine.pdb
REMARK  2 active torsions:
REMARK  status: ('A' for Active; 'I' for Inactive)
REMARK    1  A    between atoms: C_3  and  C_6
REMARK    2  A    between atoms: N_4  and  C_12
REMARK                            x       y       z     vdW  Elec       q    Type
REMARK                         _______ _______ _______ _____ _____    ______ ____
ROOT
ATOM      1  C   UNL     1       1.395   5.381  -4.461  0.00  0.00    +0.017 C 
ATOM      2  C   UNL     1       0.086   5.898  -3.808  0.00  0.00    +0.025 C 
ATOM      3  C   UNL     1      -0.963   4.863  -4.267  0.00  0.00    +0.088 C 
ATOM      4  N   UNL     1      -0.437   4.216  -5.482  0.00  0.00    -0.298 NA
ATOM      5  C   UNL     1       0.872   4.821  -5.808  0.00  0.00    +0.085 C 
ATOM      6  C   UNL     1      -0.316   2.765  -5.296  0.00  0.00    +0.105 C 
ENDROOT
BRANCH   3   7
ATOM      7  C   UNL     1      -2.266   5.555  -4.575  0.00  0.00    -0.012 A 
ATOM      8  C   UNL     1      -2.689   5.696  -5.883  0.00  0.00    +0.115 A 
ATOM      9  N   UNL     1      -3.828   6.300  -6.162  0.00  0.00    -0.263 NA
ATOM     10  C   UNL     1      -4.602   6.791  -5.215  0.00  0.00    +0.111 A 
ATOM     11  C   UNL     1      -4.244   6.687  -3.884  0.00  0.00    +0.020 A 
ATOM     12  C   UNL     1      -3.057   6.054  -3.552  0.00  0.00    +0.008 A 
ENDBRANCH   3   7
TORSDOF 1
ENDMDL
MODEL 5
REMARK VINA RESULT:    -3.267     14.274     15.147
REMARK INTER + INTRA:          -3.697
REMARK INTER:                  -3.484
REMARK INTRA:                  -0.214
REMARK UNBOUND:                -0.240
REMARK  Name = Nicotine.pdb
REMARK  2 active torsions:
REMARK  status: ('A' for Active; 'I' for Inactive)
REMARK    1  A    between atoms: C_3  and  C_6
REMARK    2  A    between atoms: N_4  and  C_12
REMARK                            x       y       z     vdW  Elec       q    Type
REMARK                         _______ _______ _______ _____ _____    ______ ____
ROOT
ATOM      1  C   UNL     1       0.799  -3.162   5.688  0.00  0.00    +0.017 C 
ATOM      2  C   UNL     1       2.177  -3.049   4.986  0.00  0.00    +0.025 C 
ATOM      3  C   UNL     1       2.395  -4.468   4.418  0.00  0.00    +0.088 C 
ATOM      4  N   UNL     1       1.552  -5.387   5.204  0.00  0.00    -0.298 NA
ATOM      5  C   UNL     1       0.848  -4.607   6.244  0.00  0.00    +0.085 C 
ATOM      6  C   UNL     1       0.599  -6.097   4.341  0.00  0.00    +0.105 C 
ENDROOT
BRANCH   3   7
ATOM      7  C   UNL     1       3.844  -4.857   4.552  0.00  0.00    -0.012 A 
ATOM      8  C   UNL     1       4.605  -4.371   5.599  0.00  0.00    +0.115 A 
ATOM      9  N   UNL     1       5.874  -4.707   5.723  0.00  0.00    -0.263 NA
ATOM     10  C   UNL     1       6.465  -5.513   4.863  0.00  0.00    +0.111 A 
ATOM     11  C   UNL     1       5.768  -6.038   3.791  0.00  0.00    +0.020 A 
ATOM     12  C   UNL     1       4.430  -5.711   3.631  0.00  0.00    +0.008 A 
ENDBRANCH   3   7
TORSDOF 1
ENDMDL
MODEL 6
REMARK VINA RESULT:    -3.178     14.436     15.631
REMARK INTER + INTRA:          -3.604
REMARK INTER:                  -3.349
REMARK INTRA:                  -0.255
REMARK UNBOUND:                -0.240
REMARK  Name = Nicotine.pdb
REMARK  2 active torsions:
REMARK  status: ('A' for Active; 'I' for Inactive)
REMARK    1  A    between atoms: C_3  and  C_6
REMARK    2  A    between atoms: N_4  and  C_12
REMARK                            x       y       z     vdW  Elec       q    Type
REMARK                         _______ _______ _______ _____ _____    ______ ____
ROOT
ATOM      1  C   UNL     1       4.813  -5.859   3.889  0.00  0.00    +0.017 C 
ATOM      2  C   UNL     1       3.430  -5.217   3.604  0.00  0.00    +0.025 C 
ATOM      3  C   UNL     1       3.257  -4.230   4.778  0.00  0.00    +0.088 C 
ATOM      4  N   UNL     1       4.130  -4.694   5.871  0.00  0.00    -0.298 NA
ATOM      5  C   UNL     1       4.812  -5.932   5.437  0.00  0.00    +0.085 C 
ATOM      6  C   UNL     1       5.104  -3.659   6.244  0.00  0.00    +0.105 C 
ENDROOT
BRANCH   3   7
ATOM      7  C   UNL     1       1.822  -4.222   5.235  0.00  0.00    -0.012 A 
ATOM      8  C   UNL     1       1.270  -3.083   5.789  0.00  0.00    +0.115 A 
ATOM      9  N   UNL     1       0.014  -3.068   6.191  0.00  0.00    -0.263 NA
ATOM     10  C   UNL     1      -0.761  -4.128   6.083  0.00  0.00    +0.111 A 
ATOM     11  C   UNL     1      -0.279  -5.304   5.537  0.00  0.00    +0.020 A 
ATOM     12  C   UNL     1       1.035  -5.356   5.099  0.00  0.00    +0.008 A 
ENDBRANCH   3   7
TORSDOF 1
ENDMDL
MODEL 7
REMARK VINA RESULT:    -3.086      1.816      2.494
REMARK INTER + INTRA:          -3.507
REMARK INTER:                  -3.269
REMARK INTRA:                  -0.238
REMARK UNBOUND:                -0.240
REMARK  Name = Nicotine.pdb
REMARK  2 active torsions:
REMARK  status: ('A' for Active; 'I' for Inactive)
REMARK    1  A    between atoms: C_3  and  C_6
REMARK    2  A    between atoms: N_4  and  C_12
REMARK                            x       y       z     vdW  Elec       q    Type
REMARK                         _______ _______ _______ _____ _____    ______ ____
ROOT
ATOM      1  C   UNL     1      -4.767   4.295  -3.556  0.00  0.00    +0.017 C 
ATOM      2  C   UNL     1      -3.654   5.318  -3.902  0.00  0.00    +0.025 C 
ATOM      3  C   UNL     1      -2.919   4.647  -5.081  0.00  0.00    +0.088 C 
ATOM      4  N   UNL     1      -3.199   3.201  -5.004  0.00  0.00    -0.298 NA
ATOM      5  C   UNL     1      -4.048   2.949  -3.820  0.00  0.00    +0.085 C 
ATOM      6  C   UNL     1      -3.849   2.724  -6.231  0.00  0.00    +0.105 C 
ENDROOT
BRANCH   3   7
ATOM      7  C   UNL     1      -1.437   4.891  -4.968  0.00  0.00    -0.012 A 
ATOM      8  C   UNL     1      -0.567   4.359  -5.901  0.00  0.00    +0.115 A 
ATOM      9  N   UNL     1       0.732   4.568  -5.809  0.00  0.00    -0.263 NA
ATOM     10  C   UNL     1       1.251   5.285  -4.832  0.00  0.00    +0.111 A 
ATOM     11  C   UNL     1       0.443   5.849  -3.862  0.00  0.00    +0.020 A 
ATOM     12  C   UNL     1      -0.928   5.655  -3.929  0.00  0.00    +0.008 A 
ENDBRANCH   3   7
TORSDOF 1
ENDMDL
MODEL 8
REMARK VINA RESULT:    -3.072     13.253     14.035
REMARK INTER + INTRA:          -3.492
REMARK INTER:                  -3.267
REMARK INTRA:                  -0.225
REMARK UNBOUND:                -0.240
REMARK  Name = Nicotine.pdb
REMARK  2 active torsions:
REMARK  status: ('A' for Active; 'I' for Inactive)
REMARK    1  A    between atoms: C_3  and  C_6
REMARK    2  A    between atoms: N_4  and  C_12
REMARK                            x       y       z     vdW  Elec       q    Type
REMARK                         _______ _______ _______ _____ _____    ______ ____
ROOT
ATOM      1  C   UNL     1       8.336   0.025   5.873  0.00  0.00    +0.017 C 
ATOM      2  C   UNL     1       9.173   1.297   6.170  0.00  0.00    +0.025 C 
ATOM      3  C   UNL     1       8.111   2.416   6.188  0.00  0.00    +0.088 C 
ATOM      4  N   UNL     1       6.952   1.931   5.417  0.00  0.00    -0.298 NA
ATOM      5  C   UNL     1       7.259   0.578   4.905  0.00  0.00    +0.085 C 
ATOM      6  C   UNL     1       5.738   1.918   6.244  0.00  0.00    +0.105 C 
ENDROOT
BRANCH   3   7
ATOM      7  C   UNL     1       8.668   3.662   5.549  0.00  0.00    -0.012 A 
ATOM      8  C   UNL     1       8.668   4.860   6.237  0.00  0.00    +0.115 A 
ATOM      9  N   UNL     1       9.153   5.955   5.685  0.00  0.00    -0.263 NA
ATOM     10  C   UNL     1       9.653   5.953   4.466  0.00  0.00    +0.111 A 
ATOM     11  C   UNL     1       9.687   4.792   3.716  0.00  0.00    +0.020 A 
ATOM     12  C   UNL     1       9.191   3.620   4.265  0.00  0.00    +0.008 A 
ENDBRANCH   3   7
TORSDOF 1
ENDMDL
MODEL 9
REMARK VINA RESULT:    -3.005     11.123     12.972
REMARK INTER + INTRA:          -3.420
REMARK INTER:                  -3.222
REMARK INTRA:                  -0.198
REMARK UNBOUND:                -0.240
REMARK  Name = Nicotine.pdb
REMARK  2 active torsions:
REMARK  status: ('A' for Active; 'I' for Inactive)
REMARK    1  A    between atoms: C_3  and  C_6
REMARK    2  A    between atoms: N_4  and  C_12
REMARK                            x       y       z     vdW  Elec       q    Type
REMARK                         _______ _______ _______ _____ _____    ______ ____
ROOT
ATOM      1  C   UNL     1      -4.475   0.921   3.396  0.00  0.00    +0.017 C 
ATOM      2  C   UNL     1      -3.799  -0.066   4.384  0.00  0.00    +0.025 C 
ATOM      3  C   UNL     1      -3.279  -1.184   3.455  0.00  0.00    +0.088 C 
ATOM      4  N   UNL     1      -4.075  -1.128   2.216  0.00  0.00    -0.298 NA
ATOM      5  C   UNL     1      -5.075  -0.048   2.347  0.00  0.00    +0.085 C 
ATOM      6  C   UNL     1      -3.214  -0.911   1.046  0.00  0.00    +0.105 C 
ENDROOT
BRANCH   3   7
ATOM      7  C   UNL     1      -3.455  -2.525   4.119  0.00  0.00    -0.012 A 
ATOM      8  C   UNL     1      -3.126  -2.694   5.451  0.00  0.00    +0.115 A 
ATOM      9  N   UNL     1      -3.277  -3.865   6.040  0.00  0.00    -0.263 NA
ATOM     10  C   UNL     1      -3.743  -4.912   5.390  0.00  0.00    +0.111 A 
ATOM     11  C   UNL     1      -4.095  -4.819   4.056  0.00  0.00    +0.020 A 
ATOM     12  C   UNL     1      -3.955  -3.603   3.405  0.00  0.00    +0.008 A 
ENDBRANCH   3   7
TORSDOF 1
ENDMDL
