MODEL 1
REMARK VINA RESULT:     7.613      0.000      0.000
REMARK INTER + INTRA:           7.838
REMARK INTER:                   8.059
REMARK INTRA:                  -0.220
REMARK UNBOUND:                -0.220
REMARK  Name = Nicotine.pdb
REMARK  2 active torsions:
REMARK  status: ('A' for Active; 'I' for Inactive)
REMARK    1  A    between atoms: C_3  and  C_6
REMARK    2  A    between atoms: N_4  and  C_12
REMARK                            x       y       z     vdW  Elec       q    Type
REMARK                         _______ _______ _______ _____ _____    ______ ____
ROOT
ATOM      1  C   UNL     1       5.924   5.940   5.691  0.00  0.00    +0.017 C 
ATOM      2  C   UNL     1       6.384   4.535   6.162  0.00  0.00    +0.025 C 
ATOM      3  C   UNL     1       7.918   4.681   6.243  0.00  0.00    +0.088 C 
ATOM      4  N   UNL     1       8.297   5.805   5.368  0.00  0.00    -0.298 NA
ATOM      5  C   UNL     1       7.074   6.340   4.733  0.00  0.00    +0.085 C 
ATOM      6  C   UNL     1       8.998   6.850   6.125  0.00  0.00    +0.105 C 
ENDROOT
BRANCH   3   7
ATOM      7  C   UNL     1       8.580   3.414   5.768  0.00  0.00    -0.012 A 
ATOM      8  C   UNL     1       9.625   3.467   4.865  0.00  0.00    +0.115 A 
ATOM      9  N   UNL     1      10.209   2.362   4.444  0.00  0.00    -0.263 NA
ATOM     10  C   UNL     1       9.826   1.172   4.863  0.00  0.00    +0.111 A 
ATOM     11  C   UNL     1       8.788   1.040   5.766  0.00  0.00    +0.020 A 
ATOM     12  C   UNL     1       8.152   2.180   6.235  0.00  0.00    +0.008 A 
ENDBRANCH   3   7
TORSDOF 1
ENDMDL
