MODEL 1
REMARK VINA RESULT:    -3.595      0.000      0.000
REMARK INTER + INTRA:          -4.029
REMARK INTER:                  -3.805
REMARK INTRA:                  -0.223
REMARK UNBOUND:                -0.223
REMARK  Name = Nicotine.pdb
REMARK  2 active torsions:
REMARK  status: ('A' for Active; 'I' for Inactive)
REMARK    1  A    between atoms: C_3  and  C_6
REMARK    2  A    between atoms: N_4  and  C_12
REMARK                            x       y       z     vdW  Elec       q    Type
REMARK                         _______ _______ _______ _____ _____    ______ ____
ROOT
ATOM      1  C   UNL     1       8.041   4.770   3.234  0.00  0.00    +0.017 C 
ATOM      2  C   UNL     1       7.754   3.566   4.169  0.00  0.00    +0.025 C 
ATOM      3  C   UNL     1       9.099   3.365   4.899  0.00  0.00    +0.088 C 
ATOM      4  N   UNL     1      10.147   3.971   4.058  0.00  0.00    -0.298 NA
ATOM      5  C   UNL     1       9.516   4.512   2.836  0.00  0.00    +0.085 C 
ATOM      6  C   UNL     1      10.867   5.021   4.790  0.00  0.00    +0.105 C 
ENDROOT
BRANCH   3   7
ATOM      7  C   UNL     1       9.370   1.893   5.077  0.00  0.00    -0.012 A 
ATOM      8  C   UNL     1      10.507   1.322   4.539  0.00  0.00    +0.115 A 
ATOM      9  N   UNL     1      10.752   0.035   4.691  0.00  0.00    -0.263 NA
ATOM     10  C   UNL     1       9.930  -0.753   5.355  0.00  0.00    +0.111 A 
ATOM     11  C   UNL     1       8.773  -0.253   5.922  0.00  0.00    +0.020 A 
ATOM     12  C   UNL     1       8.485   1.097   5.788  0.00  0.00    +0.008 A 
ENDBRANCH   3   7
TORSDOF 1
ENDMDL
MODEL 2
REMARK VINA RESULT:    -3.595      2.602      4.439
REMARK INTER + INTRA:          -4.028
REMARK INTER:                  -3.784
REMARK INTRA:                  -0.244
REMARK UNBOUND:                -0.223
REMARK  Name = Nicotine.pdb
REMARK  2 active torsions:
REMARK  status: ('A' for Active; 'I' for Inactive)
REMARK    1  A    between atoms: C_3  and  C_6
REMARK    2  A    between atoms: N_4  and  C_12
REMARK                            x       y       z     vdW  Elec       q    Type
REMARK                         _______ _______ _______ _____ _____    ______ ____
ROOT
ATOM      1  C   UNL     1       6.837   4.013   5.493  0.00  0.00    +0.017 C 
ATOM      2  C   UNL     1       7.218   3.796   4.004  0.00  0.00    +0.025 C 
ATOM      3  C   UNL     1       8.753   3.640   4.059  0.00  0.00    +0.088 C 
ATOM      4  N   UNL     1       9.213   4.279   5.305  0.00  0.00    -0.298 NA
ATOM      5  C   UNL     1       8.040   4.842   6.007  0.00  0.00    +0.085 C 
ATOM      6  C   UNL     1       9.926   3.318   6.157  0.00  0.00    +0.105 C 
ENDROOT
BRANCH   3   7
ATOM      7  C   UNL     1       9.380   4.321   2.870  0.00  0.00    -0.012 A 
ATOM      8  C   UNL     1      10.400   3.705   2.169  0.00  0.00    +0.115 A 
ATOM      9  N   UNL     1      10.954   4.294   1.127  0.00  0.00    -0.263 NA
ATOM     10  C   UNL     1      10.563   5.483   0.715  0.00  0.00    +0.111 A 
ATOM     11  C   UNL     1       9.548   6.160   1.366  0.00  0.00    +0.020 A 
ATOM     12  C   UNL     1       8.938   5.570   2.462  0.00  0.00    +0.008 A 
ENDBRANCH   3   7
TORSDOF 1
ENDMDL
MODEL 3
REMARK VINA RESULT:    -3.187      1.757      2.739
REMARK INTER + INTRA:          -3.596
REMARK INTER:                  -3.357
REMARK INTRA:                  -0.239
REMARK UNBOUND:                -0.223
REMARK  Name = Nicotine.pdb
REMARK  2 active torsions:
REMARK  status: ('A' for Active; 'I' for Inactive)
REMARK    1  A    between atoms: C_3  and  C_6
REMARK    2  A    between atoms: N_4  and  C_12
REMARK                            x       y       z     vdW  Elec       q    Type
REMARK                         _______ _______ _______ _____ _____    ______ ____
ROOT
ATOM      1  C   UNL     1       9.512   7.009   2.393  0.00  0.00    +0.017 C 
ATOM      2  C   UNL     1       9.868   6.097   3.596  0.00  0.00    +0.025 C 
ATOM      3  C   UNL     1      10.219   4.754   2.922  0.00  0.00    +0.088 C 
ATOM      4  N   UNL     1       9.569   4.746   1.599  0.00  0.00    -0.298 NA
ATOM      5  C   UNL     1       8.816   6.008   1.437  0.00  0.00    +0.085 C 
ATOM      6  C   UNL     1      10.560   4.582   0.527  0.00  0.00    +0.105 C 
ENDROOT
BRANCH   3   7
ATOM      7  C   UNL     1       9.700   3.611   3.756  0.00  0.00    -0.012 A 
ATOM      8  C   UNL     1      10.511   2.528   4.040  0.00  0.00    +0.115 A 
ATOM      9  N   UNL     1      10.064   1.524   4.769  0.00  0.00    -0.263 NA
ATOM     10  C   UNL     1       8.838   1.510   5.252  0.00  0.00    +0.111 A 
ATOM     11  C   UNL     1       7.970   2.558   5.010  0.00  0.00    +0.020 A 
ATOM     12  C   UNL     1       8.405   3.634   4.252  0.00  0.00    +0.008 A 
ENDBRANCH   3   7
TORSDOF 1
ENDMDL
MODEL 4
REMARK VINA RESULT:    -2.933     14.069     15.677
REMARK INTER + INTRA:          -3.328
REMARK INTER:                  -3.074
REMARK INTRA:                  -0.254
REMARK UNBOUND:                -0.223
REMARK  Name = Nicotine.pdb
REMARK  2 active torsions:
REMARK  status: ('A' for Active; 'I' for Inactive)
REMARK    1  A    between atoms: C_3  and  C_6
REMARK    2  A    between atoms: N_4  and  C_12
REMARK                            x       y       z     vdW  Elec       q    Type
REMARK                         _______ _______ _______ _____ _____    ______ ____
ROOT
ATOM      1  C   UNL     1       1.537  -1.245  -5.415  0.00  0.00    +0.017 C 
ATOM      2  C   UNL     1       0.810   0.067  -5.020  0.00  0.00    +0.025 C 
ATOM      3  C   UNL     1      -0.507  -0.011  -5.821  0.00  0.00    +0.088 C 
ATOM      4  N   UNL     1      -0.276  -0.928  -6.952  0.00  0.00    -0.298 NA
ATOM      5  C   UNL     1       1.125  -1.397  -6.900  0.00  0.00    +0.085 C 
ATOM      6  C   UNL     1      -1.212  -2.059  -6.913  0.00  0.00    +0.105 C 
ENDROOT
BRANCH   3   7
ATOM      7  C   UNL     1      -0.877   1.356  -6.335  0.00  0.00    -0.012 A 
ATOM      8  C   UNL     1      -2.205   1.712  -6.480  0.00  0.00    +0.115 A 
ATOM      9  N   UNL     1      -2.538   2.907  -6.929  0.00  0.00    -0.263 NA
ATOM     10  C   UNL     1      -1.627   3.802  -7.256  0.00  0.00    +0.111 A 
ATOM     11  C   UNL     1      -0.280   3.518  -7.137  0.00  0.00    +0.020 A 
ATOM     12  C   UNL     1       0.108   2.274  -6.663  0.00  0.00    +0.008 A 
ENDBRANCH   3   7
TORSDOF 1
ENDMDL
MODEL 5
REMARK VINA RESULT:    -2.923      2.150      2.901
REMARK INTER + INTRA:          -3.318
REMARK INTER:                  -3.149
REMARK INTRA:                  -0.169
REMARK UNBOUND:                -0.223
REMARK  Name = Nicotine.pdb
REMARK  2 active torsions:
REMARK  status: ('A' for Active; 'I' for Inactive)
REMARK    1  A    between atoms: C_3  and  C_6
REMARK    2  A    between atoms: N_4  and  C_12
REMARK                            x       y       z     vdW  Elec       q    Type
REMARK                         _______ _______ _______ _____ _____    ______ ____
ROOT
ATOM      1  C   UNL     1       9.796   5.664   1.364  0.00  0.00    +0.017 C 
ATOM      2  C   UNL     1       8.552   5.220   2.178  0.00  0.00    +0.025 C 
ATOM      3  C   UNL     1       8.974   5.499   3.636  0.00  0.00    +0.088 C 
ATOM      4  N   UNL     1      10.447   5.522   3.668  0.00  0.00    -0.298 NA
ATOM      5  C   UNL     1      10.952   5.245   2.306  0.00  0.00    +0.085 C 
ATOM      6  C   UNL     1      10.944   6.812   4.162  0.00  0.00    +0.105 C 
ENDROOT
BRANCH   3   7
ATOM      7  C   UNL     1       8.457   4.408   4.537  0.00  0.00    -0.012 A 
ATOM      8  C   UNL     1       9.033   3.151   4.514  0.00  0.00    +0.115 A 
ATOM      9  N   UNL     1       8.586   2.190   5.300  0.00  0.00    -0.263 NA
ATOM     10  C   UNL     1       7.582   2.386   6.132  0.00  0.00    +0.111 A 
ATOM     11  C   UNL     1       6.957   3.616   6.210  0.00  0.00    +0.020 A 
ATOM     12  C   UNL     1       7.402   4.652   5.403  0.00  0.00    +0.008 A 
ENDBRANCH   3   7
TORSDOF 1
ENDMDL
MODEL 6
REMARK VINA RESULT:    -2.782      1.602      2.340
REMARK INTER + INTRA:          -3.167
REMARK INTER:                  -2.975
REMARK INTRA:                  -0.192
REMARK UNBOUND:                -0.223
REMARK  Name = Nicotine.pdb
REMARK  2 active torsions:
REMARK  status: ('A' for Active; 'I' for Inactive)
REMARK    1  A    between atoms: C_3  and  C_6
REMARK    2  A    between atoms: N_4  and  C_12
REMARK                            x       y       z     vdW  Elec       q    Type
REMARK                         _______ _______ _______ _____ _____    ______ ____
ROOT
ATOM      1  C   UNL     1       9.228   6.312   2.057  0.00  0.00    +0.017 C 
ATOM      2  C   UNL     1       8.501   5.045   2.580  0.00  0.00    +0.025 C 
ATOM      3  C   UNL     1       8.947   4.973   4.056  0.00  0.00    +0.088 C 
ATOM      4  N   UNL     1      10.205   5.733   4.170  0.00  0.00    -0.298 NA
ATOM      5  C   UNL     1      10.568   6.246   2.831  0.00  0.00    +0.085 C 
ATOM      6  C   UNL     1      10.073   6.830   5.137  0.00  0.00    +0.105 C 
ENDROOT
BRANCH   3   7
ATOM      7  C   UNL     1       9.175   3.538   4.454  0.00  0.00    -0.012 A 
ATOM      8  C   UNL     1       8.189   2.831   5.116  0.00  0.00    +0.115 A 
ATOM      9  N   UNL     1       8.381   1.575   5.468  0.00  0.00    -0.263 NA
ATOM     10  C   UNL     1       9.509   0.946   5.206  0.00  0.00    +0.111 A 
ATOM     11  C   UNL     1      10.541   1.588   4.547  0.00  0.00    +0.020 A 
ATOM     12  C   UNL     1      10.374   2.908   4.156  0.00  0.00    +0.008 A 
ENDBRANCH   3   7
TORSDOF 1
ENDMDL
MODEL 7
REMARK VINA RESULT:    -1.257     13.665     14.871
REMARK INTER + INTRA:          -1.553
REMARK INTER:                  -1.347
REMARK INTRA:                  -0.207
REMARK UNBOUND:                -0.223
REMARK  Name = Nicotine.pdb
REMARK  2 active torsions:
REMARK  status: ('A' for Active; 'I' for Inactive)
REMARK    1  A    between atoms: C_3  and  C_6
REMARK    2  A    between atoms: N_4  and  C_12
REMARK                            x       y       z     vdW  Elec       q    Type
REMARK                         _______ _______ _______ _____ _____    ______ ____
ROOT
ATOM      1  C   UNL     1      -1.923   3.586  -7.049  0.00  0.00    +0.017 C 
ATOM      2  C   UNL     1      -0.518   2.957  -7.237  0.00  0.00    +0.025 C 
ATOM      3  C   UNL     1      -0.802   1.442  -7.159  0.00  0.00    +0.088 C 
ATOM      4  N   UNL     1      -2.073   1.273  -6.431  0.00  0.00    -0.298 NA
ATOM      5  C   UNL     1      -2.571   2.609  -6.036  0.00  0.00    +0.085 C 
ATOM      6  C   UNL     1      -3.061   0.565  -7.254  0.00  0.00    +0.105 C 
ENDROOT
BRANCH   3   7
ATOM      7  C   UNL     1       0.311   0.749  -6.417  0.00  0.00    -0.012 A 
ATOM      8  C   UNL     1       1.337   1.483  -5.853  0.00  0.00    +0.115 A 
ATOM      9  N   UNL     1       2.316   0.884  -5.201  0.00  0.00    -0.263 NA
ATOM     10  C   UNL     1       2.356  -0.426  -5.063  0.00  0.00    +0.111 A 
ATOM     11  C   UNL     1       1.364  -1.225  -5.600  0.00  0.00    +0.020 A 
ATOM     12  C   UNL     1       0.317  -0.631  -6.287  0.00  0.00    +0.008 A 
ENDBRANCH   3   7
TORSDOF 1
ENDMDL
