MODEL 1
REMARK VINA RESULT:    -5.809      0.000      0.000
REMARK INTER + INTRA:          -6.326
REMARK INTER:                  -6.148
REMARK INTRA:                  -0.178
REMARK UNBOUND:                -0.178
REMARK  Name = Nicotine.pdb
REMARK  2 active torsions:
REMARK  status: ('A' for Active; 'I' for Inactive)
REMARK    1  A    between atoms: C_3  and  C_6
REMARK    2  A    between atoms: N_4  and  C_12
REMARK                            x       y       z     vdW  Elec       q    Type
REMARK                         _______ _______ _______ _____ _____    ______ ____
ROOT
ATOM      1  C   UNL     1      -0.694   0.182  -4.092  0.00  0.00    +0.017 C 
ATOM      2  C   UNL     1      -0.076  -1.176  -4.518  0.00  0.00    +0.025 C 
ATOM      3  C   UNL     1      -0.325  -1.209  -6.041  0.00  0.00    +0.088 C 
ATOM      4  N   UNL     1      -1.446  -0.294  -6.320  0.00  0.00    -0.298 NA
ATOM      5  C   UNL     1      -1.915   0.280  -5.041  0.00  0.00    +0.085 C 
ATOM      6  C   UNL     1      -1.043   0.764  -7.256  0.00  0.00    +0.105 C 
ENDROOT
BRANCH   3   7
ATOM      7  C   UNL     1      -0.683  -2.607  -6.472  0.00  0.00    -0.012 A 
ATOM      8  C   UNL     1      -2.003  -3.015  -6.496  0.00  0.00    +0.115 A 
ATOM      9  N   UNL     1      -2.325  -4.237  -6.872  0.00  0.00    -0.263 NA
ATOM     10  C   UNL     1      -1.411  -5.114  -7.237  0.00  0.00    +0.111 A 
ATOM     11  C   UNL     1      -0.070  -4.778  -7.239  0.00  0.00    +0.020 A 
ATOM     12  C   UNL     1       0.307  -3.500  -6.855  0.00  0.00    +0.008 A 
ENDBRANCH   3   7
TORSDOF 1
ENDMDL
MODEL 2
REMARK VINA RESULT:    -5.531      0.986      1.928
REMARK INTER + INTRA:          -6.032
REMARK INTER:                  -5.819
REMARK INTRA:                  -0.213
REMARK UNBOUND:                -0.178
REMARK  Name = Nicotine.pdb
REMARK  2 active torsions:
REMARK  status: ('A' for Active; 'I' for Inactive)
REMARK    1  A    between atoms: C_3  and  C_6
REMARK    2  A    between atoms: N_4  and  C_12
REMARK                            x       y       z     vdW  Elec       q    Type
REMARK                         _______ _______ _______ _____ _____    ______ ____
ROOT
ATOM      1  C   UNL     1      -1.717   0.794  -7.096  0.00  0.00    +0.017 C 
ATOM      2  C   UNL     1      -2.295  -0.638  -7.242  0.00  0.00    +0.025 C 
ATOM      3  C   UNL     1      -1.685  -1.383  -6.036  0.00  0.00    +0.088 C 
ATOM      4  N   UNL     1      -0.476  -0.644  -5.631  0.00  0.00    -0.298 NA
ATOM      5  C   UNL     1      -0.298   0.505  -6.545  0.00  0.00    +0.085 C 
ATOM      6  C   UNL     1      -0.574  -0.197  -4.236  0.00  0.00    +0.105 C 
ENDROOT
BRANCH   3   7
ATOM      7  C   UNL     1      -1.319  -2.789  -6.434  0.00  0.00    -0.012 A 
ATOM      8  C   UNL     1      -2.303  -3.704  -6.756  0.00  0.00    +0.115 A 
ATOM      9  N   UNL     1      -1.991  -4.937  -7.105  0.00  0.00    -0.263 NA
ATOM     10  C   UNL     1      -0.739  -5.345  -7.161  0.00  0.00    +0.111 A 
ATOM     11  C   UNL     1       0.300  -4.486  -6.854  0.00  0.00    +0.020 A 
ATOM     12  C   UNL     1       0.010  -3.181  -6.487  0.00  0.00    +0.008 A 
ENDBRANCH   3   7
TORSDOF 1
ENDMDL
MODEL 3
REMARK VINA RESULT:    -3.250      1.406      4.494
REMARK INTER + INTRA:          -3.618
REMARK INTER:                  -3.431
REMARK INTRA:                  -0.186
REMARK UNBOUND:                -0.178
REMARK  Name = Nicotine.pdb
REMARK  2 active torsions:
REMARK  status: ('A' for Active; 'I' for Inactive)
REMARK    1  A    between atoms: C_3  and  C_6
REMARK    2  A    between atoms: N_4  and  C_12
REMARK                            x       y       z     vdW  Elec       q    Type
REMARK                         _______ _______ _______ _____ _____    ______ ____
ROOT
ATOM      1  C   UNL     1      -0.296  -4.814  -6.505  0.00  0.00    +0.017 C 
ATOM      2  C   UNL     1       0.179  -3.387  -6.125  0.00  0.00    +0.025 C 
ATOM      3  C   UNL     1      -1.143  -2.648  -5.828  0.00  0.00    +0.088 C 
ATOM      4  N   UNL     1      -2.217  -3.378  -6.525  0.00  0.00    -0.298 NA
ATOM      5  C   UNL     1      -1.617  -4.514  -7.256  0.00  0.00    +0.085 C 
ATOM      6  C   UNL     1      -3.239  -3.842  -5.578  0.00  0.00    +0.105 C 
ENDROOT
BRANCH   3   7
ATOM      7  C   UNL     1      -1.066  -1.234  -6.341  0.00  0.00    -0.012 A 
ATOM      8  C   UNL     1       0.149  -0.578  -6.405  0.00  0.00    +0.115 A 
ATOM      9  N   UNL     1       0.225   0.660  -6.852  0.00  0.00    -0.263 NA
ATOM     10  C   UNL     1      -0.845   1.319  -7.254  0.00  0.00    +0.111 A 
ATOM     11  C   UNL     1      -2.094   0.728  -7.220  0.00  0.00    +0.020 A 
ATOM     12  C   UNL     1      -2.212  -0.575  -6.760  0.00  0.00    +0.008 A 
ENDBRANCH   3   7
TORSDOF 1
ENDMDL
