MODEL 1
REMARK VINA RESULT:    -0.206      0.000      0.000
REMARK INTER + INTRA:          -0.442
REMARK INTER:                  -0.218
REMARK INTRA:                  -0.224
REMARK UNBOUND:                -0.224
REMARK  Name = Nicotine.pdb
REMARK  2 active torsions:
REMARK  status: ('A' for Active; 'I' for Inactive)
REMARK    1  A    between atoms: C_3  and  C_6
REMARK    2  A    between atoms: N_4  and  C_12
REMARK                            x       y       z     vdW  Elec       q    Type
REMARK                         _______ _______ _______ _____ _____    ______ ____
ROOT
ATOM      1  C   UNL     1      10.954  -4.424  -5.047  0.00  0.00    +0.017 C 
ATOM      2  C   UNL     1      10.941  -4.409  -3.496  0.00  0.00    +0.025 C 
ATOM      3  C   UNL     1       9.834  -3.384  -3.168  0.00  0.00    +0.088 C 
ATOM      4  N   UNL     1       9.678  -2.516  -4.350  0.00  0.00    -0.298 NA
ATOM      5  C   UNL     1      10.652  -2.941  -5.378  0.00  0.00    +0.085 C 
ATOM      6  C   UNL     1       8.306  -2.574  -4.868  0.00  0.00    +0.105 C 
ENDROOT
BRANCH   3   7
ATOM      7  C   UNL     1      10.237  -2.558  -1.974  0.00  0.00    -0.012 A 
ATOM      8  C   UNL     1      10.259  -1.179  -2.053  0.00  0.00    +0.115 A 
ATOM      9  N   UNL     1      10.610  -0.448  -1.012  0.00  0.00    -0.263 NA
ATOM     10  C   UNL     1      10.952  -0.998   0.136  0.00  0.00    +0.111 A 
ATOM     11  C   UNL     1      10.954  -2.372   0.290  0.00  0.00    +0.020 A 
ATOM     12  C   UNL     1      10.585  -3.172  -0.780  0.00  0.00    +0.008 A 
ENDBRANCH   3   7
TORSDOF 1
ENDMDL
