MODEL 1
REMARK VINA RESULT:    -3.930      0.000      0.000
REMARK INTER + INTRA:          -4.384
REMARK INTER:                  -4.160
REMARK INTRA:                  -0.224
REMARK UNBOUND:                -0.224
REMARK  Name = Nicotine.pdb
REMARK  2 active torsions:
REMARK  status: ('A' for Active; 'I' for Inactive)
REMARK    1  A    between atoms: C_3  and  C_6
REMARK    2  A    between atoms: N_4  and  C_12
REMARK                            x       y       z     vdW  Elec       q    Type
REMARK                         _______ _______ _______ _____ _____    ______ ____
ROOT
ATOM      1  C   UNL     1       1.051  -3.086   1.380  0.00  0.00    +0.017 C 
ATOM      2  C   UNL     1       0.684  -3.882   2.660  0.00  0.00    +0.025 C 
ATOM      3  C   UNL     1      -0.307  -4.944   2.137  0.00  0.00    +0.088 C 
ATOM      4  N   UNL     1      -0.869  -4.432   0.874  0.00  0.00    -0.298 NA
ATOM      5  C   UNL     1      -0.293  -3.097   0.609  0.00  0.00    +0.085 C 
ATOM      6  C   UNL     1      -0.597  -5.354  -0.236  0.00  0.00    +0.105 C 
ENDROOT
BRANCH   3   7
ATOM      7  C   UNL     1      -1.409  -5.157   3.142  0.00  0.00    -0.012 A 
ATOM      8  C   UNL     1      -2.732  -5.019   2.768  0.00  0.00    +0.115 A 
ATOM      9  N   UNL     1      -3.703  -5.204   3.641  0.00  0.00    -0.263 NA
ATOM     10  C   UNL     1      -3.454  -5.524   4.896  0.00  0.00    +0.111 A 
ATOM     11  C   UNL     1      -2.156  -5.679   5.343  0.00  0.00    +0.020 A 
ATOM     12  C   UNL     1      -1.109  -5.498   4.452  0.00  0.00    +0.008 A 
ENDBRANCH   3   7
TORSDOF 1
ENDMDL
MODEL 2
REMARK VINA RESULT:    -3.723      1.260      4.677
REMARK INTER + INTRA:          -4.164
REMARK INTER:                  -3.946
REMARK INTRA:                  -0.218
REMARK UNBOUND:                -0.224
REMARK  Name = Nicotine.pdb
REMARK  2 active torsions:
REMARK  status: ('A' for Active; 'I' for Inactive)
REMARK    1  A    between atoms: C_3  and  C_6
REMARK    2  A    between atoms: N_4  and  C_12
REMARK                            x       y       z     vdW  Elec       q    Type
REMARK                         _______ _______ _______ _____ _____    ______ ____
ROOT
ATOM      1  C   UNL     1      -3.935  -6.056   3.569  0.00  0.00    +0.017 C 
ATOM      2  C   UNL     1      -2.944  -5.958   2.379  0.00  0.00    +0.025 C 
ATOM      3  C   UNL     1      -1.582  -5.757   3.077  0.00  0.00    +0.088 C 
ATOM      4  N   UNL     1      -1.856  -5.217   4.421  0.00  0.00    -0.298 NA
ATOM      5  C   UNL     1      -3.317  -5.052   4.574  0.00  0.00    +0.085 C 
ATOM      6  C   UNL     1      -1.313  -6.097   5.464  0.00  0.00    +0.105 C 
ENDROOT
BRANCH   3   7
ATOM      7  C   UNL     1      -0.743  -4.783   2.292  0.00  0.00    -0.012 A 
ATOM      8  C   UNL     1       0.331  -4.148   2.887  0.00  0.00    +0.115 A 
ATOM      9  N   UNL     1       1.071  -3.294   2.207  0.00  0.00    -0.263 NA
ATOM     10  C   UNL     1       0.820  -3.012   0.944  0.00  0.00    +0.111 A 
ATOM     11  C   UNL     1      -0.237  -3.608   0.282  0.00  0.00    +0.020 A 
ATOM     12  C   UNL     1      -1.034  -4.515   0.963  0.00  0.00    +0.008 A 
ENDBRANCH   3   7
TORSDOF 1
ENDMDL
MODEL 3
REMARK VINA RESULT:    -3.472     15.293     15.922
REMARK INTER + INTRA:          -3.899
REMARK INTER:                  -3.670
REMARK INTRA:                  -0.230
REMARK UNBOUND:                -0.224
REMARK  Name = Nicotine.pdb
REMARK  2 active torsions:
REMARK  status: ('A' for Active; 'I' for Inactive)
REMARK    1  A    between atoms: C_3  and  C_6
REMARK    2  A    between atoms: N_4  and  C_12
REMARK                            x       y       z     vdW  Elec       q    Type
REMARK                         _______ _______ _______ _____ _____    ______ ____
ROOT
ATOM      1  C   UNL     1       7.246   5.131  -6.995  0.00  0.00    +0.017 C 
ATOM      2  C   UNL     1       7.323   3.584  -6.909  0.00  0.00    +0.025 C 
ATOM      3  C   UNL     1       8.225   3.348  -5.679  0.00  0.00    +0.088 C 
ATOM      4  N   UNL     1       9.020   4.573  -5.479  0.00  0.00    -0.298 NA
ATOM      5  C   UNL     1       8.670   5.540  -6.541  0.00  0.00    +0.085 C 
ATOM      6  C   UNL     1       8.782   5.144  -4.147  0.00  0.00    +0.105 C 
ENDROOT
BRANCH   3   7
ATOM      7  C   UNL     1       9.139   2.177  -5.929  0.00  0.00    -0.012 A 
ATOM      8  C   UNL     1      10.149   1.875  -5.036  0.00  0.00    +0.115 A 
ATOM      9  N   UNL     1      10.954   0.852  -5.248  0.00  0.00    -0.263 NA
ATOM     10  C   UNL     1      10.830   0.082  -6.310  0.00  0.00    +0.111 A 
ATOM     11  C   UNL     1       9.842   0.322  -7.247  0.00  0.00    +0.020 A 
ATOM     12  C   UNL     1       8.974   1.385  -7.056  0.00  0.00    +0.008 A 
ENDBRANCH   3   7
TORSDOF 1
ENDMDL
MODEL 4
REMARK VINA RESULT:    -3.263      1.383      4.351
REMARK INTER + INTRA:          -3.678
REMARK INTER:                  -3.462
REMARK INTRA:                  -0.215
REMARK UNBOUND:                -0.224
REMARK  Name = Nicotine.pdb
REMARK  2 active torsions:
REMARK  status: ('A' for Active; 'I' for Inactive)
REMARK    1  A    between atoms: C_3  and  C_6
REMARK    2  A    between atoms: N_4  and  C_12
REMARK                            x       y       z     vdW  Elec       q    Type
REMARK                         _______ _______ _______ _____ _____    ______ ____
ROOT
ATOM      1  C   UNL     1      -4.024  -6.076   1.046  0.00  0.00    +0.017 C 
ATOM      2  C   UNL     1      -2.533  -5.942   0.637  0.00  0.00    +0.025 C 
ATOM      3  C   UNL     1      -1.833  -5.627   1.976  0.00  0.00    +0.088 C 
ATOM      4  N   UNL     1      -2.853  -5.070   2.882  0.00  0.00    -0.298 NA
ATOM      5  C   UNL     1      -4.141  -5.004   2.158  0.00  0.00    +0.085 C 
ATOM      6  C   UNL     1      -2.975  -5.881   4.100  0.00  0.00    +0.105 C 
ENDROOT
BRANCH   3   7
ATOM      7  C   UNL     1      -0.736  -4.618   1.755  0.00  0.00    -0.012 A 
ATOM      8  C   UNL     1      -0.697  -3.869   0.594  0.00  0.00    +0.115 A 
ATOM      9  N   UNL     1       0.259  -2.984   0.393  0.00  0.00    -0.263 NA
ATOM     10  C   UNL     1       1.210  -2.778   1.283  0.00  0.00    +0.111 A 
ATOM     11  C   UNL     1       1.237  -3.489   2.468  0.00  0.00    +0.020 A 
ATOM     12  C   UNL     1       0.245  -4.424   2.716  0.00  0.00    +0.008 A 
ENDBRANCH   3   7
TORSDOF 1
ENDMDL
MODEL 5
REMARK VINA RESULT:    -2.923      8.548     10.873
REMARK INTER + INTRA:          -3.318
REMARK INTER:                  -3.106
REMARK INTRA:                  -0.212
REMARK UNBOUND:                -0.224
REMARK  Name = Nicotine.pdb
REMARK  2 active torsions:
REMARK  status: ('A' for Active; 'I' for Inactive)
REMARK    1  A    between atoms: C_3  and  C_6
REMARK    2  A    between atoms: N_4  and  C_12
REMARK                            x       y       z     vdW  Elec       q    Type
REMARK                         _______ _______ _______ _____ _____    ______ ____
ROOT
ATOM      1  C   UNL     1       8.358  -4.626   4.708  0.00  0.00    +0.017 C 
ATOM      2  C   UNL     1       8.878  -4.136   3.331  0.00  0.00    +0.025 C 
ATOM      3  C   UNL     1       7.963  -4.874   2.331  0.00  0.00    +0.088 C 
ATOM      4  N   UNL     1       7.422  -6.056   3.025  0.00  0.00    -0.298 NA
ATOM      5  C   UNL     1       7.979  -6.095   4.394  0.00  0.00    +0.085 C 
ATOM      6  C   UNL     1       5.954  -6.024   3.054  0.00  0.00    +0.105 C 
ENDROOT
BRANCH   3   7
ATOM      7  C   UNL     1       8.761  -5.305   1.128  0.00  0.00    -0.012 A 
ATOM      8  C   UNL     1      10.075  -5.709   1.268  0.00  0.00    +0.115 A 
ATOM      9  N   UNL     1      10.780  -6.088   0.220  0.00  0.00    -0.263 NA
ATOM     10  C   UNL     1      10.267  -6.097  -0.994  0.00  0.00    +0.111 A 
ATOM     11  C   UNL     1       8.959  -5.706  -1.212  0.00  0.00    +0.020 A 
ATOM     12  C   UNL     1       8.185  -5.306  -0.134  0.00  0.00    +0.008 A 
ENDBRANCH   3   7
TORSDOF 1
ENDMDL
MODEL 6
REMARK VINA RESULT:    -2.858      9.132     11.439
REMARK INTER + INTRA:          -3.249
REMARK INTER:                  -2.998
REMARK INTRA:                  -0.251
REMARK UNBOUND:                -0.224
REMARK  Name = Nicotine.pdb
REMARK  2 active torsions:
REMARK  status: ('A' for Active; 'I' for Inactive)
REMARK    1  A    between atoms: C_3  and  C_6
REMARK    2  A    between atoms: N_4  and  C_12
REMARK                            x       y       z     vdW  Elec       q    Type
REMARK                         _______ _______ _______ _____ _____    ______ ____
ROOT
ATOM      1  C   UNL     1       7.110  -5.271   2.855  0.00  0.00    +0.017 C 
ATOM      2  C   UNL     1       7.248  -5.957   1.470  0.00  0.00    +0.025 C 
ATOM      3  C   UNL     1       8.776  -6.065   1.287  0.00  0.00    +0.088 C 
ATOM      4  N   UNL     1       9.394  -5.048   2.158  0.00  0.00    -0.298 NA
ATOM      5  C   UNL     1       8.319  -4.303   2.847  0.00  0.00    +0.085 C 
ATOM      6  C   UNL     1      10.309  -5.668   3.125  0.00  0.00    +0.105 C 
ENDROOT
BRANCH   3   7
ATOM      7  C   UNL     1       9.141  -5.801  -0.150  0.00  0.00    -0.012 A 
ATOM      8  C   UNL     1      10.430  -6.021  -0.596  0.00  0.00    +0.115 A 
ATOM      9  N   UNL     1      10.758  -5.792  -1.853  0.00  0.00    -0.263 NA
ATOM     10  C   UNL     1       9.878  -5.348  -2.729  0.00  0.00    +0.111 A 
ATOM     11  C   UNL     1       8.569  -5.106  -2.356  0.00  0.00    +0.020 A 
ATOM     12  C   UNL     1       8.186  -5.339  -1.044  0.00  0.00    +0.008 A 
ENDBRANCH   3   7
TORSDOF 1
ENDMDL
MODEL 7
REMARK VINA RESULT:    -1.852      1.454      2.736
REMARK INTER + INTRA:          -2.185
REMARK INTER:                  -1.958
REMARK INTRA:                  -0.227
REMARK UNBOUND:                -0.224
REMARK  Name = Nicotine.pdb
REMARK  2 active torsions:
REMARK  status: ('A' for Active; 'I' for Inactive)
REMARK    1  A    between atoms: C_3  and  C_6
REMARK    2  A    between atoms: N_4  and  C_12
REMARK                            x       y       z     vdW  Elec       q    Type
REMARK                         _______ _______ _______ _____ _____    ______ ____
ROOT
ATOM      1  C   UNL     1       0.238  -5.798  -0.793  0.00  0.00    +0.017 C 
ATOM      2  C   UNL     1      -1.245  -5.451  -0.496  0.00  0.00    +0.025 C 
ATOM      3  C   UNL     1      -1.159  -4.672   0.834  0.00  0.00    +0.088 C 
ATOM      4  N   UNL     1       0.107  -5.056   1.484  0.00  0.00    -0.298 NA
ATOM      5  C   UNL     1       0.791  -6.052   0.631  0.00  0.00    +0.085 C 
ATOM      6  C   UNL     1       0.959  -3.883   1.712  0.00  0.00    +0.105 C 
ENDROOT
BRANCH   3   7
ATOM      7  C   UNL     1      -2.323  -5.038   1.718  0.00  0.00    -0.012 A 
ATOM      8  C   UNL     1      -2.351  -4.634   3.039  0.00  0.00    +0.115 A 
ATOM      9  N   UNL     1      -3.366  -4.950   3.820  0.00  0.00    -0.263 NA
ATOM     10  C   UNL     1      -4.386  -5.658   3.378  0.00  0.00    +0.111 A 
ATOM     11  C   UNL     1      -4.428  -6.097   2.068  0.00  0.00    +0.020 A 
ATOM     12  C   UNL     1      -3.382  -5.779   1.216  0.00  0.00    +0.008 A 
ENDBRANCH   3   7
TORSDOF 1
ENDMDL
