MODEL 1
REMARK VINA RESULT:    -4.285      0.000      0.000
REMARK INTER + INTRA:          -4.791
REMARK INTER:                  -4.535
REMARK INTRA:                  -0.256
REMARK UNBOUND:                -0.256
REMARK  Name = Nicotine.pdb
REMARK  2 active torsions:
REMARK  status: ('A' for Active; 'I' for Inactive)
REMARK    1  A    between atoms: C_3  and  C_6
REMARK    2  A    between atoms: N_4  and  C_12
REMARK                            x       y       z     vdW  Elec       q    Type
REMARK                         _______ _______ _______ _____ _____    ______ ____
ROOT
ATOM      1  C   UNL     1       4.313   4.731   2.491  0.00  0.00    +0.017 C 
ATOM      2  C   UNL     1       3.355   3.603   2.958  0.00  0.00    +0.025 C 
ATOM      3  C   UNL     1       3.983   3.146   4.292  0.00  0.00    +0.088 C 
ATOM      4  N   UNL     1       5.403   3.540   4.265  0.00  0.00    -0.298 NA
ATOM      5  C   UNL     1       5.685   4.195   2.970  0.00  0.00    +0.085 C 
ATOM      6  C   UNL     1       5.724   4.432   5.387  0.00  0.00    +0.105 C 
ENDROOT
BRANCH   3   7
ATOM      7  C   UNL     1       3.868   1.650   4.427  0.00  0.00    -0.012 A 
ATOM      8  C   UNL     1       3.865   1.058   5.676  0.00  0.00    +0.115 A 
ATOM      9  N   UNL     1       3.765  -0.251   5.802  0.00  0.00    -0.263 NA
ATOM     10  C   UNL     1       3.664  -1.043   4.753  0.00  0.00    +0.111 A 
ATOM     11  C   UNL     1       3.659  -0.523   3.472  0.00  0.00    +0.020 A 
ATOM     12  C   UNL     1       3.757   0.849   3.300  0.00  0.00    +0.008 A 
ENDBRANCH   3   7
TORSDOF 1
ENDMDL
MODEL 2
REMARK VINA RESULT:    -4.064      1.211      1.612
REMARK INTER + INTRA:          -4.557
REMARK INTER:                  -4.343
REMARK INTRA:                  -0.214
REMARK UNBOUND:                -0.256
REMARK  Name = Nicotine.pdb
REMARK  2 active torsions:
REMARK  status: ('A' for Active; 'I' for Inactive)
REMARK    1  A    between atoms: C_3  and  C_6
REMARK    2  A    between atoms: N_4  and  C_12
REMARK                            x       y       z     vdW  Elec       q    Type
REMARK                         _______ _______ _______ _____ _____    ______ ____
ROOT
ATOM      1  C   UNL     1       3.868   5.483   3.875  0.00  0.00    +0.017 C 
ATOM      2  C   UNL     1       2.994   4.216   4.073  0.00  0.00    +0.025 C 
ATOM      3  C   UNL     1       3.873   3.327   4.978  0.00  0.00    +0.088 C 
ATOM      4  N   UNL     1       5.267   3.773   4.808  0.00  0.00    -0.298 NA
ATOM      5  C   UNL     1       5.292   4.877   3.824  0.00  0.00    +0.085 C 
ATOM      6  C   UNL     1       5.845   4.197   6.090  0.00  0.00    +0.105 C 
ENDROOT
BRANCH   3   7
ATOM      7  C   UNL     1       3.741   1.884   4.563  0.00  0.00    -0.012 A 
ATOM      8  C   UNL     1       3.445   1.558   3.253  0.00  0.00    +0.115 A 
ATOM      9  N   UNL     1       3.328   0.298   2.881  0.00  0.00    -0.263 NA
ATOM     10  C   UNL     1       3.486  -0.694   3.735  0.00  0.00    +0.111 A 
ATOM     11  C   UNL     1       3.783  -0.445   5.062  0.00  0.00    +0.020 A 
ATOM     12  C   UNL     1       3.919   0.868   5.488  0.00  0.00    +0.008 A 
ENDBRANCH   3   7
TORSDOF 1
ENDMDL
MODEL 3
REMARK VINA RESULT:    -3.840      1.283      4.715
REMARK INTER + INTRA:          -4.321
REMARK INTER:                  -4.065
REMARK INTRA:                  -0.256
REMARK UNBOUND:                -0.256
REMARK  Name = Nicotine.pdb
REMARK  2 active torsions:
REMARK  status: ('A' for Active; 'I' for Inactive)
REMARK    1  A    between atoms: C_3  and  C_6
REMARK    2  A    between atoms: N_4  and  C_12
REMARK                            x       y       z     vdW  Elec       q    Type
REMARK                         _______ _______ _______ _____ _____    ______ ____
ROOT
ATOM      1  C   UNL     1       2.006  -0.499   6.144  0.00  0.00    +0.017 C 
ATOM      2  C   UNL     1       2.133   1.039   5.979  0.00  0.00    +0.025 C 
ATOM      3  C   UNL     1       3.003   1.181   4.712  0.00  0.00    +0.088 C 
ATOM      4  N   UNL     1       3.750  -0.080   4.551  0.00  0.00    -0.298 NA
ATOM      5  C   UNL     1       3.400  -0.980   5.670  0.00  0.00    +0.085 C 
ATOM      6  C   UNL     1       3.451  -0.707   3.257  0.00  0.00    +0.105 C 
ENDROOT
BRANCH   3   7
ATOM      7  C   UNL     1       3.964   2.330   4.877  0.00  0.00    -0.012 A 
ATOM      8  C   UNL     1       4.563   2.905   3.771  0.00  0.00    +0.115 A 
ATOM      9  N   UNL     1       5.405   3.910   3.907  0.00  0.00    -0.263 NA
ATOM     10  C   UNL     1       5.709   4.405   5.090  0.00  0.00    +0.111 A 
ATOM     11  C   UNL     1       5.149   3.883   6.241  0.00  0.00    +0.020 A 
ATOM     12  C   UNL     1       4.255   2.828   6.138  0.00  0.00    +0.008 A 
ENDBRANCH   3   7
TORSDOF 1
ENDMDL
MODEL 4
REMARK VINA RESULT:    -3.627      1.617      4.682
REMARK INTER + INTRA:          -4.095
REMARK INTER:                  -3.876
REMARK INTRA:                  -0.219
REMARK UNBOUND:                -0.256
REMARK  Name = Nicotine.pdb
REMARK  2 active torsions:
REMARK  status: ('A' for Active; 'I' for Inactive)
REMARK    1  A    between atoms: C_3  and  C_6
REMARK    2  A    between atoms: N_4  and  C_12
REMARK                            x       y       z     vdW  Elec       q    Type
REMARK                         _______ _______ _______ _____ _____    ______ ____
ROOT
ATOM      1  C   UNL     1       3.429  -0.022   5.656  0.00  0.00    +0.017 C 
ATOM      2  C   UNL     1       4.184   1.332   5.672  0.00  0.00    +0.025 C 
ATOM      3  C   UNL     1       3.214   2.281   4.937  0.00  0.00    +0.088 C 
ATOM      4  N   UNL     1       2.330   1.443   4.106  0.00  0.00    -0.298 NA
ATOM      5  C   UNL     1       2.726   0.028   4.276  0.00  0.00    +0.085 C 
ATOM      6  C   UNL     1       0.921   1.643   4.469  0.00  0.00    +0.105 C 
ENDROOT
BRANCH   3   7
ATOM      7  C   UNL     1       3.990   3.232   4.063  0.00  0.00    -0.012 A 
ATOM      8  C   UNL     1       3.564   3.505   2.777  0.00  0.00    +0.115 A 
ATOM      9  N   UNL     1       4.238   4.336   2.005  0.00  0.00    -0.263 NA
ATOM     10  C   UNL     1       5.334   4.936   2.424  0.00  0.00    +0.111 A 
ATOM     11  C   UNL     1       5.820   4.713   3.699  0.00  0.00    +0.020 A 
ATOM     12  C   UNL     1       5.136   3.849   4.541  0.00  0.00    +0.008 A 
ENDBRANCH   3   7
TORSDOF 1
ENDMDL
MODEL 5
REMARK VINA RESULT:    -3.425      1.919      2.528
REMARK INTER + INTRA:          -3.881
REMARK INTER:                  -3.633
REMARK INTRA:                  -0.248
REMARK UNBOUND:                -0.256
REMARK  Name = Nicotine.pdb
REMARK  2 active torsions:
REMARK  status: ('A' for Active; 'I' for Inactive)
REMARK    1  A    between atoms: C_3  and  C_6
REMARK    2  A    between atoms: N_4  and  C_12
REMARK                            x       y       z     vdW  Elec       q    Type
REMARK                         _______ _______ _______ _____ _____    ______ ____
ROOT
ATOM      1  C   UNL     1       5.673   5.134   2.795  0.00  0.00    +0.017 C 
ATOM      2  C   UNL     1       5.457   3.632   3.117  0.00  0.00    +0.025 C 
ATOM      3  C   UNL     1       3.922   3.482   3.059  0.00  0.00    +0.088 C 
ATOM      4  N   UNL     1       3.343   4.820   3.273  0.00  0.00    -0.298 NA
ATOM      5  C   UNL     1       4.446   5.782   3.485  0.00  0.00    +0.085 C 
ATOM      6  C   UNL     1       2.507   5.221   2.134  0.00  0.00    +0.105 C 
ENDROOT
BRANCH   3   7
ATOM      7  C   UNL     1       3.457   2.542   4.141  0.00  0.00    -0.012 A 
ATOM      8  C   UNL     1       2.133   2.151   4.206  0.00  0.00    +0.115 A 
ATOM      9  N   UNL     1       1.718   1.328   5.150  0.00  0.00    -0.263 NA
ATOM     10  C   UNL     1       2.540   0.850   6.062  0.00  0.00    +0.111 A 
ATOM     11  C   UNL     1       3.878   1.196   6.061  0.00  0.00    +0.020 A 
ATOM     12  C   UNL     1       4.352   2.054   5.081  0.00  0.00    +0.008 A 
ENDBRANCH   3   7
TORSDOF 1
ENDMDL
MODEL 6
REMARK VINA RESULT:    -3.334      2.487      5.064
REMARK INTER + INTRA:          -3.784
REMARK INTER:                  -3.612
REMARK INTRA:                  -0.172
REMARK UNBOUND:                -0.256
REMARK  Name = Nicotine.pdb
REMARK  2 active torsions:
REMARK  status: ('A' for Active; 'I' for Inactive)
REMARK    1  A    between atoms: C_3  and  C_6
REMARK    2  A    between atoms: N_4  and  C_12
REMARK                            x       y       z     vdW  Elec       q    Type
REMARK                         _______ _______ _______ _____ _____    ______ ____
ROOT
ATOM      1  C   UNL     1       5.340   3.830   4.875  0.00  0.00    +0.017 C 
ATOM      2  C   UNL     1       4.246   4.851   4.466  0.00  0.00    +0.025 C 
ATOM      3  C   UNL     1       3.261   3.994   3.644  0.00  0.00    +0.088 C 
ATOM      4  N   UNL     1       4.005   2.817   3.159  0.00  0.00    -0.298 NA
ATOM      5  C   UNL     1       5.405   2.923   3.621  0.00  0.00    +0.085 C 
ATOM      6  C   UNL     1       3.387   1.571   3.630  0.00  0.00    +0.105 C 
ENDROOT
BRANCH   3   7
ATOM      7  C   UNL     1       2.740   4.790   2.476  0.00  0.00    -0.012 A 
ATOM      8  C   UNL     1       3.458   4.852   1.296  0.00  0.00    +0.115 A 
ATOM      9  N   UNL     1       3.008   5.547   0.269  0.00  0.00    -0.263 NA
ATOM     10  C   UNL     1       1.867   6.205   0.323  0.00  0.00    +0.111 A 
ATOM     11  C   UNL     1       1.094   6.188   1.469  0.00  0.00    +0.020 A 
ATOM     12  C   UNL     1       1.532   5.464   2.568  0.00  0.00    +0.008 A 
ENDBRANCH   3   7
TORSDOF 1
ENDMDL
MODEL 7
REMARK VINA RESULT:    -2.975      1.671      4.382
REMARK INTER + INTRA:          -3.405
REMARK INTER:                  -3.189
REMARK INTRA:                  -0.216
REMARK UNBOUND:                -0.256
REMARK  Name = Nicotine.pdb
REMARK  2 active torsions:
REMARK  status: ('A' for Active; 'I' for Inactive)
REMARK    1  A    between atoms: C_3  and  C_6
REMARK    2  A    between atoms: N_4  and  C_12
REMARK                            x       y       z     vdW  Elec       q    Type
REMARK                         _______ _______ _______ _____ _____    ______ ____
ROOT
ATOM      1  C   UNL     1       0.706   2.155   5.316  0.00  0.00    +0.017 C 
ATOM      2  C   UNL     1       1.261   2.922   4.087  0.00  0.00    +0.025 C 
ATOM      3  C   UNL     1       2.538   2.131   3.732  0.00  0.00    +0.088 C 
ATOM      4  N   UNL     1       2.954   1.405   4.945  0.00  0.00    -0.298 NA
ATOM      5  C   UNL     1       2.011   1.731   6.036  0.00  0.00    +0.085 C 
ATOM      6  C   UNL     1       3.000  -0.043   4.703  0.00  0.00    +0.105 C 
ENDROOT
BRANCH   3   7
ATOM      7  C   UNL     1       3.626   3.080   3.302  0.00  0.00    -0.012 A 
ATOM      8  C   UNL     1       4.938   2.853   3.672  0.00  0.00    +0.115 A 
ATOM      9  N   UNL     1       5.897   3.679   3.300  0.00  0.00    -0.263 NA
ATOM     10  C   UNL     1       5.647   4.745   2.567  0.00  0.00    +0.111 A 
ATOM     11  C   UNL     1       4.359   5.037   2.158  0.00  0.00    +0.020 A 
ATOM     12  C   UNL     1       3.326   4.189   2.526  0.00  0.00    +0.008 A 
ENDBRANCH   3   7
TORSDOF 1
ENDMDL
MODEL 8
REMARK VINA RESULT:    -2.838      2.427      3.009
REMARK INTER + INTRA:          -3.260
REMARK INTER:                  -3.090
REMARK INTRA:                  -0.170
REMARK UNBOUND:                -0.256
REMARK  Name = Nicotine.pdb
REMARK  2 active torsions:
REMARK  status: ('A' for Active; 'I' for Inactive)
REMARK    1  A    between atoms: C_3  and  C_6
REMARK    2  A    between atoms: N_4  and  C_12
REMARK                            x       y       z     vdW  Elec       q    Type
REMARK                         _______ _______ _______ _____ _____    ______ ____
ROOT
ATOM      1  C   UNL     1      -0.115   3.979   3.824  0.00  0.00    +0.017 C 
ATOM      2  C   UNL     1       0.163   2.505   4.221  0.00  0.00    +0.025 C 
ATOM      3  C   UNL     1       1.585   2.569   4.818  0.00  0.00    +0.088 C 
ATOM      4  N   UNL     1       2.232   3.779   4.279  0.00  0.00    -0.298 NA
ATOM      5  C   UNL     1       1.286   4.448   3.359  0.00  0.00    +0.085 C 
ATOM      6  C   UNL     1       2.644   4.683   5.360  0.00  0.00    +0.105 C 
ENDROOT
BRANCH   3   7
ATOM      7  C   UNL     1       2.366   1.346   4.415  0.00  0.00    -0.012 A 
ATOM      8  C   UNL     1       2.966   1.277   3.172  0.00  0.00    +0.115 A 
ATOM      9  N   UNL     1       3.652   0.210   2.811  0.00  0.00    -0.263 NA
ATOM     10  C   UNL     1       3.792  -0.827   3.613  0.00  0.00    +0.111 A 
ATOM     11  C   UNL     1       3.221  -0.831   4.872  0.00  0.00    +0.020 A 
ATOM     12  C   UNL     1       2.497   0.276   5.288  0.00  0.00    +0.008 A 
ENDBRANCH   3   7
TORSDOF 1
ENDMDL
MODEL 9
REMARK VINA RESULT:    -2.803      2.727      4.501
REMARK INTER + INTRA:          -3.222
REMARK INTER:                  -3.049
REMARK INTRA:                  -0.174
REMARK UNBOUND:                -0.256
REMARK  Name = Nicotine.pdb
REMARK  2 active torsions:
REMARK  status: ('A' for Active; 'I' for Inactive)
REMARK    1  A    between atoms: C_3  and  C_6
REMARK    2  A    between atoms: N_4  and  C_12
REMARK                            x       y       z     vdW  Elec       q    Type
REMARK                         _______ _______ _______ _____ _____    ______ ____
ROOT
ATOM      1  C   UNL     1      -0.275   2.110   4.081  0.00  0.00    +0.017 C 
ATOM      2  C   UNL     1       1.240   1.785   4.147  0.00  0.00    +0.025 C 
ATOM      3  C   UNL     1       1.833   3.030   4.840  0.00  0.00    +0.088 C 
ATOM      4  N   UNL     1       0.881   4.137   4.639  0.00  0.00    -0.298 NA
ATOM      5  C   UNL     1      -0.256   3.640   3.835  0.00  0.00    +0.085 C 
ATOM      6  C   UNL     1       0.421   4.676   5.925  0.00  0.00    +0.105 C 
ENDROOT
BRANCH   3   7
ATOM      7  C   UNL     1       3.162   3.377   4.222  0.00  0.00    -0.012 A 
ATOM      8  C   UNL     1       3.235   3.785   2.903  0.00  0.00    +0.115 A 
ATOM      9  N   UNL     1       4.394   4.090   2.354  0.00  0.00    -0.263 NA
ATOM     10  C   UNL     1       5.522   4.020   3.033  0.00  0.00    +0.111 A 
ATOM     11  C   UNL     1       5.528   3.620   4.356  0.00  0.00    +0.020 A 
ATOM     12  C   UNL     1       4.328   3.296   4.969  0.00  0.00    +0.008 A 
ENDBRANCH   3   7
TORSDOF 1
ENDMDL
MODEL 10
REMARK VINA RESULT:    -2.746      2.760      4.521
REMARK INTER + INTRA:          -3.162
REMARK INTER:                  -2.947
REMARK INTRA:                  -0.215
REMARK UNBOUND:                -0.256
REMARK  Name = Nicotine.pdb
REMARK  2 active torsions:
REMARK  status: ('A' for Active; 'I' for Inactive)
REMARK    1  A    between atoms: C_3  and  C_6
REMARK    2  A    between atoms: N_4  and  C_12
REMARK                            x       y       z     vdW  Elec       q    Type
REMARK                         _______ _______ _______ _____ _____    ______ ____
ROOT
ATOM      1  C   UNL     1       0.182   5.454   2.911  0.00  0.00    +0.017 C 
ATOM      2  C   UNL     1       1.726   5.410   2.773  0.00  0.00    +0.025 C 
ATOM      3  C   UNL     1       2.098   4.077   3.457  0.00  0.00    +0.088 C 
ATOM      4  N   UNL     1       0.994   3.733   4.371  0.00  0.00    -0.298 NA
ATOM      5  C   UNL     1      -0.027   4.800   4.300  0.00  0.00    +0.085 C 
ATOM      6  C   UNL     1       0.415   2.427   4.028  0.00  0.00    +0.105 C 
ENDROOT
BRANCH   3   7
ATOM      7  C   UNL     1       3.377   4.241   4.236  0.00  0.00    -0.012 A 
ATOM      8  C   UNL     1       3.749   5.482   4.718  0.00  0.00    +0.115 A 
ATOM      9  N   UNL     1       4.867   5.633   5.401  0.00  0.00    -0.263 NA
ATOM     10  C   UNL     1       5.670   4.618   5.650  0.00  0.00    +0.111 A 
ATOM     11  C   UNL     1       5.364   3.347   5.201  0.00  0.00    +0.020 A 
ATOM     12  C   UNL     1       4.194   3.148   4.484  0.00  0.00    +0.008 A 
ENDBRANCH   3   7
TORSDOF 1
ENDMDL
