MODEL 1
REMARK VINA RESULT:    -5.586      0.000      0.000
REMARK INTER + INTRA:          -6.113
REMARK INTER:                  -5.913
REMARK INTRA:                  -0.200
REMARK UNBOUND:                -0.200
REMARK  Name = Nicotine.pdb
REMARK  2 active torsions:
REMARK  status: ('A' for Active; 'I' for Inactive)
REMARK    1  A    between atoms: C_3  and  C_6
REMARK    2  A    between atoms: N_4  and  C_12
REMARK                            x       y       z     vdW  Elec       q    Type
REMARK                         _______ _______ _______ _____ _____    ______ ____
ROOT
ATOM      1  C   UNL     1       1.948  -1.969  -1.621  0.00  0.00    +0.017 C 
ATOM      2  C   UNL     1       3.033  -1.246  -2.462  0.00  0.00    +0.025 C 
ATOM      3  C   UNL     1       3.431  -2.311  -3.505  0.00  0.00    +0.088 C 
ATOM      4  N   UNL     1       3.064  -3.626  -2.949  0.00  0.00    -0.298 NA
ATOM      5  C   UNL     1       2.482  -3.423  -1.605  0.00  0.00    +0.085 C 
ATOM      6  C   UNL     1       2.121  -4.326  -3.830  0.00  0.00    +0.105 C 
ENDROOT
BRANCH   3   7
ATOM      7  C   UNL     1       4.916  -2.255  -3.754  0.00  0.00    -0.012 A 
ATOM      8  C   UNL     1       5.800  -2.187  -2.694  0.00  0.00    +0.115 A 
ATOM      9  N   UNL     1       7.102  -2.138  -2.903  0.00  0.00    -0.263 NA
ATOM     10  C   UNL     1       7.609  -2.151  -4.120  0.00  0.00    +0.111 A 
ATOM     11  C   UNL     1       6.786  -2.219  -5.229  0.00  0.00    +0.020 A 
ATOM     12  C   UNL     1       5.413  -2.278  -5.048  0.00  0.00    +0.008 A 
ENDBRANCH   3   7
TORSDOF 1
ENDMDL
MODEL 2
REMARK VINA RESULT:    -5.447      1.523      4.559
REMARK INTER + INTRA:          -5.966
REMARK INTER:                  -5.763
REMARK INTRA:                  -0.203
REMARK UNBOUND:                -0.200
REMARK  Name = Nicotine.pdb
REMARK  2 active torsions:
REMARK  status: ('A' for Active; 'I' for Inactive)
REMARK    1  A    between atoms: C_3  and  C_6
REMARK    2  A    between atoms: N_4  and  C_12
REMARK                            x       y       z     vdW  Elec       q    Type
REMARK                         _______ _______ _______ _____ _____    ______ ____
ROOT
ATOM      1  C   UNL     1       6.543  -4.750  -4.981  0.00  0.00    +0.017 C 
ATOM      2  C   UNL     1       5.032  -4.589  -4.668  0.00  0.00    +0.025 C 
ATOM      3  C   UNL     1       4.811  -3.067  -4.798  0.00  0.00    +0.088 C 
ATOM      4  N   UNL     1       6.121  -2.418  -4.612  0.00  0.00    -0.298 NA
ATOM      5  C   UNL     1       7.132  -3.464  -4.349  0.00  0.00    +0.085 C 
ATOM      6  C   UNL     1       6.484  -1.617  -5.788  0.00  0.00    +0.105 C 
ENDROOT
BRANCH   3   7
ATOM      7  C   UNL     1       3.849  -2.597  -3.738  0.00  0.00    -0.012 A 
ATOM      8  C   UNL     1       2.489  -2.786  -3.894  0.00  0.00    +0.115 A 
ATOM      9  N   UNL     1       1.640  -2.378  -2.971  0.00  0.00    -0.263 NA
ATOM     10  C   UNL     1       2.049  -1.777  -1.871  0.00  0.00    +0.111 A 
ATOM     11  C   UNL     1       3.394  -1.553  -1.645  0.00  0.00    +0.020 A 
ATOM     12  C   UNL     1       4.317  -1.974  -2.591  0.00  0.00    +0.008 A 
ENDBRANCH   3   7
TORSDOF 1
ENDMDL
MODEL 3
REMARK VINA RESULT:    -5.414      0.797      1.364
REMARK INTER + INTRA:          -5.931
REMARK INTER:                  -5.677
REMARK INTRA:                  -0.254
REMARK UNBOUND:                -0.200
REMARK  Name = Nicotine.pdb
REMARK  2 active torsions:
REMARK  status: ('A' for Active; 'I' for Inactive)
REMARK    1  A    between atoms: C_3  and  C_6
REMARK    2  A    between atoms: N_4  and  C_12
REMARK                            x       y       z     vdW  Elec       q    Type
REMARK                         _______ _______ _______ _____ _____    ______ ____
ROOT
ATOM      1  C   UNL     1       1.956  -1.969  -1.634  0.00  0.00    +0.017 C 
ATOM      2  C   UNL     1       3.073  -1.265  -2.449  0.00  0.00    +0.025 C 
ATOM      3  C   UNL     1       3.430  -2.311  -3.526  0.00  0.00    +0.088 C 
ATOM      4  N   UNL     1       3.006  -3.627  -3.014  0.00  0.00    -0.298 NA
ATOM      5  C   UNL     1       2.430  -3.444  -1.665  0.00  0.00    +0.085 C 
ATOM      6  C   UNL     1       2.037  -4.258  -3.920  0.00  0.00    +0.105 C 
ENDROOT
BRANCH   3   7
ATOM      7  C   UNL     1       4.916  -2.309  -3.770  0.00  0.00    -0.012 A 
ATOM      8  C   UNL     1       5.419  -2.600  -5.024  0.00  0.00    +0.115 A 
ATOM      9  N   UNL     1       6.719  -2.600  -5.247  0.00  0.00    -0.263 NA
ATOM     10  C   UNL     1       7.586  -2.326  -4.292  0.00  0.00    +0.111 A 
ATOM     11  C   UNL     1       7.157  -2.025  -3.012  0.00  0.00    +0.020 A 
ATOM     12  C   UNL     1       5.797  -2.010  -2.742  0.00  0.00    +0.008 A 
ENDBRANCH   3   7
TORSDOF 1
ENDMDL
MODEL 4
REMARK VINA RESULT:    -5.151      1.586      4.346
REMARK INTER + INTRA:          -5.652
REMARK INTER:                  -5.465
REMARK INTRA:                  -0.187
REMARK UNBOUND:                -0.200
REMARK  Name = Nicotine.pdb
REMARK  2 active torsions:
REMARK  status: ('A' for Active; 'I' for Inactive)
REMARK    1  A    between atoms: C_3  and  C_6
REMARK    2  A    between atoms: N_4  and  C_12
REMARK                            x       y       z     vdW  Elec       q    Type
REMARK                         _______ _______ _______ _____ _____    ______ ____
ROOT
ATOM      1  C   UNL     1       7.481  -1.801  -4.210  0.00  0.00    +0.017 C 
ATOM      2  C   UNL     1       6.655  -1.969  -2.908  0.00  0.00    +0.025 C 
ATOM      3  C   UNL     1       5.864  -3.269  -3.164  0.00  0.00    +0.088 C 
ATOM      4  N   UNL     1       5.802  -3.462  -4.624  0.00  0.00    -0.298 NA
ATOM      5  C   UNL     1       6.493  -2.331  -5.279  0.00  0.00    +0.085 C 
ATOM      6  C   UNL     1       6.404  -4.744  -5.013  0.00  0.00    +0.105 C 
ENDROOT
BRANCH   3   7
ATOM      7  C   UNL     1       4.472  -3.142  -2.602  0.00  0.00    -0.012 A 
ATOM      8  C   UNL     1       4.164  -2.123  -1.722  0.00  0.00    +0.115 A 
ATOM      9  N   UNL     1       2.948  -2.004  -1.225  0.00  0.00    -0.263 NA
ATOM     10  C   UNL     1       1.984  -2.845  -1.545  0.00  0.00    +0.111 A 
ATOM     11  C   UNL     1       2.217  -3.889  -2.420  0.00  0.00    +0.020 A 
ATOM     12  C   UNL     1       3.482  -4.042  -2.966  0.00  0.00    +0.008 A 
ENDBRANCH   3   7
TORSDOF 1
ENDMDL
MODEL 5
REMARK VINA RESULT:    -5.092      1.492      1.889
REMARK INTER + INTRA:          -5.589
REMARK INTER:                  -5.366
REMARK INTRA:                  -0.223
REMARK UNBOUND:                -0.200
REMARK  Name = Nicotine.pdb
REMARK  2 active torsions:
REMARK  status: ('A' for Active; 'I' for Inactive)
REMARK    1  A    between atoms: C_3  and  C_6
REMARK    2  A    between atoms: N_4  and  C_12
REMARK                            x       y       z     vdW  Elec       q    Type
REMARK                         _______ _______ _______ _____ _____    ______ ____
ROOT
ATOM      1  C   UNL     1       2.596  -3.011  -3.566  0.00  0.00    +0.017 C 
ATOM      2  C   UNL     1       3.637  -2.563  -4.625  0.00  0.00    +0.025 C 
ATOM      3  C   UNL     1       4.941  -3.226  -4.133  0.00  0.00    +0.088 C 
ATOM      4  N   UNL     1       4.777  -3.496  -2.693  0.00  0.00    -0.298 NA
ATOM      5  C   UNL     1       3.447  -3.009  -2.271  0.00  0.00    +0.085 C 
ATOM      6  C   UNL     1       4.931  -4.927  -2.404  0.00  0.00    +0.105 C 
ENDROOT
BRANCH   3   7
ATOM      7  C   UNL     1       6.104  -2.293  -4.352  0.00  0.00    -0.012 A 
ATOM      8  C   UNL     1       6.887  -1.889  -3.286  0.00  0.00    +0.115 A 
ATOM      9  N   UNL     1       7.907  -1.074  -3.470  0.00  0.00    -0.263 NA
ATOM     10  C   UNL     1       8.220  -0.613  -4.664  0.00  0.00    +0.111 A 
ATOM     11  C   UNL     1       7.483  -0.974  -5.777  0.00  0.00    +0.020 A 
ATOM     12  C   UNL     1       6.407  -1.834  -5.624  0.00  0.00    +0.008 A 
ENDBRANCH   3   7
TORSDOF 1
ENDMDL
MODEL 6
REMARK VINA RESULT:    -5.062      1.244      1.244
REMARK INTER + INTRA:          -5.558
REMARK INTER:                  -5.360
REMARK INTRA:                  -0.197
REMARK UNBOUND:                -0.200
REMARK  Name = Nicotine.pdb
REMARK  2 active torsions:
REMARK  status: ('A' for Active; 'I' for Inactive)
REMARK    1  A    between atoms: C_3  and  C_6
REMARK    2  A    between atoms: N_4  and  C_12
REMARK                            x       y       z     vdW  Elec       q    Type
REMARK                         _______ _______ _______ _____ _____    ______ ____
ROOT
ATOM      1  C   UNL     1       2.595  -1.756  -1.853  0.00  0.00    +0.017 C 
ATOM      2  C   UNL     1       3.840  -1.491  -2.739  0.00  0.00    +0.025 C 
ATOM      3  C   UNL     1       3.807  -2.663  -3.743  0.00  0.00    +0.088 C 
ATOM      4  N   UNL     1       3.015  -3.743  -3.128  0.00  0.00    -0.298 NA
ATOM      5  C   UNL     1       2.582  -3.303  -1.784  0.00  0.00    +0.085 C 
ATOM      6  C   UNL     1       1.861  -4.094  -3.965  0.00  0.00    +0.105 C 
ENDROOT
BRANCH   3   7
ATOM      7  C   UNL     1       5.208  -3.144  -4.016  0.00  0.00    -0.012 A 
ATOM      8  C   UNL     1       6.293  -2.479  -3.477  0.00  0.00    +0.115 A 
ATOM      9  N   UNL     1       7.523  -2.894  -3.712  0.00  0.00    -0.263 NA
ATOM     10  C   UNL     1       7.767  -3.950  -4.462  0.00  0.00    +0.111 A 
ATOM     11  C   UNL     1       6.733  -4.666  -5.035  0.00  0.00    +0.020 A 
ATOM     12  C   UNL     1       5.426  -4.263  -4.807  0.00  0.00    +0.008 A 
ENDBRANCH   3   7
TORSDOF 1
ENDMDL
MODEL 7
REMARK VINA RESULT:    -5.027      2.262      2.704
REMARK INTER + INTRA:          -5.521
REMARK INTER:                  -5.306
REMARK INTRA:                  -0.215
REMARK UNBOUND:                -0.200
REMARK  Name = Nicotine.pdb
REMARK  2 active torsions:
REMARK  status: ('A' for Active; 'I' for Inactive)
REMARK    1  A    between atoms: C_3  and  C_6
REMARK    2  A    between atoms: N_4  and  C_12
REMARK                            x       y       z     vdW  Elec       q    Type
REMARK                         _______ _______ _______ _____ _____    ______ ____
ROOT
ATOM      1  C   UNL     1       4.239  -1.973  -1.700  0.00  0.00    +0.017 C 
ATOM      2  C   UNL     1       5.339  -2.177  -2.775  0.00  0.00    +0.025 C 
ATOM      3  C   UNL     1       4.591  -2.921  -3.901  0.00  0.00    +0.088 C 
ATOM      4  N   UNL     1       3.415  -3.568  -3.291  0.00  0.00    -0.298 NA
ATOM      5  C   UNL     1       3.418  -3.279  -1.841  0.00  0.00    +0.085 C 
ATOM      6  C   UNL     1       2.172  -3.102  -3.919  0.00  0.00    +0.105 C 
ENDROOT
BRANCH   3   7
ATOM      7  C   UNL     1       5.491  -3.963  -4.513  0.00  0.00    -0.012 A 
ATOM      8  C   UNL     1       4.955  -5.104  -5.080  0.00  0.00    +0.115 A 
ATOM      9  N   UNL     1       5.736  -6.021  -5.618  0.00  0.00    -0.263 NA
ATOM     10  C   UNL     1       7.047  -5.890  -5.637  0.00  0.00    +0.111 A 
ATOM     11  C   UNL     1       7.655  -4.775  -5.090  0.00  0.00    +0.020 A 
ATOM     12  C   UNL     1       6.866  -3.788  -4.520  0.00  0.00    +0.008 A 
ENDBRANCH   3   7
TORSDOF 1
ENDMDL
MODEL 8
REMARK VINA RESULT:    -4.894      1.799      5.042
REMARK INTER + INTRA:          -5.380
REMARK INTER:                  -5.170
REMARK INTRA:                  -0.210
REMARK UNBOUND:                -0.200
REMARK  Name = Nicotine.pdb
REMARK  2 active torsions:
REMARK  status: ('A' for Active; 'I' for Inactive)
REMARK    1  A    between atoms: C_3  and  C_6
REMARK    2  A    between atoms: N_4  and  C_12
REMARK                            x       y       z     vdW  Elec       q    Type
REMARK                         _______ _______ _______ _____ _____    ______ ____
ROOT
ATOM      1  C   UNL     1       9.406  -0.354  -4.900  0.00  0.00    +0.017 C 
ATOM      2  C   UNL     1       8.238  -0.512  -3.892  0.00  0.00    +0.025 C 
ATOM      3  C   UNL     1       7.836  -1.993  -4.056  0.00  0.00    +0.088 C 
ATOM      4  N   UNL     1       8.303  -2.427  -5.385  0.00  0.00    -0.298 NA
ATOM      5  C   UNL     1       8.950  -1.279  -6.055  0.00  0.00    +0.085 C 
ATOM      6  C   UNL     1       9.228  -3.563  -5.273  0.00  0.00    +0.105 C 
ENDROOT
BRANCH   3   7
ATOM      7  C   UNL     1       6.338  -2.130  -3.968  0.00  0.00    -0.012 A 
ATOM      8  C   UNL     1       5.692  -1.973  -2.756  0.00  0.00    +0.115 A 
ATOM      9  N   UNL     1       4.381  -2.091  -2.670  0.00  0.00    -0.263 NA
ATOM     10  C   UNL     1       3.639  -2.361  -3.725  0.00  0.00    +0.111 A 
ATOM     11  C   UNL     1       4.215  -2.531  -4.971  0.00  0.00    +0.020 A 
ATOM     12  C   UNL     1       5.589  -2.409  -5.101  0.00  0.00    +0.008 A 
ENDBRANCH   3   7
TORSDOF 1
ENDMDL
MODEL 9
REMARK VINA RESULT:    -4.755      1.918      2.399
REMARK INTER + INTRA:          -5.233
REMARK INTER:                  -5.025
REMARK INTRA:                  -0.208
REMARK UNBOUND:                -0.200
REMARK  Name = Nicotine.pdb
REMARK  2 active torsions:
REMARK  status: ('A' for Active; 'I' for Inactive)
REMARK    1  A    between atoms: C_3  and  C_6
REMARK    2  A    between atoms: N_4  and  C_12
REMARK                            x       y       z     vdW  Elec       q    Type
REMARK                         _______ _______ _______ _____ _____    ______ ____
ROOT
ATOM      1  C   UNL     1       3.185  -3.248  -2.527  0.00  0.00    +0.017 C 
ATOM      2  C   UNL     1       3.595  -2.349  -3.723  0.00  0.00    +0.025 C 
ATOM      3  C   UNL     1       4.521  -3.268  -4.547  0.00  0.00    +0.088 C 
ATOM      4  N   UNL     1       5.031  -4.307  -3.634  0.00  0.00    -0.298 NA
ATOM      5  C   UNL     1       4.484  -4.056  -2.283  0.00  0.00    +0.085 C 
ATOM      6  C   UNL     1       4.670  -5.649  -4.108  0.00  0.00    +0.105 C 
ENDROOT
BRANCH   3   7
ATOM      7  C   UNL     1       5.669  -2.470  -5.109  0.00  0.00    -0.012 A 
ATOM      8  C   UNL     1       5.462  -1.592  -6.157  0.00  0.00    +0.115 A 
ATOM      9  N   UNL     1       6.461  -0.889  -6.654  0.00  0.00    -0.263 NA
ATOM     10  C   UNL     1       7.686  -0.993  -6.179  0.00  0.00    +0.111 A 
ATOM     11  C   UNL     1       7.969  -1.850  -5.132  0.00  0.00    +0.020 A 
ATOM     12  C   UNL     1       6.943  -2.601  -4.579  0.00  0.00    +0.008 A 
ENDBRANCH   3   7
TORSDOF 1
ENDMDL
MODEL 10
REMARK VINA RESULT:    -4.527      2.769      3.933
REMARK INTER + INTRA:          -4.991
REMARK INTER:                  -4.778
REMARK INTRA:                  -0.213
REMARK UNBOUND:                -0.200
REMARK  Name = Nicotine.pdb
REMARK  2 active torsions:
REMARK  status: ('A' for Active; 'I' for Inactive)
REMARK    1  A    between atoms: C_3  and  C_6
REMARK    2  A    between atoms: N_4  and  C_12
REMARK                            x       y       z     vdW  Elec       q    Type
REMARK                         _______ _______ _______ _____ _____    ______ ____
ROOT
ATOM      1  C   UNL     1       6.465  -3.421  -2.754  0.00  0.00    +0.017 C 
ATOM      2  C   UNL     1       7.267  -2.162  -3.174  0.00  0.00    +0.025 C 
ATOM      3  C   UNL     1       6.616  -1.768  -4.517  0.00  0.00    +0.088 C 
ATOM      4  N   UNL     1       5.962  -2.975  -5.056  0.00  0.00    -0.298 NA
ATOM      5  C   UNL     1       6.201  -4.096  -4.123  0.00  0.00    +0.085 C 
ATOM      6  C   UNL     1       4.525  -2.751  -5.255  0.00  0.00    +0.105 C 
ENDROOT
BRANCH   3   7
ATOM      7  C   UNL     1       7.672  -1.284  -5.476  0.00  0.00    -0.012 A 
ATOM      8  C   UNL     1       8.940  -1.833  -5.456  0.00  0.00    +0.115 A 
ATOM      9  N   UNL     1       9.870  -1.415  -6.292  0.00  0.00    -0.263 NA
ATOM     10  C   UNL     1       9.633  -0.464  -7.174  0.00  0.00    +0.111 A 
ATOM     11  C   UNL     1       8.388   0.132  -7.254  0.00  0.00    +0.020 A 
ATOM     12  C   UNL     1       7.383  -0.286  -6.394  0.00  0.00    +0.008 A 
ENDBRANCH   3   7
TORSDOF 1
ENDMDL
