MODEL 1
REMARK VINA RESULT:    -4.786      0.000      0.000
REMARK INTER + INTRA:          -5.322
REMARK INTER:                  -5.066
REMARK INTRA:                  -0.256
REMARK UNBOUND:                -0.256
REMARK  Name = Nicotine.pdb
REMARK  2 active torsions:
REMARK  status: ('A' for Active; 'I' for Inactive)
REMARK    1  A    between atoms: C_3  and  C_6
REMARK    2  A    between atoms: N_4  and  C_12
REMARK                            x       y       z     vdW  Elec       q    Type
REMARK                         _______ _______ _______ _____ _____    ______ ____
ROOT
ATOM      1  C   UNL     1       3.642   4.337   4.210  0.00  0.00    +0.017 C 
ATOM      2  C   UNL     1       2.701   3.502   3.302  0.00  0.00    +0.025 C 
ATOM      3  C   UNL     1       2.706   2.115   3.979  0.00  0.00    +0.088 C 
ATOM      4  N   UNL     1       3.938   2.027   4.785  0.00  0.00    -0.298 NA
ATOM      5  C   UNL     1       4.701   3.282   4.617  0.00  0.00    +0.085 C 
ATOM      6  C   UNL     1       3.626   1.786   6.199  0.00  0.00    +0.105 C 
ENDROOT
BRANCH   3   7
ATOM      7  C   UNL     1       2.700   1.033   2.930  0.00  0.00    -0.012 A 
ATOM      8  C   UNL     1       2.362  -0.264   3.267  0.00  0.00    +0.115 A 
ATOM      9  N   UNL     1       2.353  -1.217   2.355  0.00  0.00    -0.263 NA
ATOM     10  C   UNL     1       2.665  -0.975   1.097  0.00  0.00    +0.111 A 
ATOM     11  C   UNL     1       3.013   0.298   0.686  0.00  0.00    +0.020 A 
ATOM     12  C   UNL     1       3.028   1.327   1.616  0.00  0.00    +0.008 A 
ENDBRANCH   3   7
TORSDOF 1
ENDMDL
MODEL 2
REMARK VINA RESULT:    -4.709      2.158      4.214
REMARK INTER + INTRA:          -5.239
REMARK INTER:                  -5.021
REMARK INTRA:                  -0.219
REMARK UNBOUND:                -0.256
REMARK  Name = Nicotine.pdb
REMARK  2 active torsions:
REMARK  status: ('A' for Active; 'I' for Inactive)
REMARK    1  A    between atoms: C_3  and  C_6
REMARK    2  A    between atoms: N_4  and  C_12
REMARK                            x       y       z     vdW  Elec       q    Type
REMARK                         _______ _______ _______ _____ _____    ______ ____
ROOT
ATOM      1  C   UNL     1       3.423   0.710   0.850  0.00  0.00    +0.017 C 
ATOM      2  C   UNL     1       3.023   1.407   2.177  0.00  0.00    +0.025 C 
ATOM      3  C   UNL     1       2.910   0.229   3.168  0.00  0.00    +0.088 C 
ATOM      4  N   UNL     1       2.686  -0.992   2.372  0.00  0.00    -0.298 NA
ATOM      5  C   UNL     1       2.630  -0.618   0.943  0.00  0.00    +0.085 C 
ATOM      6  C   UNL     1       3.742  -1.982   2.617  0.00  0.00    +0.105 C 
ENDROOT
BRANCH   3   7
ATOM      7  C   UNL     1       1.749   0.453   4.102  0.00  0.00    -0.012 A 
ATOM      8  C   UNL     1       0.667  -0.405   4.091  0.00  0.00    +0.115 A 
ATOM      9  N   UNL     1      -0.353  -0.216   4.905  0.00  0.00    -0.263 NA
ATOM     10  C   UNL     1      -0.383   0.791   5.755  0.00  0.00    +0.111 A 
ATOM     11  C   UNL     1       0.664   1.691   5.824  0.00  0.00    +0.020 A 
ATOM     12  C   UNL     1       1.756   1.521   4.987  0.00  0.00    +0.008 A 
ENDBRANCH   3   7
TORSDOF 1
ENDMDL
MODEL 3
REMARK VINA RESULT:    -4.707      1.822      2.645
REMARK INTER + INTRA:          -5.238
REMARK INTER:                  -5.053
REMARK INTRA:                  -0.185
REMARK UNBOUND:                -0.256
REMARK  Name = Nicotine.pdb
REMARK  2 active torsions:
REMARK  status: ('A' for Active; 'I' for Inactive)
REMARK    1  A    between atoms: C_3  and  C_6
REMARK    2  A    between atoms: N_4  and  C_12
REMARK                            x       y       z     vdW  Elec       q    Type
REMARK                         _______ _______ _______ _____ _____    ______ ____
ROOT
ATOM      1  C   UNL     1       3.060   3.046   3.254  0.00  0.00    +0.017 C 
ATOM      2  C   UNL     1       3.007   1.676   2.528  0.00  0.00    +0.025 C 
ATOM      3  C   UNL     1       2.263   0.777   3.537  0.00  0.00    +0.088 C 
ATOM      4  N   UNL     1       2.419   1.391   4.868  0.00  0.00    -0.298 NA
ATOM      5  C   UNL     1       3.243   2.611   4.730  0.00  0.00    +0.085 C 
ATOM      6  C   UNL     1       1.112   1.703   5.461  0.00  0.00    +0.105 C 
ENDROOT
BRANCH   3   7
ATOM      7  C   UNL     1       2.866  -0.604   3.535  0.00  0.00    -0.012 A 
ATOM      8  C   UNL     1       3.492  -1.092   2.404  0.00  0.00    +0.115 A 
ATOM      9  N   UNL     1       4.023  -2.299   2.393  0.00  0.00    -0.263 NA
ATOM     10  C   UNL     1       3.978  -3.084   3.451  0.00  0.00    +0.111 A 
ATOM     11  C   UNL     1       3.369  -2.665   4.619  0.00  0.00    +0.020 A 
ATOM     12  C   UNL     1       2.805  -1.399   4.669  0.00  0.00    +0.008 A 
ENDBRANCH   3   7
TORSDOF 1
ENDMDL
MODEL 4
REMARK VINA RESULT:    -4.496      2.392      3.504
REMARK INTER + INTRA:          -5.015
REMARK INTER:                  -4.759
REMARK INTRA:                  -0.256
REMARK UNBOUND:                -0.256
REMARK  Name = Nicotine.pdb
REMARK  2 active torsions:
REMARK  status: ('A' for Active; 'I' for Inactive)
REMARK    1  A    between atoms: C_3  and  C_6
REMARK    2  A    between atoms: N_4  and  C_12
REMARK                            x       y       z     vdW  Elec       q    Type
REMARK                         _______ _______ _______ _____ _____    ______ ____
ROOT
ATOM      1  C   UNL     1       3.602   3.140   4.475  0.00  0.00    +0.017 C 
ATOM      2  C   UNL     1       2.878   1.969   5.191  0.00  0.00    +0.025 C 
ATOM      3  C   UNL     1       2.452   1.058   4.020  0.00  0.00    +0.088 C 
ATOM      4  N   UNL     1       2.409   1.895   2.808  0.00  0.00    -0.298 NA
ATOM      5  C   UNL     1       2.764   3.281   3.180  0.00  0.00    +0.085 C 
ATOM      6  C   UNL     1       3.318   1.377   1.778  0.00  0.00    +0.105 C 
ENDROOT
BRANCH   3   7
ATOM      7  C   UNL     1       1.088   0.478   4.293  0.00  0.00    -0.012 A 
ATOM      8  C   UNL     1       0.700  -0.707   3.696  0.00  0.00    +0.115 A 
ATOM      9  N   UNL     1      -0.491  -1.221   3.930  0.00  0.00    -0.263 NA
ATOM     10  C   UNL     1      -1.355  -0.633   4.733  0.00  0.00    +0.111 A 
ATOM     11  C   UNL     1      -1.037   0.554   5.366  0.00  0.00    +0.020 A 
ATOM     12  C   UNL     1       0.208   1.123   5.149  0.00  0.00    +0.008 A 
ENDBRANCH   3   7
TORSDOF 1
ENDMDL
MODEL 5
REMARK VINA RESULT:    -4.361      1.135      4.326
REMARK INTER + INTRA:          -4.872
REMARK INTER:                  -4.632
REMARK INTRA:                  -0.240
REMARK UNBOUND:                -0.256
REMARK  Name = Nicotine.pdb
REMARK  2 active torsions:
REMARK  status: ('A' for Active; 'I' for Inactive)
REMARK    1  A    between atoms: C_3  and  C_6
REMARK    2  A    between atoms: N_4  and  C_12
REMARK                            x       y       z     vdW  Elec       q    Type
REMARK                         _______ _______ _______ _____ _____    ______ ____
ROOT
ATOM      1  C   UNL     1       2.372  -0.330   0.835  0.00  0.00    +0.017 C 
ATOM      2  C   UNL     1       3.214   0.839   1.412  0.00  0.00    +0.025 C 
ATOM      3  C   UNL     1       3.461   0.401   2.871  0.00  0.00    +0.088 C 
ATOM      4  N   UNL     1       2.405  -0.566   3.222  0.00  0.00    -0.298 NA
ATOM      5  C   UNL     1       1.507  -0.726   2.058  0.00  0.00    +0.085 C 
ATOM      6  C   UNL     1       2.984  -1.856   3.622  0.00  0.00    +0.105 C 
ENDROOT
BRANCH   3   7
ATOM      7  C   UNL     1       3.386   1.597   3.785  0.00  0.00    -0.012 A 
ATOM      8  C   UNL     1       3.581   1.451   5.145  0.00  0.00    +0.115 A 
ATOM      9  N   UNL     1       3.517   2.493   5.951  0.00  0.00    -0.263 NA
ATOM     10  C   UNL     1       3.267   3.705   5.499  0.00  0.00    +0.111 A 
ATOM     11  C   UNL     1       3.061   3.929   4.150  0.00  0.00    +0.020 A 
ATOM     12  C   UNL     1       3.126   2.858   3.271  0.00  0.00    +0.008 A 
ENDBRANCH   3   7
TORSDOF 1
ENDMDL
MODEL 6
REMARK VINA RESULT:    -4.167      1.368      4.630
REMARK INTER + INTRA:          -4.666
REMARK INTER:                  -4.429
REMARK INTRA:                  -0.237
REMARK UNBOUND:                -0.256
REMARK  Name = Nicotine.pdb
REMARK  2 active torsions:
REMARK  status: ('A' for Active; 'I' for Inactive)
REMARK    1  A    between atoms: C_3  and  C_6
REMARK    2  A    between atoms: N_4  and  C_12
REMARK                            x       y       z     vdW  Elec       q    Type
REMARK                         _______ _______ _______ _____ _____    ______ ____
ROOT
ATOM      1  C   UNL     1       3.436  -2.166   3.429  0.00  0.00    +0.017 C 
ATOM      2  C   UNL     1       3.135  -0.959   4.356  0.00  0.00    +0.025 C 
ATOM      3  C   UNL     1       2.523   0.077   3.390  0.00  0.00    +0.088 C 
ATOM      4  N   UNL     1       2.976  -0.271   2.031  0.00  0.00    -0.298 NA
ATOM      5  C   UNL     1       3.856  -1.456   2.117  0.00  0.00    +0.085 C 
ATOM      6  C   UNL     1       1.833  -0.528   1.144  0.00  0.00    +0.105 C 
ENDROOT
BRANCH   3   7
ATOM      7  C   UNL     1       3.000   1.460   3.751  0.00  0.00    -0.012 A 
ATOM      8  C   UNL     1       2.623   2.551   2.991  0.00  0.00    +0.115 A 
ATOM      9  N   UNL     1       3.036   3.764   3.301  0.00  0.00    -0.263 NA
ATOM     10  C   UNL     1       3.819   3.986   4.338  0.00  0.00    +0.111 A 
ATOM     11  C   UNL     1       4.237   2.945   5.145  0.00  0.00    +0.020 A 
ATOM     12  C   UNL     1       3.818   1.655   4.853  0.00  0.00    +0.008 A 
ENDBRANCH   3   7
TORSDOF 1
ENDMDL
MODEL 7
REMARK VINA RESULT:    -4.031      1.576      2.401
REMARK INTER + INTRA:          -4.522
REMARK INTER:                  -4.304
REMARK INTRA:                  -0.219
REMARK UNBOUND:                -0.256
REMARK  Name = Nicotine.pdb
REMARK  2 active torsions:
REMARK  status: ('A' for Active; 'I' for Inactive)
REMARK    1  A    between atoms: C_3  and  C_6
REMARK    2  A    between atoms: N_4  and  C_12
REMARK                            x       y       z     vdW  Elec       q    Type
REMARK                         _______ _______ _______ _____ _____    ______ ____
ROOT
ATOM      1  C   UNL     1       1.401   1.388   6.242  0.00  0.00    +0.017 C 
ATOM      2  C   UNL     1       1.604   0.284   5.171  0.00  0.00    +0.025 C 
ATOM      3  C   UNL     1       2.982   0.635   4.568  0.00  0.00    +0.088 C 
ATOM      4  N   UNL     1       3.227   2.062   4.841  0.00  0.00    -0.298 NA
ATOM      5  C   UNL     1       2.057   2.613   5.558  0.00  0.00    +0.085 C 
ATOM      6  C   UNL     1       4.458   2.246   5.620  0.00  0.00    +0.105 C 
ENDROOT
BRANCH   3   7
ATOM      7  C   UNL     1       2.968   0.390   3.082  0.00  0.00    -0.012 A 
ATOM      8  C   UNL     1       3.128   1.441   2.199  0.00  0.00    +0.115 A 
ATOM      9  N   UNL     1       3.118   1.235   0.896  0.00  0.00    -0.263 NA
ATOM     10  C   UNL     1       2.956   0.030   0.386  0.00  0.00    +0.111 A 
ATOM     11  C   UNL     1       2.791  -1.070   1.207  0.00  0.00    +0.020 A 
ATOM     12  C   UNL     1       2.801  -0.893   2.582  0.00  0.00    +0.008 A 
ENDBRANCH   3   7
TORSDOF 1
ENDMDL
MODEL 8
REMARK VINA RESULT:    -4.003      2.293      4.478
REMARK INTER + INTRA:          -4.493
REMARK INTER:                  -4.297
REMARK INTRA:                  -0.196
REMARK UNBOUND:                -0.256
REMARK  Name = Nicotine.pdb
REMARK  2 active torsions:
REMARK  status: ('A' for Active; 'I' for Inactive)
REMARK    1  A    between atoms: C_3  and  C_6
REMARK    2  A    between atoms: N_4  and  C_12
REMARK                            x       y       z     vdW  Elec       q    Type
REMARK                         _______ _______ _______ _____ _____    ______ ____
ROOT
ATOM      1  C   UNL     1      -0.573  -1.898   4.793  0.00  0.00    +0.017 C 
ATOM      2  C   UNL     1      -0.119  -0.911   3.685  0.00  0.00    +0.025 C 
ATOM      3  C   UNL     1       1.417  -0.902   3.836  0.00  0.00    +0.088 C 
ATOM      4  N   UNL     1       1.723  -1.344   5.208  0.00  0.00    -0.298 NA
ATOM      5  C   UNL     1       0.451  -1.599   5.916  0.00  0.00    +0.085 C 
ATOM      6  C   UNL     1       2.571  -2.543   5.199  0.00  0.00    +0.105 C 
ENDROOT
BRANCH   3   7
ATOM      7  C   UNL     1       1.946   0.491   3.614  0.00  0.00    -0.012 A 
ATOM      8  C   UNL     1       2.588   0.815   2.434  0.00  0.00    +0.115 A 
ATOM      9  N   UNL     1       3.054   2.032   2.232  0.00  0.00    -0.263 NA
ATOM     10  C   UNL     1       2.929   2.982   3.138  0.00  0.00    +0.111 A 
ATOM     11  C   UNL     1       2.297   2.732   4.342  0.00  0.00    +0.020 A 
ATOM     12  C   UNL     1       1.790   1.466   4.588  0.00  0.00    +0.008 A 
ENDBRANCH   3   7
TORSDOF 1
ENDMDL
MODEL 9
REMARK VINA RESULT:    -3.960      2.597      4.048
REMARK INTER + INTRA:          -4.448
REMARK INTER:                  -4.262
REMARK INTRA:                  -0.185
REMARK UNBOUND:                -0.256
REMARK  Name = Nicotine.pdb
REMARK  2 active torsions:
REMARK  status: ('A' for Active; 'I' for Inactive)
REMARK    1  A    between atoms: C_3  and  C_6
REMARK    2  A    between atoms: N_4  and  C_12
REMARK                            x       y       z     vdW  Elec       q    Type
REMARK                         _______ _______ _______ _____ _____    ______ ____
ROOT
ATOM      1  C   UNL     1       2.712   0.646   1.267  0.00  0.00    +0.017 C 
ATOM      2  C   UNL     1       2.739  -0.846   1.692  0.00  0.00    +0.025 C 
ATOM      3  C   UNL     1       2.505  -0.777   3.216  0.00  0.00    +0.088 C 
ATOM      4  N   UNL     1       2.896   0.574   3.657  0.00  0.00    -0.298 NA
ATOM      5  C   UNL     1       3.383   1.331   2.484  0.00  0.00    +0.085 C 
ATOM      6  C   UNL     1       1.770   1.265   4.300  0.00  0.00    +0.105 C 
ENDROOT
BRANCH   3   7
ATOM      7  C   UNL     1       3.352  -1.810   3.912  0.00  0.00    -0.012 A 
ATOM      8  C   UNL     1       3.848  -2.894   3.213  0.00  0.00    +0.115 A 
ATOM      9  N   UNL     1       4.591  -3.803   3.814  0.00  0.00    -0.263 NA
ATOM     10  C   UNL     1       4.888  -3.717   5.096  0.00  0.00    +0.111 A 
ATOM     11  C   UNL     1       4.427  -2.661   5.860  0.00  0.00    +0.020 A 
ATOM     12  C   UNL     1       3.649  -1.683   5.261  0.00  0.00    +0.008 A 
ENDBRANCH   3   7
TORSDOF 1
ENDMDL
MODEL 10
REMARK VINA RESULT:    -3.378      1.842      2.384
REMARK INTER + INTRA:          -3.831
REMARK INTER:                  -3.637
REMARK INTRA:                  -0.193
REMARK UNBOUND:                -0.256
REMARK  Name = Nicotine.pdb
REMARK  2 active torsions:
REMARK  status: ('A' for Active; 'I' for Inactive)
REMARK    1  A    between atoms: C_3  and  C_6
REMARK    2  A    between atoms: N_4  and  C_12
REMARK                            x       y       z     vdW  Elec       q    Type
REMARK                         _______ _______ _______ _____ _____    ______ ____
ROOT
ATOM      1  C   UNL     1       1.906   2.637   5.827  0.00  0.00    +0.017 C 
ATOM      2  C   UNL     1       1.901   1.088   5.734  0.00  0.00    +0.025 C 
ATOM      3  C   UNL     1       3.390   0.749   5.513  0.00  0.00    +0.088 C 
ATOM      4  N   UNL     1       4.035   1.953   4.960  0.00  0.00    -0.298 NA
ATOM      5  C   UNL     1       3.011   3.008   4.807  0.00  0.00    +0.085 C 
ATOM      6  C   UNL     1       5.133   2.406   5.824  0.00  0.00    +0.105 C 
ENDROOT
BRANCH   3   7
ATOM      7  C   UNL     1       3.516  -0.395   4.540  0.00  0.00    -0.012 A 
ATOM      8  C   UNL     1       3.778  -1.674   4.994  0.00  0.00    +0.115 A 
ATOM      9  N   UNL     1       3.890  -2.680   4.150  0.00  0.00    -0.263 NA
ATOM     10  C   UNL     1       3.758  -2.511   2.849  0.00  0.00    +0.111 A 
ATOM     11  C   UNL     1       3.496  -1.260   2.321  0.00  0.00    +0.020 A 
ATOM     12  C   UNL     1       3.366  -0.179   3.179  0.00  0.00    +0.008 A 
ENDBRANCH   3   7
TORSDOF 1
ENDMDL
