MODEL 1
REMARK VINA RESULT:    -4.087      0.000      0.000
REMARK INTER + INTRA:          -4.539
REMARK INTER:                  -4.325
REMARK INTRA:                  -0.214
REMARK UNBOUND:                -0.214
REMARK  Name = Nicotine.pdb
REMARK  2 active torsions:
REMARK  status: ('A' for Active; 'I' for Inactive)
REMARK    1  A    between atoms: C_3  and  C_6
REMARK    2  A    between atoms: N_4  and  C_12
REMARK                            x       y       z     vdW  Elec       q    Type
REMARK                         _______ _______ _______ _____ _____    ______ ____
ROOT
ATOM      1  C   UNL     1      -4.661  -4.119   3.265  0.00  0.00    +0.017 C 
ATOM      2  C   UNL     1      -3.286  -4.599   3.802  0.00  0.00    +0.025 C 
ATOM      3  C   UNL     1      -3.220  -3.962   5.206  0.00  0.00    +0.088 C 
ATOM      4  N   UNL     1      -4.141  -2.811   5.207  0.00  0.00    -0.298 NA
ATOM      5  C   UNL     1      -4.750  -2.694   3.866  0.00  0.00    +0.085 C 
ATOM      6  C   UNL     1      -5.171  -2.961   6.243  0.00  0.00    +0.105 C 
ENDROOT
BRANCH   3   7
ATOM      7  C   UNL     1      -1.816  -3.498   5.492  0.00  0.00    -0.012 A 
ATOM      8  C   UNL     1      -0.781  -4.410   5.578  0.00  0.00    +0.115 A 
ATOM      9  N   UNL     1       0.451  -4.012   5.828  0.00  0.00    -0.263 NA
ATOM     10  C   UNL     1       0.745  -2.739   6.006  0.00  0.00    +0.111 A 
ATOM     11  C   UNL     1      -0.237  -1.769   5.935  0.00  0.00    +0.020 A 
ATOM     12  C   UNL     1      -1.543  -2.149   5.668  0.00  0.00    +0.008 A 
ENDBRANCH   3   7
TORSDOF 1
ENDMDL
MODEL 2
REMARK VINA RESULT:    -3.572      1.046      4.632
REMARK INTER + INTRA:          -3.994
REMARK INTER:                  -3.793
REMARK INTRA:                  -0.201
REMARK UNBOUND:                -0.214
REMARK  Name = Nicotine.pdb
REMARK  2 active torsions:
REMARK  status: ('A' for Active; 'I' for Inactive)
REMARK    1  A    between atoms: C_3  and  C_6
REMARK    2  A    between atoms: N_4  and  C_12
REMARK                            x       y       z     vdW  Elec       q    Type
REMARK                         _______ _______ _______ _____ _____    ______ ____
ROOT
ATOM      1  C   UNL     1       0.448  -3.024   6.233  0.00  0.00    +0.017 C 
ATOM      2  C   UNL     1      -1.030  -2.554   6.224  0.00  0.00    +0.025 C 
ATOM      3  C   UNL     1      -1.812  -3.869   6.023  0.00  0.00    +0.088 C 
ATOM      4  N   UNL     1      -0.888  -4.837   5.406  0.00  0.00    -0.298 NA
ATOM      5  C   UNL     1       0.417  -4.173   5.194  0.00  0.00    +0.085 C 
ATOM      6  C   UNL     1      -0.740  -6.034   6.244  0.00  0.00    +0.105 C 
ENDROOT
BRANCH   3   7
ATOM      7  C   UNL     1      -2.990  -3.631   5.115  0.00  0.00    -0.012 A 
ATOM      8  C   UNL     1      -3.831  -2.555   5.327  0.00  0.00    +0.115 A 
ATOM      9  N   UNL     1      -4.864  -2.340   4.536  0.00  0.00    -0.263 NA
ATOM     10  C   UNL     1      -5.136  -3.134   3.520  0.00  0.00    +0.111 A 
ATOM     11  C   UNL     1      -4.340  -4.230   3.245  0.00  0.00    +0.020 A 
ATOM     12  C   UNL     1      -3.242  -4.486   4.052  0.00  0.00    +0.008 A 
ENDBRANCH   3   7
TORSDOF 1
ENDMDL
MODEL 3
REMARK VINA RESULT:    -3.132      1.420      2.170
REMARK INTER + INTRA:          -3.529
REMARK INTER:                  -3.273
REMARK INTRA:                  -0.256
REMARK UNBOUND:                -0.214
REMARK  Name = Nicotine.pdb
REMARK  2 active torsions:
REMARK  status: ('A' for Active; 'I' for Inactive)
REMARK    1  A    between atoms: C_3  and  C_6
REMARK    2  A    between atoms: N_4  and  C_12
REMARK                            x       y       z     vdW  Elec       q    Type
REMARK                         _______ _______ _______ _____ _____    ______ ____
ROOT
ATOM      1  C   UNL     1      -3.473  -5.990   4.842  0.00  0.00    +0.017 C 
ATOM      2  C   UNL     1      -2.676  -5.232   5.935  0.00  0.00    +0.025 C 
ATOM      3  C   UNL     1      -2.958  -3.750   5.606  0.00  0.00    +0.088 C 
ATOM      4  N   UNL     1      -3.353  -3.686   4.187  0.00  0.00    -0.298 NA
ATOM      5  C   UNL     1      -3.302  -5.051   3.622  0.00  0.00    +0.085 C 
ATOM      6  C   UNL     1      -4.692  -3.103   4.038  0.00  0.00    +0.105 C 
ENDROOT
BRANCH   3   7
ATOM      7  C   UNL     1      -1.716  -2.929   5.831  0.00  0.00    -0.012 A 
ATOM      8  C   UNL     1      -1.803  -1.560   6.000  0.00  0.00    +0.115 A 
ATOM      9  N   UNL     1      -0.720  -0.834   6.198  0.00  0.00    -0.263 NA
ATOM     10  C   UNL     1       0.480  -1.378   6.243  0.00  0.00    +0.111 A 
ATOM     11  C   UNL     1       0.646  -2.741   6.083  0.00  0.00    +0.020 A 
ATOM     12  C   UNL     1      -0.470  -3.537   5.878  0.00  0.00    +0.008 A 
ENDBRANCH   3   7
TORSDOF 1
ENDMDL
MODEL 4
REMARK VINA RESULT:    -3.003      1.264      4.476
REMARK INTER + INTRA:          -3.392
REMARK INTER:                  -3.136
REMARK INTRA:                  -0.256
REMARK UNBOUND:                -0.214
REMARK  Name = Nicotine.pdb
REMARK  2 active torsions:
REMARK  status: ('A' for Active; 'I' for Inactive)
REMARK    1  A    between atoms: C_3  and  C_6
REMARK    2  A    between atoms: N_4  and  C_12
REMARK                            x       y       z     vdW  Elec       q    Type
REMARK                         _______ _______ _______ _____ _____    ______ ____
ROOT
ATOM      1  C   UNL     1      -0.136  -1.556   6.244  0.00  0.00    +0.017 C 
ATOM      2  C   UNL     1      -1.677  -1.708   6.146  0.00  0.00    +0.025 C 
ATOM      3  C   UNL     1      -1.864  -3.224   5.925  0.00  0.00    +0.088 C 
ATOM      4  N   UNL     1      -0.599  -3.744   5.376  0.00  0.00    -0.298 NA
ATOM      5  C   UNL     1       0.348  -2.619   5.225  0.00  0.00    +0.085 C 
ATOM      6  C   UNL     1      -0.040  -4.791   6.242  0.00  0.00    +0.105 C 
ENDROOT
BRANCH   3   7
ATOM      7  C   UNL     1      -2.986  -3.465   4.949  0.00  0.00    -0.012 A 
ATOM      8  C   UNL     1      -3.601  -4.701   4.883  0.00  0.00    +0.115 A 
ATOM      9  N   UNL     1      -4.584  -4.921   4.031  0.00  0.00    -0.263 NA
ATOM     10  C   UNL     1      -5.016  -3.981   3.215  0.00  0.00    +0.111 A 
ATOM     11  C   UNL     1      -4.450  -2.720   3.224  0.00  0.00    +0.020 A 
ATOM     12  C   UNL     1      -3.418  -2.450   4.109  0.00  0.00    +0.008 A 
ENDBRANCH   3   7
TORSDOF 1
ENDMDL
MODEL 5
REMARK VINA RESULT:    -2.874      1.353      4.543
REMARK INTER + INTRA:          -3.255
REMARK INTER:                  -3.000
REMARK INTRA:                  -0.255
REMARK UNBOUND:                -0.214
REMARK  Name = Nicotine.pdb
REMARK  2 active torsions:
REMARK  status: ('A' for Active; 'I' for Inactive)
REMARK    1  A    between atoms: C_3  and  C_6
REMARK    2  A    between atoms: N_4  and  C_12
REMARK                            x       y       z     vdW  Elec       q    Type
REMARK                         _______ _______ _______ _____ _____    ______ ____
ROOT
ATOM      1  C   UNL     1       0.472  -6.097   4.773  0.00  0.00    +0.017 C 
ATOM      2  C   UNL     1      -0.864  -5.567   4.188  0.00  0.00    +0.025 C 
ATOM      3  C   UNL     1      -1.055  -4.223   4.922  0.00  0.00    +0.088 C 
ATOM      4  N   UNL     1      -0.263  -4.287   6.164  0.00  0.00    -0.298 NA
ATOM      5  C   UNL     1       0.385  -5.613   6.242  0.00  0.00    +0.085 C 
ATOM      6  C   UNL     1       0.734  -3.209   6.209  0.00  0.00    +0.105 C 
ENDROOT
BRANCH   3   7
ATOM      7  C   UNL     1      -2.511  -4.021   5.251  0.00  0.00    -0.012 A 
ATOM      8  C   UNL     1      -2.977  -2.775   5.627  0.00  0.00    +0.115 A 
ATOM      9  N   UNL     1      -4.250  -2.590   5.916  0.00  0.00    -0.263 NA
ATOM     10  C   UNL     1      -5.124  -3.575   5.860  0.00  0.00    +0.111 A 
ATOM     11  C   UNL     1      -4.732  -4.848   5.491  0.00  0.00    +0.020 A 
ATOM     12  C   UNL     1      -3.403  -5.080   5.174  0.00  0.00    +0.008 A 
ENDBRANCH   3   7
TORSDOF 1
ENDMDL
MODEL 6
REMARK VINA RESULT:    -2.242      1.429      2.059
REMARK INTER + INTRA:          -2.587
REMARK INTER:                  -2.344
REMARK INTRA:                  -0.243
REMARK UNBOUND:                -0.214
REMARK  Name = Nicotine.pdb
REMARK  2 active torsions:
REMARK  status: ('A' for Active; 'I' for Inactive)
REMARK    1  A    between atoms: C_3  and  C_6
REMARK    2  A    between atoms: N_4  and  C_12
REMARK                            x       y       z     vdW  Elec       q    Type
REMARK                         _______ _______ _______ _____ _____    ______ ____
ROOT
ATOM      1  C   UNL     1      -4.003  -1.830   5.078  0.00  0.00    +0.017 C 
ATOM      2  C   UNL     1      -2.566  -2.214   4.636  0.00  0.00    +0.025 C 
ATOM      3  C   UNL     1      -2.561  -3.752   4.772  0.00  0.00    +0.088 C 
ATOM      4  N   UNL     1      -3.630  -4.110   5.721  0.00  0.00    -0.298 NA
ATOM      5  C   UNL     1      -4.275  -2.868   6.196  0.00  0.00    +0.085 C 
ATOM      6  C   UNL     1      -4.610  -5.008   5.097  0.00  0.00    +0.105 C 
ENDROOT
BRANCH   3   7
ATOM      7  C   UNL     1      -1.228  -4.215   5.299  0.00  0.00    -0.012 A 
ATOM      8  C   UNL     1      -0.969  -5.564   5.456  0.00  0.00    +0.115 A 
ATOM      9  N   UNL     1       0.195  -5.978   5.917  0.00  0.00    -0.263 NA
ATOM     10  C   UNL     1       1.152  -5.132   6.244  0.00  0.00    +0.111 A 
ATOM     11  C   UNL     1       0.966  -3.768   6.113  0.00  0.00    +0.020 A 
ATOM     12  C   UNL     1      -0.244  -3.296   5.627  0.00  0.00    +0.008 A 
ENDBRANCH   3   7
TORSDOF 1
ENDMDL
MODEL 7
REMARK VINA RESULT:    -2.217      1.619      2.190
REMARK INTER + INTRA:          -2.561
REMARK INTER:                  -2.346
REMARK INTRA:                  -0.215
REMARK UNBOUND:                -0.214
REMARK  Name = Nicotine.pdb
REMARK  2 active torsions:
REMARK  status: ('A' for Active; 'I' for Inactive)
REMARK    1  A    between atoms: C_3  and  C_6
REMARK    2  A    between atoms: N_4  and  C_12
REMARK                            x       y       z     vdW  Elec       q    Type
REMARK                         _______ _______ _______ _____ _____    ______ ____
ROOT
ATOM      1  C   UNL     1      -5.126  -2.872   3.494  0.00  0.00    +0.017 C 
ATOM      2  C   UNL     1      -3.679  -2.345   3.303  0.00  0.00    +0.025 C 
ATOM      3  C   UNL     1      -2.874  -3.160   4.337  0.00  0.00    +0.088 C 
ATOM      4  N   UNL     1      -3.824  -3.628   5.361  0.00  0.00    -0.298 NA
ATOM      5  C   UNL     1      -5.170  -3.119   5.023  0.00  0.00    +0.085 C 
ATOM      6  C   UNL     1      -3.823  -5.094   5.452  0.00  0.00    +0.105 C 
ENDROOT
BRANCH   3   7
ATOM      7  C   UNL     1      -1.822  -2.288   4.971  0.00  0.00    -0.012 A 
ATOM      8  C   UNL     1      -1.893  -0.912   4.858  0.00  0.00    +0.115 A 
ATOM      9  N   UNL     1      -0.976  -0.141   5.410  0.00  0.00    -0.263 NA
ATOM     10  C   UNL     1       0.036  -0.645   6.087  0.00  0.00    +0.111 A 
ATOM     11  C   UNL     1       0.174  -2.012   6.243  0.00  0.00    +0.020 A 
ATOM     12  C   UNL     1      -0.774  -2.854   5.681  0.00  0.00    +0.008 A 
ENDBRANCH   3   7
TORSDOF 1
ENDMDL
MODEL 8
REMARK VINA RESULT:    -1.855      1.630      2.190
REMARK INTER + INTRA:          -2.177
REMARK INTER:                  -1.990
REMARK INTRA:                  -0.187
REMARK UNBOUND:                -0.214
REMARK  Name = Nicotine.pdb
REMARK  2 active torsions:
REMARK  status: ('A' for Active; 'I' for Inactive)
REMARK    1  A    between atoms: C_3  and  C_6
REMARK    2  A    between atoms: N_4  and  C_12
REMARK                            x       y       z     vdW  Elec       q    Type
REMARK                         _______ _______ _______ _____ _____    ______ ____
ROOT
ATOM      1  C   UNL     1      -4.007  -2.155   3.725  0.00  0.00    +0.017 C 
ATOM      2  C   UNL     1      -3.553  -3.486   4.381  0.00  0.00    +0.025 C 
ATOM      3  C   UNL     1      -2.656  -3.011   5.544  0.00  0.00    +0.088 C 
ATOM      4  N   UNL     1      -2.194  -1.651   5.212  0.00  0.00    -0.298 NA
ATOM      5  C   UNL     1      -2.742  -1.277   3.891  0.00  0.00    +0.085 C 
ATOM      6  C   UNL     1      -2.603  -0.689   6.244  0.00  0.00    +0.105 C 
ENDROOT
BRANCH   3   7
ATOM      7  C   UNL     1      -1.475  -3.934   5.691  0.00  0.00    -0.012 A 
ATOM      8  C   UNL     1      -1.599  -5.280   5.403  0.00  0.00    +0.115 A 
ATOM      9  N   UNL     1      -0.570  -6.095   5.528  0.00  0.00    -0.263 NA
ATOM     10  C   UNL     1       0.609  -5.664   5.930  0.00  0.00    +0.111 A 
ATOM     11  C   UNL     1       0.810  -4.331   6.236  0.00  0.00    +0.020 A 
ATOM     12  C   UNL     1      -0.248  -3.444   6.111  0.00  0.00    +0.008 A 
ENDBRANCH   3   7
TORSDOF 1
ENDMDL
MODEL 9
REMARK VINA RESULT:    -1.233      1.847      3.073
REMARK INTER + INTRA:          -1.519
REMARK INTER:                  -1.284
REMARK INTRA:                  -0.235
REMARK UNBOUND:                -0.214
REMARK  Name = Nicotine.pdb
REMARK  2 active torsions:
REMARK  status: ('A' for Active; 'I' for Inactive)
REMARK    1  A    between atoms: C_3  and  C_6
REMARK    2  A    between atoms: N_4  and  C_12
REMARK                            x       y       z     vdW  Elec       q    Type
REMARK                         _______ _______ _______ _____ _____    ______ ____
ROOT
ATOM      1  C   UNL     1      -3.255  -0.895   4.031  0.00  0.00    +0.017 C 
ATOM      2  C   UNL     1      -3.269  -2.340   4.595  0.00  0.00    +0.025 C 
ATOM      3  C   UNL     1      -2.073  -2.343   5.571  0.00  0.00    +0.088 C 
ATOM      4  N   UNL     1      -1.168  -1.257   5.156  0.00  0.00    -0.298 NA
ATOM      5  C   UNL     1      -1.736  -0.602   3.958  0.00  0.00    +0.085 C 
ATOM      6  C   UNL     1      -0.973  -0.288   6.243  0.00  0.00    +0.105 C 
ENDROOT
BRANCH   3   7
ATOM      7  C   UNL     1      -1.356  -3.666   5.498  0.00  0.00    -0.012 A 
ATOM      8  C   UNL     1      -0.202  -3.877   6.230  0.00  0.00    +0.115 A 
ATOM      9  N   UNL     1       0.431  -5.032   6.172  0.00  0.00    -0.263 NA
ATOM     10  C   UNL     1      -0.003  -6.024   5.421  0.00  0.00    +0.111 A 
ATOM     11  C   UNL     1      -1.150  -5.887   4.661  0.00  0.00    +0.020 A 
ATOM     12  C   UNL     1      -1.847  -4.689   4.701  0.00  0.00    +0.008 A 
ENDBRANCH   3   7
TORSDOF 1
ENDMDL
