MODEL 1
REMARK VINA RESULT:    -5.983      0.000      0.000
REMARK INTER + INTRA:          -6.555
REMARK INTER:                  -6.333
REMARK INTRA:                  -0.223
REMARK UNBOUND:                -0.223
REMARK  Name = Nicotine.pdb
REMARK  2 active torsions:
REMARK  status: ('A' for Active; 'I' for Inactive)
REMARK    1  A    between atoms: C_3  and  C_6
REMARK    2  A    between atoms: N_4  and  C_12
REMARK                            x       y       z     vdW  Elec       q    Type
REMARK                         _______ _______ _______ _____ _____    ______ ____
ROOT
ATOM      1  C   UNL     1       1.211  -3.993  -5.760  0.00  0.00    +0.017 C 
ATOM      2  C   UNL     1       1.580  -3.260  -4.444  0.00  0.00    +0.025 C 
ATOM      3  C   UNL     1       0.290  -2.485  -4.104  0.00  0.00    +0.088 C 
ATOM      4  N   UNL     1      -0.469  -2.330  -5.358  0.00  0.00    -0.298 NA
ATOM      5  C   UNL     1       0.303  -2.949  -6.456  0.00  0.00    +0.085 C 
ATOM      6  C   UNL     1      -1.803  -2.935  -5.245  0.00  0.00    +0.105 C 
ENDROOT
BRANCH   3   7
ATOM      7  C   UNL     1       0.637  -1.131  -3.542  0.00  0.00    -0.012 A 
ATOM      8  C   UNL     1       0.210   0.020  -4.177  0.00  0.00    +0.115 A 
ATOM      9  N   UNL     1       0.510   1.209  -3.692  0.00  0.00    -0.263 NA
ATOM     10  C   UNL     1       1.223   1.349  -2.592  0.00  0.00    +0.111 A 
ATOM     11  C   UNL     1       1.685   0.243  -1.903  0.00  0.00    +0.020 A 
ATOM     12  C   UNL     1       1.385  -1.023  -2.380  0.00  0.00    +0.008 A 
ENDBRANCH   3   7
TORSDOF 1
ENDMDL
MODEL 2
REMARK VINA RESULT:    -5.864      1.612      3.974
REMARK INTER + INTRA:          -6.429
REMARK INTER:                  -6.174
REMARK INTRA:                  -0.256
REMARK UNBOUND:                -0.223
REMARK  Name = Nicotine.pdb
REMARK  2 active torsions:
REMARK  status: ('A' for Active; 'I' for Inactive)
REMARK    1  A    between atoms: C_3  and  C_6
REMARK    2  A    between atoms: N_4  and  C_12
REMARK                            x       y       z     vdW  Elec       q    Type
REMARK                         _______ _______ _______ _____ _____    ______ ____
ROOT
ATOM      1  C   UNL     1       2.802  -1.971  -3.869  0.00  0.00    +0.017 C 
ATOM      2  C   UNL     1       1.719  -2.056  -4.977  0.00  0.00    +0.025 C 
ATOM      3  C   UNL     1       0.748  -0.916  -4.602  0.00  0.00    +0.088 C 
ATOM      4  N   UNL     1       0.936  -0.637  -3.167  0.00  0.00    -0.298 NA
ATOM      5  C   UNL     1       1.956  -1.566  -2.636  0.00  0.00    +0.085 C 
ATOM      6  C   UNL     1       1.332   0.760  -2.949  0.00  0.00    +0.105 C 
ENDROOT
BRANCH   3   7
ATOM      7  C   UNL     1      -0.672  -1.347  -4.860  0.00  0.00    -0.012 A 
ATOM      8  C   UNL     1      -1.650  -0.407  -5.128  0.00  0.00    +0.115 A 
ATOM      9  N   UNL     1      -2.896  -0.776  -5.355  0.00  0.00    -0.263 NA
ATOM     10  C   UNL     1      -3.258  -2.043  -5.337  0.00  0.00    +0.111 A 
ATOM     11  C   UNL     1      -2.335  -3.039  -5.077  0.00  0.00    +0.020 A 
ATOM     12  C   UNL     1      -1.015  -2.690  -4.838  0.00  0.00    +0.008 A 
ENDBRANCH   3   7
TORSDOF 1
ENDMDL
MODEL 3
REMARK VINA RESULT:    -5.654      8.030      9.352
REMARK INTER + INTRA:          -6.207
REMARK INTER:                  -6.032
REMARK INTRA:                  -0.175
REMARK UNBOUND:                -0.223
REMARK  Name = Nicotine.pdb
REMARK  2 active torsions:
REMARK  status: ('A' for Active; 'I' for Inactive)
REMARK    1  A    between atoms: C_3  and  C_6
REMARK    2  A    between atoms: N_4  and  C_12
REMARK                            x       y       z     vdW  Elec       q    Type
REMARK                         _______ _______ _______ _____ _____    ______ ____
ROOT
ATOM      1  C   UNL     1       0.754  -3.468   3.532  0.00  0.00    +0.017 C 
ATOM      2  C   UNL     1       1.635  -4.260   2.530  0.00  0.00    +0.025 C 
ATOM      3  C   UNL     1       2.630  -4.998   3.450  0.00  0.00    +0.088 C 
ATOM      4  N   UNL     1       2.682  -4.255   4.722  0.00  0.00    -0.298 NA
ATOM      5  C   UNL     1       1.787  -3.083   4.620  0.00  0.00    +0.085 C 
ATOM      6  C   UNL     1       2.299  -5.114   5.850  0.00  0.00    +0.105 C 
ENDROOT
BRANCH   3   7
ATOM      7  C   UNL     1       3.996  -5.023   2.814  0.00  0.00    -0.012 A 
ATOM      8  C   UNL     1       4.878  -3.978   3.011  0.00  0.00    +0.115 A 
ATOM      9  N   UNL     1       6.076  -3.992   2.458  0.00  0.00    -0.263 NA
ATOM     10  C   UNL     1       6.477  -4.994   1.700  0.00  0.00    +0.111 A 
ATOM     11  C   UNL     1       5.649  -6.074   1.458  0.00  0.00    +0.020 A 
ATOM     12  C   UNL     1       4.385  -6.097   2.027  0.00  0.00    +0.008 A 
ENDBRANCH   3   7
TORSDOF 1
ENDMDL
MODEL 4
REMARK VINA RESULT:    -5.489      1.490      4.209
REMARK INTER + INTRA:          -6.032
REMARK INTER:                  -5.829
REMARK INTRA:                  -0.203
REMARK UNBOUND:                -0.223
REMARK  Name = Nicotine.pdb
REMARK  2 active torsions:
REMARK  status: ('A' for Active; 'I' for Inactive)
REMARK    1  A    between atoms: C_3  and  C_6
REMARK    2  A    between atoms: N_4  and  C_12
REMARK                            x       y       z     vdW  Elec       q    Type
REMARK                         _______ _______ _______ _____ _____    ______ ____
ROOT
ATOM      1  C   UNL     1       2.890  -1.613  -3.524  0.00  0.00    +0.017 C 
ATOM      2  C   UNL     1       1.923  -1.946  -4.691  0.00  0.00    +0.025 C 
ATOM      3  C   UNL     1       0.794  -0.908  -4.513  0.00  0.00    +0.088 C 
ATOM      4  N   UNL     1       0.825  -0.466  -3.108  0.00  0.00    -0.298 NA
ATOM      5  C   UNL     1       1.900  -1.198  -2.406  0.00  0.00    +0.085 C 
ATOM      6  C   UNL     1       1.030   0.986  -3.017  0.00  0.00    +0.105 C 
ENDROOT
BRANCH   3   7
ATOM      7  C   UNL     1      -0.538  -1.541  -4.824  0.00  0.00    -0.012 A 
ATOM      8  C   UNL     1      -0.610  -2.871  -5.195  0.00  0.00    +0.115 A 
ATOM      9  N   UNL     1      -1.772  -3.432  -5.468  0.00  0.00    -0.263 NA
ATOM     10  C   UNL     1      -2.902  -2.756  -5.400  0.00  0.00    +0.111 A 
ATOM     11  C   UNL     1      -2.908  -1.423  -5.035  0.00  0.00    +0.020 A 
ATOM     12  C   UNL     1      -1.706  -0.800  -4.735  0.00  0.00    +0.008 A 
ENDBRANCH   3   7
TORSDOF 1
ENDMDL
MODEL 5
REMARK VINA RESULT:    -5.372      1.842      3.775
REMARK INTER + INTRA:          -5.909
REMARK INTER:                  -5.713
REMARK INTRA:                  -0.196
REMARK UNBOUND:                -0.223
REMARK  Name = Nicotine.pdb
REMARK  2 active torsions:
REMARK  status: ('A' for Active; 'I' for Inactive)
REMARK    1  A    between atoms: C_3  and  C_6
REMARK    2  A    between atoms: N_4  and  C_12
REMARK                            x       y       z     vdW  Elec       q    Type
REMARK                         _______ _______ _______ _____ _____    ______ ____
ROOT
ATOM      1  C   UNL     1       2.326  -1.054  -2.757  0.00  0.00    +0.017 C 
ATOM      2  C   UNL     1       0.785  -1.134  -2.594  0.00  0.00    +0.025 C 
ATOM      3  C   UNL     1       0.388  -2.241  -3.594  0.00  0.00    +0.088 C 
ATOM      4  N   UNL     1       1.467  -2.335  -4.594  0.00  0.00    -0.298 NA
ATOM      5  C   UNL     1       2.495  -1.322  -4.273  0.00  0.00    +0.085 C 
ATOM      6  C   UNL     1       2.045  -3.684  -4.620  0.00  0.00    +0.105 C 
ENDROOT
BRANCH   3   7
ATOM      7  C   UNL     1      -0.910  -1.881  -4.269  0.00  0.00    -0.012 A 
ATOM      8  C   UNL     1      -1.084  -0.627  -4.824  0.00  0.00    +0.115 A 
ATOM      9  N   UNL     1      -2.216  -0.303  -5.417  0.00  0.00    -0.263 NA
ATOM     10  C   UNL     1      -3.221  -1.153  -5.505  0.00  0.00    +0.111 A 
ATOM     11  C   UNL     1      -3.119  -2.425  -4.973  0.00  0.00    +0.020 A 
ATOM     12  C   UNL     1      -1.942  -2.803  -4.347  0.00  0.00    +0.008 A 
ENDBRANCH   3   7
TORSDOF 1
ENDMDL
MODEL 6
REMARK VINA RESULT:    -4.853      8.753     10.136
REMARK INTER + INTRA:          -5.360
REMARK INTER:                  -5.185
REMARK INTRA:                  -0.175
REMARK UNBOUND:                -0.223
REMARK  Name = Nicotine.pdb
REMARK  2 active torsions:
REMARK  status: ('A' for Active; 'I' for Inactive)
REMARK    1  A    between atoms: C_3  and  C_6
REMARK    2  A    between atoms: N_4  and  C_12
REMARK                            x       y       z     vdW  Elec       q    Type
REMARK                         _______ _______ _______ _____ _____    ______ ____
ROOT
ATOM      1  C   UNL     1       1.307  -2.480   3.243  0.00  0.00    +0.017 C 
ATOM      2  C   UNL     1       2.655  -3.201   2.974  0.00  0.00    +0.025 C 
ATOM      3  C   UNL     1       2.489  -4.538   3.728  0.00  0.00    +0.088 C 
ATOM      4  N   UNL     1       1.455  -4.333   4.758  0.00  0.00    -0.298 NA
ATOM      5  C   UNL     1       0.995  -2.930   4.692  0.00  0.00    +0.085 C 
ATOM      6  C   UNL     1       0.334  -5.265   4.572  0.00  0.00    +0.105 C 
ENDROOT
BRANCH   3   7
ATOM      7  C   UNL     1       3.792  -4.925   4.377  0.00  0.00    -0.012 A 
ATOM      8  C   UNL     1       4.113  -4.454   5.636  0.00  0.00    +0.115 A 
ATOM      9  N   UNL     1       5.251  -4.788   6.212  0.00  0.00    -0.263 NA
ATOM     10  C   UNL     1       6.123  -5.578   5.617  0.00  0.00    +0.111 A 
ATOM     11  C   UNL     1       5.871  -6.088   4.357  0.00  0.00    +0.020 A 
ATOM     12  C   UNL     1       4.682  -5.763   3.722  0.00  0.00    +0.008 A 
ENDBRANCH   3   7
TORSDOF 1
ENDMDL
MODEL 7
REMARK VINA RESULT:    -4.842      7.646      8.965
REMARK INTER + INTRA:          -5.348
REMARK INTER:                  -5.156
REMARK INTRA:                  -0.192
REMARK UNBOUND:                -0.223
REMARK  Name = Nicotine.pdb
REMARK  2 active torsions:
REMARK  status: ('A' for Active; 'I' for Inactive)
REMARK    1  A    between atoms: C_3  and  C_6
REMARK    2  A    between atoms: N_4  and  C_12
REMARK                            x       y       z     vdW  Elec       q    Type
REMARK                         _______ _______ _______ _____ _____    ______ ____
ROOT
ATOM      1  C   UNL     1      -0.651  -3.209   3.968  0.00  0.00    +0.017 C 
ATOM      2  C   UNL     1       0.807  -2.728   4.194  0.00  0.00    +0.025 C 
ATOM      3  C   UNL     1       1.591  -3.463   3.086  0.00  0.00    +0.088 C 
ATOM      4  N   UNL     1       0.793  -4.639   2.694  0.00  0.00    -0.298 NA
ATOM      5  C   UNL     1      -0.430  -4.677   3.523  0.00  0.00    +0.085 C 
ATOM      6  C   UNL     1       0.459  -4.597   1.264  0.00  0.00    +0.105 C 
ENDROOT
BRANCH   3   7
ATOM      7  C   UNL     1       2.931  -3.904   3.614  0.00  0.00    -0.012 A 
ATOM      8  C   UNL     1       3.373  -3.471   4.849  0.00  0.00    +0.115 A 
ATOM      9  N   UNL     1       4.546  -3.852   5.318  0.00  0.00    -0.263 NA
ATOM     10  C   UNL     1       5.338  -4.655   4.635  0.00  0.00    +0.111 A 
ATOM     11  C   UNL     1       4.962  -5.129   3.392  0.00  0.00    +0.020 A 
ATOM     12  C   UNL     1       3.735  -4.754   2.869  0.00  0.00    +0.008 A 
ENDBRANCH   3   7
TORSDOF 1
ENDMDL
MODEL 8
REMARK VINA RESULT:    -4.670      1.185      4.313
REMARK INTER + INTRA:          -5.166
REMARK INTER:                  -4.950
REMARK INTRA:                  -0.216
REMARK UNBOUND:                -0.223
REMARK  Name = Nicotine.pdb
REMARK  2 active torsions:
REMARK  status: ('A' for Active; 'I' for Inactive)
REMARK    1  A    between atoms: C_3  and  C_6
REMARK    2  A    between atoms: N_4  and  C_12
REMARK                            x       y       z     vdW  Elec       q    Type
REMARK                         _______ _______ _______ _____ _____    ______ ____
ROOT
ATOM      1  C   UNL     1       1.167   0.662  -1.537  0.00  0.00    +0.017 C 
ATOM      2  C   UNL     1       1.943  -0.342  -2.430  0.00  0.00    +0.025 C 
ATOM      3  C   UNL     1       1.297  -0.144  -3.817  0.00  0.00    +0.088 C 
ATOM      4  N   UNL     1      -0.040   0.438  -3.597  0.00  0.00    -0.298 NA
ATOM      5  C   UNL     1      -0.256   0.584  -2.142  0.00  0.00    +0.085 C 
ATOM      6  C   UNL     1      -0.171   1.730  -4.282  0.00  0.00    +0.105 C 
ENDROOT
BRANCH   3   7
ATOM      7  C   UNL     1       1.170  -1.472  -4.518  0.00  0.00    -0.012 A 
ATOM      8  C   UNL     1       0.109  -1.715  -5.369  0.00  0.00    +0.115 A 
ATOM      9  N   UNL     1      -0.009  -2.874  -5.987  0.00  0.00    -0.263 NA
ATOM     10  C   UNL     1       0.871  -3.841  -5.819  0.00  0.00    +0.111 A 
ATOM     11  C   UNL     1       1.959  -3.671  -4.983  0.00  0.00    +0.020 A 
ATOM     12  C   UNL     1       2.119  -2.463  -4.321  0.00  0.00    +0.008 A 
ENDBRANCH   3   7
TORSDOF 1
ENDMDL
MODEL 9
REMARK VINA RESULT:    -4.389      1.138      1.301
REMARK INTER + INTRA:          -4.868
REMARK INTER:                  -4.651
REMARK INTRA:                  -0.217
REMARK UNBOUND:                -0.223
REMARK  Name = Nicotine.pdb
REMARK  2 active torsions:
REMARK  status: ('A' for Active; 'I' for Inactive)
REMARK    1  A    between atoms: C_3  and  C_6
REMARK    2  A    between atoms: N_4  and  C_12
REMARK                            x       y       z     vdW  Elec       q    Type
REMARK                         _______ _______ _______ _____ _____    ______ ____
ROOT
ATOM      1  C   UNL     1      -0.720  -3.427  -5.709  0.00  0.00    +0.017 C 
ATOM      2  C   UNL     1      -0.069  -3.000  -4.367  0.00  0.00    +0.025 C 
ATOM      3  C   UNL     1      -0.822  -1.700  -4.014  0.00  0.00    +0.088 C 
ATOM      4  N   UNL     1      -1.379  -1.163  -5.269  0.00  0.00    -0.298 NA
ATOM      5  C   UNL     1      -0.984  -2.055  -6.379  0.00  0.00    +0.085 C 
ATOM      6  C   UNL     1      -2.840  -1.039  -5.187  0.00  0.00    +0.105 C 
ENDROOT
BRANCH   3   7
ATOM      7  C   UNL     1       0.131  -0.703  -3.407  0.00  0.00    -0.012 A 
ATOM      8  C   UNL     1       0.064   0.632  -3.758  0.00  0.00    +0.115 A 
ATOM      9  N   UNL     1       0.895   1.511  -3.231  0.00  0.00    -0.263 NA
ATOM     10  C   UNL     1       1.816   1.156  -2.357  0.00  0.00    +0.111 A 
ATOM     11  C   UNL     1       1.943  -0.161  -1.957  0.00  0.00    +0.020 A 
ATOM     12  C   UNL     1       1.083  -1.112  -2.486  0.00  0.00    +0.008 A 
ENDBRANCH   3   7
TORSDOF 1
ENDMDL
MODEL 10
REMARK VINA RESULT:    -3.176      1.441      2.042
REMARK INTER + INTRA:          -3.585
REMARK INTER:                  -3.371
REMARK INTRA:                  -0.213
REMARK UNBOUND:                -0.223
REMARK  Name = Nicotine.pdb
REMARK  2 active torsions:
REMARK  status: ('A' for Active; 'I' for Inactive)
REMARK    1  A    between atoms: C_3  and  C_6
REMARK    2  A    between atoms: N_4  and  C_12
REMARK                            x       y       z     vdW  Elec       q    Type
REMARK                         _______ _______ _______ _____ _____    ______ ____
ROOT
ATOM      1  C   UNL     1       3.192  -2.855  -4.682  0.00  0.00    +0.017 C 
ATOM      2  C   UNL     1       2.701  -2.037  -3.458  0.00  0.00    +0.025 C 
ATOM      3  C   UNL     1       1.174  -1.973  -3.673  0.00  0.00    +0.088 C 
ATOM      4  N   UNL     1       0.925  -2.195  -5.109  0.00  0.00    -0.298 NA
ATOM      5  C   UNL     1       2.226  -2.368  -5.791  0.00  0.00    +0.085 C 
ATOM      6  C   UNL     1       0.061  -3.364  -5.319  0.00  0.00    +0.105 C 
ENDROOT
BRANCH   3   7
ATOM      7  C   UNL     1       0.656  -0.618  -3.266  0.00  0.00    -0.012 A 
ATOM      8  C   UNL     1       0.814  -0.170  -1.968  0.00  0.00    +0.115 A 
ATOM      9  N   UNL     1       0.363   1.014  -1.603  0.00  0.00    -0.263 NA
ATOM     10  C   UNL     1      -0.251   1.813  -2.452  0.00  0.00    +0.111 A 
ATOM     11  C   UNL     1      -0.446   1.434  -3.767  0.00  0.00    +0.020 A 
ATOM     12  C   UNL     1       0.019   0.198  -4.189  0.00  0.00    +0.008 A 
ENDBRANCH   3   7
TORSDOF 1
ENDMDL
