MODEL 1
REMARK VINA RESULT:    10.237      0.000      0.000
REMARK INTER + INTRA:          10.628
REMARK INTER:                  10.835
REMARK INTRA:                  -0.207
REMARK UNBOUND:                -0.207
REMARK  Name = Nicotine.pdb
REMARK  2 active torsions:
REMARK  status: ('A' for Active; 'I' for Inactive)
REMARK    1  A    between atoms: C_3  and  C_6
REMARK    2  A    between atoms: N_4  and  C_12
REMARK                            x       y       z     vdW  Elec       q    Type
REMARK                         _______ _______ _______ _____ _____    ______ ____
ROOT
ATOM      1  C   UNL     1      -0.833  -3.922  -5.155  0.00  0.00    +0.017 C 
ATOM      2  C   UNL     1      -0.708  -2.555  -4.431  0.00  0.00    +0.025 C 
ATOM      3  C   UNL     1      -1.413  -1.584  -5.402  0.00  0.00    +0.088 C 
ATOM      4  N   UNL     1      -1.393  -2.208  -6.737  0.00  0.00    -0.298 NA
ATOM      5  C   UNL     1      -0.688  -3.504  -6.640  0.00  0.00    +0.085 C 
ATOM      6  C   UNL     1      -2.755  -2.386  -7.256  0.00  0.00    +0.105 C 
ENDROOT
BRANCH   3   7
ATOM      7  C   UNL     1      -0.675  -0.270  -5.437  0.00  0.00    -0.012 A 
ATOM      8  C   UNL     1      -0.378   0.397  -4.264  0.00  0.00    +0.115 A 
ATOM      9  N   UNL     1       0.267   1.547  -4.286  0.00  0.00    -0.263 NA
ATOM     10  C   UNL     1       0.652   2.103  -5.418  0.00  0.00    +0.111 A 
ATOM     11  C   UNL     1       0.390   1.495  -6.631  0.00  0.00    +0.020 A 
ATOM     12  C   UNL     1      -0.281   0.282  -6.647  0.00  0.00    +0.008 A 
ENDBRANCH   3   7
TORSDOF 1
ENDMDL
MODEL 2
REMARK VINA RESULT:    10.289      1.619      5.122
REMARK INTER + INTRA:          10.683
REMARK INTER:                  10.905
REMARK INTRA:                  -0.222
REMARK UNBOUND:                -0.207
REMARK  Name = Nicotine.pdb
REMARK  2 active torsions:
REMARK  status: ('A' for Active; 'I' for Inactive)
REMARK    1  A    between atoms: C_3  and  C_6
REMARK    2  A    between atoms: N_4  and  C_12
REMARK                            x       y       z     vdW  Elec       q    Type
REMARK                         _______ _______ _______ _____ _____    ______ ____
ROOT
ATOM      1  C   UNL     1       0.112   4.415  -5.012  0.00  0.00    +0.017 C 
ATOM      2  C   UNL     1       0.030   3.025  -4.327  0.00  0.00    +0.025 C 
ATOM      3  C   UNL     1       0.688   2.089  -5.363  0.00  0.00    +0.088 C 
ATOM      4  N   UNL     1       0.597   2.756  -6.674  0.00  0.00    -0.298 NA
ATOM      5  C   UNL     1      -0.106   4.044  -6.500  0.00  0.00    +0.085 C 
ATOM      6  C   UNL     1       1.931   2.957  -7.256  0.00  0.00    +0.105 C 
ENDROOT
BRANCH   3   7
ATOM      7  C   UNL     1      -0.046   0.773  -5.404  0.00  0.00    -0.012 A 
ATOM      8  C   UNL     1      -0.475   0.249  -6.609  0.00  0.00    +0.115 A 
ATOM      9  N   UNL     1      -1.118  -0.902  -6.653  0.00  0.00    -0.263 NA
ATOM     10  C   UNL     1      -1.377  -1.593  -5.561  0.00  0.00    +0.111 A 
ATOM     11  C   UNL     1      -0.979  -1.132  -4.320  0.00  0.00    +0.020 A 
ATOM     12  C   UNL     1      -0.296   0.071  -4.235  0.00  0.00    +0.008 A 
ENDBRANCH   3   7
TORSDOF 1
ENDMDL
MODEL 3
REMARK VINA RESULT:    11.732      1.214      4.513
REMARK INTER + INTRA:          12.211
REMARK INTER:                  12.427
REMARK INTRA:                  -0.217
REMARK UNBOUND:                -0.207
REMARK  Name = Nicotine.pdb
REMARK  2 active torsions:
REMARK  status: ('A' for Active; 'I' for Inactive)
REMARK    1  A    between atoms: C_3  and  C_6
REMARK    2  A    between atoms: N_4  and  C_12
REMARK                            x       y       z     vdW  Elec       q    Type
REMARK                         _______ _______ _______ _____ _____    ______ ____
ROOT
ATOM      1  C   UNL     1      -0.688   1.352  -2.286  0.00  0.00    +0.017 C 
ATOM      2  C   UNL     1      -0.564  -0.100  -2.819  0.00  0.00    +0.025 C 
ATOM      3  C   UNL     1      -0.053   0.102  -4.261  0.00  0.00    +0.088 C 
ATOM      4  N   UNL     1      -0.418   1.471  -4.667  0.00  0.00    -0.298 NA
ATOM      5  C   UNL     1      -1.151   2.112  -3.554  0.00  0.00    +0.085 C 
ATOM      6  C   UNL     1       0.774   2.248  -5.030  0.00  0.00    +0.105 C 
ENDROOT
BRANCH   3   7
ATOM      7  C   UNL     1      -0.704  -0.898  -5.180  0.00  0.00    -0.012 A 
ATOM      8  C   UNL     1      -1.116  -0.521  -6.445  0.00  0.00    +0.115 A 
ATOM      9  N   UNL     1      -1.687  -1.390  -7.256  0.00  0.00    -0.263 NA
ATOM     10  C   UNL     1      -1.887  -2.643  -6.899  0.00  0.00    +0.111 A 
ATOM     11  C   UNL     1      -1.502  -3.093  -5.650  0.00  0.00    +0.020 A 
ATOM     12  C   UNL     1      -0.893  -2.210  -4.772  0.00  0.00    +0.008 A 
ENDBRANCH   3   7
TORSDOF 1
ENDMDL
MODEL 4
REMARK VINA RESULT:    11.803      1.777      2.993
REMARK INTER + INTRA:          12.286
REMARK INTER:                  12.501
REMARK INTRA:                  -0.215
REMARK UNBOUND:                -0.207
REMARK  Name = Nicotine.pdb
REMARK  2 active torsions:
REMARK  status: ('A' for Active; 'I' for Inactive)
REMARK    1  A    between atoms: C_3  and  C_6
REMARK    2  A    between atoms: N_4  and  C_12
REMARK                            x       y       z     vdW  Elec       q    Type
REMARK                         _______ _______ _______ _____ _____    ______ ____
ROOT
ATOM      1  C   UNL     1       0.099  -0.808  -2.247  0.00  0.00    +0.017 C 
ATOM      2  C   UNL     1      -0.111   0.633  -2.783  0.00  0.00    +0.025 C 
ATOM      3  C   UNL     1      -0.579   0.398  -4.235  0.00  0.00    +0.088 C 
ATOM      4  N   UNL     1      -0.114  -0.943  -4.632  0.00  0.00    -0.298 NA
ATOM      5  C   UNL     1       0.637  -1.534  -3.505  0.00  0.00    +0.085 C 
ATOM      6  C   UNL     1      -1.244  -1.799  -5.019  0.00  0.00    +0.105 C 
ENDROOT
BRANCH   3   7
ATOM      7  C   UNL     1       0.023   1.440  -5.142  0.00  0.00    -0.012 A 
ATOM      8  C   UNL     1       0.325   1.133  -6.455  0.00  0.00    +0.115 A 
ATOM      9  N   UNL     1       0.852   2.039  -7.256  0.00  0.00    -0.263 NA
ATOM     10  C   UNL     1       1.111   3.264  -6.841  0.00  0.00    +0.111 A 
ATOM     11  C   UNL     1       0.835   3.644  -5.541  0.00  0.00    +0.020 A 
ATOM     12  C   UNL     1       0.276   2.720  -4.672  0.00  0.00    +0.008 A 
ENDBRANCH   3   7
TORSDOF 1
ENDMDL
MODEL 5
REMARK VINA RESULT:    12.013      1.922      3.416
REMARK INTER + INTRA:          12.508
REMARK INTER:                  12.722
REMARK INTRA:                  -0.214
REMARK UNBOUND:                -0.207
REMARK  Name = Nicotine.pdb
REMARK  2 active torsions:
REMARK  status: ('A' for Active; 'I' for Inactive)
REMARK    1  A    between atoms: C_3  and  C_6
REMARK    2  A    between atoms: N_4  and  C_12
REMARK                            x       y       z     vdW  Elec       q    Type
REMARK                         _______ _______ _______ _____ _____    ______ ____
ROOT
ATOM      1  C   UNL     1      -1.083  -1.240  -6.104  0.00  0.00    +0.017 C 
ATOM      2  C   UNL     1      -0.413   0.095  -6.522  0.00  0.00    +0.025 C 
ATOM      3  C   UNL     1       0.307   0.541  -5.232  0.00  0.00    +0.088 C 
ATOM      4  N   UNL     1      -0.363  -0.130  -4.103  0.00  0.00    -0.298 NA
ATOM      5  C   UNL     1      -1.475  -0.947  -4.634  0.00  0.00    +0.085 C 
ATOM      6  C   UNL     1       0.584  -0.958  -3.345  0.00  0.00    +0.105 C 
ENDROOT
BRANCH   3   7
ATOM      7  C   UNL     1       0.202   2.036  -5.077  0.00  0.00    -0.012 A 
ATOM      8  C   UNL     1       0.784   2.878  -6.005  0.00  0.00    +0.115 A 
ATOM      9  N   UNL     1       0.696   4.188  -5.877  0.00  0.00    -0.263 NA
ATOM     10  C   UNL     1       0.056   4.744  -4.867  0.00  0.00    +0.111 A 
ATOM     11  C   UNL     1      -0.552   3.966  -3.900  0.00  0.00    +0.020 A 
ATOM     12  C   UNL     1      -0.485   2.585  -4.004  0.00  0.00    +0.008 A 
ENDBRANCH   3   7
TORSDOF 1
ENDMDL
MODEL 6
REMARK VINA RESULT:    12.090      0.969      4.680
REMARK INTER + INTRA:          12.590
REMARK INTER:                  12.785
REMARK INTRA:                  -0.195
REMARK UNBOUND:                -0.207
REMARK  Name = Nicotine.pdb
REMARK  2 active torsions:
REMARK  status: ('A' for Active; 'I' for Inactive)
REMARK    1  A    between atoms: C_3  and  C_6
REMARK    2  A    between atoms: N_4  and  C_12
REMARK                            x       y       z     vdW  Elec       q    Type
REMARK                         _______ _______ _______ _____ _____    ______ ____
ROOT
ATOM      1  C   UNL     1       0.419   1.811  -5.913  0.00  0.00    +0.017 C 
ATOM      2  C   UNL     1      -0.349   0.635  -6.572  0.00  0.00    +0.025 C 
ATOM      3  C   UNL     1      -0.998  -0.075  -5.365  0.00  0.00    +0.088 C 
ATOM      4  N   UNL     1      -0.215   0.289  -4.171  0.00  0.00    -0.298 NA
ATOM      5  C   UNL     1       0.899   1.168  -4.588  0.00  0.00    +0.085 C 
ATOM      6  C   UNL     1      -1.060   0.950  -3.167  0.00  0.00    +0.105 C 
ENDROOT
BRANCH   3   7
ATOM      7  C   UNL     1      -0.962  -1.568  -5.568  0.00  0.00    -0.012 A 
ATOM      8  C   UNL     1      -1.236  -2.112  -6.808  0.00  0.00    +0.115 A 
ATOM      9  N   UNL     1      -1.206  -3.417  -6.994  0.00  0.00    -0.263 NA
ATOM     10  C   UNL     1      -0.917  -4.250  -6.014  0.00  0.00    +0.111 A 
ATOM     11  C   UNL     1      -0.632  -3.779  -4.746  0.00  0.00    +0.020 A 
ATOM     12  C   UNL     1      -0.648  -2.413  -4.514  0.00  0.00    +0.008 A 
ENDBRANCH   3   7
TORSDOF 1
ENDMDL
