MODEL 1
REMARK VINA RESULT:     4.231      0.000      0.000
REMARK INTER + INTRA:           4.274
REMARK INTER:                   4.479
REMARK INTRA:                  -0.205
REMARK UNBOUND:                -0.205
REMARK  Name = Nicotine.pdb
REMARK  2 active torsions:
REMARK  status: ('A' for Active; 'I' for Inactive)
REMARK    1  A    between atoms: C_3  and  C_6
REMARK    2  A    between atoms: N_4  and  C_12
REMARK                            x       y       z     vdW  Elec       q    Type
REMARK                         _______ _______ _______ _____ _____    ______ ____
ROOT
ATOM      1  C   UNL     1      -2.543   1.920   5.414  0.00  0.00    +0.017 C 
ATOM      2  C   UNL     1      -3.239   3.304   5.329  0.00  0.00    +0.025 C 
ATOM      3  C   UNL     1      -4.473   3.018   4.448  0.00  0.00    +0.088 C 
ATOM      4  N   UNL     1      -4.179   1.805   3.664  0.00  0.00    -0.298 NA
ATOM      5  C   UNL     1      -2.815   1.346   4.002  0.00  0.00    +0.085 C 
ATOM      6  C   UNL     1      -5.170   0.754   3.928  0.00  0.00    +0.105 C 
ENDROOT
BRANCH   3   7
ATOM      7  C   UNL     1      -4.722   4.180   3.522  0.00  0.00    -0.012 A 
ATOM      8  C   UNL     1      -4.777   5.470   4.017  0.00  0.00    +0.115 A 
ATOM      9  N   UNL     1      -4.994   6.493   3.214  0.00  0.00    -0.263 NA
ATOM     10  C   UNL     1      -5.167   6.330   1.917  0.00  0.00    +0.111 A 
ATOM     11  C   UNL     1      -5.126   5.071   1.349  0.00  0.00    +0.020 A 
ATOM     12  C   UNL     1      -4.894   3.972   2.162  0.00  0.00    +0.008 A 
ENDBRANCH   3   7
TORSDOF 1
ENDMDL
MODEL 2
REMARK VINA RESULT:     4.285      0.739      1.379
REMARK INTER + INTRA:           4.331
REMARK INTER:                   4.550
REMARK INTRA:                  -0.219
REMARK UNBOUND:                -0.205
REMARK  Name = Nicotine.pdb
REMARK  2 active torsions:
REMARK  status: ('A' for Active; 'I' for Inactive)
REMARK    1  A    between atoms: C_3  and  C_6
REMARK    2  A    between atoms: N_4  and  C_12
REMARK                            x       y       z     vdW  Elec       q    Type
REMARK                         _______ _______ _______ _____ _____    ______ ____
ROOT
ATOM      1  C   UNL     1      -2.602   1.838   5.478  0.00  0.00    +0.017 C 
ATOM      2  C   UNL     1      -3.311   3.218   5.482  0.00  0.00    +0.025 C 
ATOM      3  C   UNL     1      -4.512   2.993   4.538  0.00  0.00    +0.088 C 
ATOM      4  N   UNL     1      -4.177   1.850   3.669  0.00  0.00    -0.298 NA
ATOM      5  C   UNL     1      -2.819   1.378   4.015  0.00  0.00    +0.085 C 
ATOM      6  C   UNL     1      -5.163   0.771   3.814  0.00  0.00    +0.105 C 
ENDROOT
BRANCH   3   7
ATOM      7  C   UNL     1      -4.744   4.224   3.701  0.00  0.00    -0.012 A 
ATOM      8  C   UNL     1      -4.967   4.113   2.342  0.00  0.00    +0.115 A 
ATOM      9  N   UNL     1      -5.171   5.186   1.602  0.00  0.00    -0.263 NA
ATOM     10  C   UNL     1      -5.171   6.397   2.123  0.00  0.00    +0.111 A 
ATOM     11  C   UNL     1      -4.956   6.586   3.475  0.00  0.00    +0.020 A 
ATOM     12  C   UNL     1      -4.743   5.481   4.285  0.00  0.00    +0.008 A 
ENDBRANCH   3   7
TORSDOF 1
ENDMDL
