MODEL 1
REMARK VINA RESULT:    -5.569      0.000      0.000
REMARK INTER + INTRA:          -6.090
REMARK INTER:                  -5.894
REMARK INTRA:                  -0.196
REMARK UNBOUND:                -0.196
REMARK  Name = Nicotine.pdb
REMARK  2 active torsions:
REMARK  status: ('A' for Active; 'I' for Inactive)
REMARK    1  A    between atoms: C_3  and  C_6
REMARK    2  A    between atoms: N_4  and  C_12
REMARK                            x       y       z     vdW  Elec       q    Type
REMARK                         _______ _______ _______ _____ _____    ______ ____
ROOT
ATOM      1  C   UNL     1      -0.331   4.098  -3.002  0.00  0.00    +0.017 C 
ATOM      2  C   UNL     1      -0.677   2.721  -3.626  0.00  0.00    +0.025 C 
ATOM      3  C   UNL     1      -0.919   3.064  -5.111  0.00  0.00    +0.088 C 
ATOM      4  N   UNL     1      -1.253   4.497  -5.180  0.00  0.00    -0.298 NA
ATOM      5  C   UNL     1      -1.254   5.047  -3.807  0.00  0.00    +0.085 C 
ATOM      6  C   UNL     1      -0.304   5.220  -6.037  0.00  0.00    +0.105 C 
ENDROOT
BRANCH   3   7
ATOM      7  C   UNL     1      -2.063   2.242  -5.647  0.00  0.00    -0.012 A 
ATOM      8  C   UNL     1      -1.835   0.985  -6.173  0.00  0.00    +0.115 A 
ATOM      9  N   UNL     1      -2.831   0.260  -6.644  0.00  0.00    -0.263 NA
ATOM     10  C   UNL     1      -4.073   0.699  -6.633  0.00  0.00    +0.111 A 
ATOM     11  C   UNL     1      -4.379   1.947  -6.122  0.00  0.00    +0.020 A 
ATOM     12  C   UNL     1      -3.358   2.736  -5.613  0.00  0.00    +0.008 A 
ENDBRANCH   3   7
TORSDOF 1
ENDMDL
MODEL 2
REMARK VINA RESULT:    -5.562      1.555      2.614
REMARK INTER + INTRA:          -6.083
REMARK INTER:                  -5.868
REMARK INTRA:                  -0.216
REMARK UNBOUND:                -0.196
REMARK  Name = Nicotine.pdb
REMARK  2 active torsions:
REMARK  status: ('A' for Active; 'I' for Inactive)
REMARK    1  A    between atoms: C_3  and  C_6
REMARK    2  A    between atoms: N_4  and  C_12
REMARK                            x       y       z     vdW  Elec       q    Type
REMARK                         _______ _______ _______ _____ _____    ______ ____
ROOT
ATOM      1  C   UNL     1      -2.386   4.326  -5.414  0.00  0.00    +0.017 C 
ATOM      2  C   UNL     1      -3.150   2.997  -5.659  0.00  0.00    +0.025 C 
ATOM      3  C   UNL     1      -2.249   1.948  -4.974  0.00  0.00    +0.088 C 
ATOM      4  N   UNL     1      -0.894   2.522  -4.892  0.00  0.00    -0.298 NA
ATOM      5  C   UNL     1      -0.911   3.862  -5.516  0.00  0.00    +0.085 C 
ATOM      6  C   UNL     1      -0.435   2.595  -3.499  0.00  0.00    +0.105 C 
ENDROOT
BRANCH   3   7
ATOM      7  C   UNL     1      -2.223   0.683  -5.792  0.00  0.00    -0.012 A 
ATOM      8  C   UNL     1      -1.087  -0.104  -5.826  0.00  0.00    +0.115 A 
ATOM      9  N   UNL     1      -1.056  -1.213  -6.539  0.00  0.00    -0.263 NA
ATOM     10  C   UNL     1      -2.096  -1.614  -7.242  0.00  0.00    +0.111 A 
ATOM     11  C   UNL     1      -3.267  -0.879  -7.256  0.00  0.00    +0.020 A 
ATOM     12  C   UNL     1      -3.339   0.289  -6.514  0.00  0.00    +0.008 A 
ENDBRANCH   3   7
TORSDOF 1
ENDMDL
MODEL 3
REMARK VINA RESULT:    -5.302      1.425      2.662
REMARK INTER + INTRA:          -5.808
REMARK INTER:                  -5.620
REMARK INTRA:                  -0.189
REMARK UNBOUND:                -0.196
REMARK  Name = Nicotine.pdb
REMARK  2 active torsions:
REMARK  status: ('A' for Active; 'I' for Inactive)
REMARK    1  A    between atoms: C_3  and  C_6
REMARK    2  A    between atoms: N_4  and  C_12
REMARK                            x       y       z     vdW  Elec       q    Type
REMARK                         _______ _______ _______ _____ _____    ______ ____
ROOT
ATOM      1  C   UNL     1      -2.008   4.583  -5.221  0.00  0.00    +0.017 C 
ATOM      2  C   UNL     1      -2.871   3.325  -5.504  0.00  0.00    +0.025 C 
ATOM      3  C   UNL     1      -2.088   2.200  -4.796  0.00  0.00    +0.088 C 
ATOM      4  N   UNL     1      -0.693   2.657  -4.660  0.00  0.00    -0.298 NA
ATOM      5  C   UNL     1      -0.575   3.997  -5.273  0.00  0.00    +0.085 C 
ATOM      6  C   UNL     1      -0.282   2.684  -3.251  0.00  0.00    +0.105 C 
ENDROOT
BRANCH   3   7
ATOM      7  C   UNL     1      -2.138   0.941  -5.623  0.00  0.00    -0.012 A 
ATOM      8  C   UNL     1      -3.264   0.638  -6.366  0.00  0.00    +0.115 A 
ATOM      9  N   UNL     1      -3.316  -0.462  -7.092  0.00  0.00    -0.263 NA
ATOM     10  C   UNL     1      -2.307  -1.310  -7.140  0.00  0.00    +0.111 A 
ATOM     11  C   UNL     1      -1.149  -1.072  -6.424  0.00  0.00    +0.020 A 
ATOM     12  C   UNL     1      -1.055   0.076  -5.653  0.00  0.00    +0.008 A 
ENDBRANCH   3   7
TORSDOF 1
ENDMDL
MODEL 4
REMARK VINA RESULT:    -5.143      1.230      4.683
REMARK INTER + INTRA:          -5.640
REMARK INTER:                  -5.443
REMARK INTRA:                  -0.196
REMARK UNBOUND:                -0.196
REMARK  Name = Nicotine.pdb
REMARK  2 active torsions:
REMARK  status: ('A' for Active; 'I' for Inactive)
REMARK    1  A    between atoms: C_3  and  C_6
REMARK    2  A    between atoms: N_4  and  C_12
REMARK                            x       y       z     vdW  Elec       q    Type
REMARK                         _______ _______ _______ _____ _____    ______ ____
ROOT
ATOM      1  C   UNL     1      -4.211   2.162  -6.122  0.00  0.00    +0.017 C 
ATOM      2  C   UNL     1      -3.327   3.371  -5.716  0.00  0.00    +0.025 C 
ATOM      3  C   UNL     1      -1.927   2.740  -5.563  0.00  0.00    +0.088 C 
ATOM      4  N   UNL     1      -2.120   1.299  -5.326  0.00  0.00    -0.298 NA
ATOM      5  C   UNL     1      -3.571   1.016  -5.300  0.00  0.00    +0.085 C 
ATOM      6  C   UNL     1      -1.445   0.500  -6.357  0.00  0.00    +0.105 C 
ENDROOT
BRANCH   3   7
ATOM      7  C   UNL     1      -1.210   3.363  -4.394  0.00  0.00    -0.012 A 
ATOM      8  C   UNL     1      -1.271   4.727  -4.181  0.00  0.00    +0.115 A 
ATOM      9  N   UNL     1      -0.646   5.280  -3.160  0.00  0.00    -0.263 NA
ATOM     10  C   UNL     1       0.057   4.561  -2.306  0.00  0.00    +0.111 A 
ATOM     11  C   UNL     1       0.163   3.191  -2.454  0.00  0.00    +0.020 A 
ATOM     12  C   UNL     1      -0.485   2.574  -3.513  0.00  0.00    +0.008 A 
ENDBRANCH   3   7
TORSDOF 1
ENDMDL
MODEL 5
REMARK VINA RESULT:    -3.478      2.055      4.780
REMARK INTER + INTRA:          -3.878
REMARK INTER:                  -3.679
REMARK INTRA:                  -0.199
REMARK UNBOUND:                -0.196
REMARK  Name = Nicotine.pdb
REMARK  2 active torsions:
REMARK  status: ('A' for Active; 'I' for Inactive)
REMARK    1  A    between atoms: C_3  and  C_6
REMARK    2  A    between atoms: N_4  and  C_12
REMARK                            x       y       z     vdW  Elec       q    Type
REMARK                         _______ _______ _______ _____ _____    ______ ____
ROOT
ATOM      1  C   UNL     1      -1.818   4.775  -6.082  0.00  0.00    +0.017 C 
ATOM      2  C   UNL     1      -0.650   4.977  -5.081  0.00  0.00    +0.025 C 
ATOM      3  C   UNL     1      -0.406   3.552  -4.540  0.00  0.00    +0.088 C 
ATOM      4  N   UNL     1      -1.647   2.785  -4.754  0.00  0.00    -0.298 NA
ATOM      5  C   UNL     1      -2.650   3.676  -5.376  0.00  0.00    +0.085 C 
ATOM      6  C   UNL     1      -1.400   1.604  -5.591  0.00  0.00    +0.105 C 
ENDROOT
BRANCH   3   7
ATOM      7  C   UNL     1      -0.085   3.609  -3.069  0.00  0.00    -0.012 A 
ATOM      8  C   UNL     1       1.200   3.359  -2.625  0.00  0.00    +0.115 A 
ATOM      9  N   UNL     1       1.490   3.408  -1.339  0.00  0.00    -0.263 NA
ATOM     10  C   UNL     1       0.577   3.694  -0.433  0.00  0.00    +0.111 A 
ATOM     11  C   UNL     1      -0.730   3.956  -0.802  0.00  0.00    +0.020 A 
ATOM     12  C   UNL     1      -1.071   3.919  -2.146  0.00  0.00    +0.008 A 
ENDBRANCH   3   7
TORSDOF 1
ENDMDL
MODEL 6
REMARK VINA RESULT:    -3.295      1.114      4.504
REMARK INTER + INTRA:          -3.684
REMARK INTER:                  -3.465
REMARK INTRA:                  -0.219
REMARK UNBOUND:                -0.196
REMARK  Name = Nicotine.pdb
REMARK  2 active torsions:
REMARK  status: ('A' for Active; 'I' for Inactive)
REMARK    1  A    between atoms: C_3  and  C_6
REMARK    2  A    between atoms: N_4  and  C_12
REMARK                            x       y       z     vdW  Elec       q    Type
REMARK                         _______ _______ _______ _____ _____    ______ ____
ROOT
ATOM      1  C   UNL     1      -0.997  -0.835  -6.244  0.00  0.00    +0.017 C 
ATOM      2  C   UNL     1      -0.755   0.060  -5.000  0.00  0.00    +0.025 C 
ATOM      3  C   UNL     1      -1.936   1.052  -5.050  0.00  0.00    +0.088 C 
ATOM      4  N   UNL     1      -2.417   1.088  -6.443  0.00  0.00    -0.298 NA
ATOM      5  C   UNL     1      -1.573   0.187  -7.256  0.00  0.00    +0.085 C 
ATOM      6  C   UNL     1      -3.831   0.701  -6.522  0.00  0.00    +0.105 C 
ENDROOT
BRANCH   3   7
ATOM      7  C   UNL     1      -1.473   2.423  -4.630  0.00  0.00    -0.012 A 
ATOM      8  C   UNL     1      -1.821   3.536  -5.371  0.00  0.00    +0.115 A 
ATOM      9  N   UNL     1      -1.420   4.739  -5.011  0.00  0.00    -0.263 NA
ATOM     10  C   UNL     1      -0.676   4.929  -3.939  0.00  0.00    +0.111 A 
ATOM     11  C   UNL     1      -0.288   3.864  -3.148  0.00  0.00    +0.020 A 
ATOM     12  C   UNL     1      -0.696   2.584  -3.493  0.00  0.00    +0.008 A 
ENDBRANCH   3   7
TORSDOF 1
ENDMDL
MODEL 7
REMARK VINA RESULT:    -2.764      1.669      4.124
REMARK INTER + INTRA:          -3.122
REMARK INTER:                  -2.935
REMARK INTRA:                  -0.187
REMARK UNBOUND:                -0.196
REMARK  Name = Nicotine.pdb
REMARK  2 active torsions:
REMARK  status: ('A' for Active; 'I' for Inactive)
REMARK    1  A    between atoms: C_3  and  C_6
REMARK    2  A    between atoms: N_4  and  C_12
REMARK                            x       y       z     vdW  Elec       q    Type
REMARK                         _______ _______ _______ _____ _____    ______ ____
ROOT
ATOM      1  C   UNL     1      -0.943  -0.399  -4.518  0.00  0.00    +0.017 C 
ATOM      2  C   UNL     1      -1.078   1.096  -4.123  0.00  0.00    +0.025 C 
ATOM      3  C   UNL     1      -1.991   1.666  -5.230  0.00  0.00    +0.088 C 
ATOM      4  N   UNL     1      -1.881   0.767  -6.393  0.00  0.00    -0.298 NA
ATOM      5  C   UNL     1      -0.926  -0.313  -6.065  0.00  0.00    +0.085 C 
ATOM      6  C   UNL     1      -3.192   0.218  -6.761  0.00  0.00    +0.105 C 
ENDROOT
BRANCH   3   7
ATOM      7  C   UNL     1      -1.535   3.052  -5.606  0.00  0.00    -0.012 A 
ATOM      8  C   UNL     1      -0.227   3.278  -5.992  0.00  0.00    +0.115 A 
ATOM      9  N   UNL     1       0.179   4.488  -6.323  0.00  0.00    -0.263 NA
ATOM     10  C   UNL     1      -0.636   5.523  -6.300  0.00  0.00    +0.111 A 
ATOM     11  C   UNL     1      -1.959   5.375  -5.925  0.00  0.00    +0.020 A 
ATOM     12  C   UNL     1      -2.424   4.116  -5.575  0.00  0.00    +0.008 A 
ENDBRANCH   3   7
TORSDOF 1
ENDMDL
