MODEL 1
REMARK VINA RESULT:    -3.998      0.000      0.000
REMARK INTER + INTRA:          -4.451
REMARK INTER:                  -4.232
REMARK INTRA:                  -0.219
REMARK UNBOUND:                -0.219
REMARK  Name = Nicotine.pdb
REMARK  2 active torsions:
REMARK  status: ('A' for Active; 'I' for Inactive)
REMARK    1  A    between atoms: C_3  and  C_6
REMARK    2  A    between atoms: N_4  and  C_12
REMARK                            x       y       z     vdW  Elec       q    Type
REMARK                         _______ _______ _______ _____ _____    ______ ____
ROOT
ATOM      1  C   UNL     1       9.453  -4.516  -0.561  0.00  0.00    +0.017 C 
ATOM      2  C   UNL     1       9.933  -4.972  -1.964  0.00  0.00    +0.025 C 
ATOM      3  C   UNL     1      10.529  -3.680  -2.563  0.00  0.00    +0.088 C 
ATOM      4  N   UNL     1       9.924  -2.545  -1.844  0.00  0.00    -0.298 NA
ATOM      5  C   UNL     1       8.966  -3.074  -0.850  0.00  0.00    +0.085 C 
ATOM      6  C   UNL     1      10.954  -1.721  -1.198  0.00  0.00    +0.105 C 
ENDROOT
BRANCH   3   7
ATOM      7  C   UNL     1      10.198  -3.595  -4.031  0.00  0.00    -0.012 A 
ATOM      8  C   UNL     1      10.280  -2.387  -4.697  0.00  0.00    +0.115 A 
ATOM      9  N   UNL     1       9.992  -2.304  -5.981  0.00  0.00    -0.263 NA
ATOM     10  C   UNL     1       9.616  -3.359  -6.677  0.00  0.00    +0.111 A 
ATOM     11  C   UNL     1       9.511  -4.601  -6.078  0.00  0.00    +0.020 A 
ATOM     12  C   UNL     1       9.812  -4.728  -4.731  0.00  0.00    +0.008 A 
ENDBRANCH   3   7
TORSDOF 1
ENDMDL
MODEL 2
REMARK VINA RESULT:    -3.844      1.122      4.510
REMARK INTER + INTRA:          -4.288
REMARK INTER:                  -4.102
REMARK INTRA:                  -0.186
REMARK UNBOUND:                -0.219
REMARK  Name = Nicotine.pdb
REMARK  2 active torsions:
REMARK  status: ('A' for Active; 'I' for Inactive)
REMARK    1  A    between atoms: C_3  and  C_6
REMARK    2  A    between atoms: N_4  and  C_12
REMARK                            x       y       z     vdW  Elec       q    Type
REMARK                         _______ _______ _______ _____ _____    ______ ____
ROOT
ATOM      1  C   UNL     1       9.691  -2.777  -6.729  0.00  0.00    +0.017 C 
ATOM      2  C   UNL     1      10.200  -2.277  -5.351  0.00  0.00    +0.025 C 
ATOM      3  C   UNL     1      10.595  -3.584  -4.632  0.00  0.00    +0.088 C 
ATOM      4  N   UNL     1       9.852  -4.680  -5.279  0.00  0.00    -0.298 NA
ATOM      5  C   UNL     1       9.000  -4.108  -6.344  0.00  0.00    +0.085 C 
ATOM      6  C   UNL     1      10.769  -5.690  -5.823  0.00  0.00    +0.105 C 
ENDROOT
BRANCH   3   7
ATOM      7  C   UNL     1      10.222  -3.500  -3.175  0.00  0.00    -0.012 A 
ATOM      8  C   UNL     1      10.203  -2.279  -2.527  0.00  0.00    +0.115 A 
ATOM      9  N   UNL     1       9.878  -2.197  -1.252  0.00  0.00    -0.263 NA
ATOM     10  C   UNL     1       9.561  -3.265  -0.547  0.00  0.00    +0.111 A 
ATOM     11  C   UNL     1       9.557  -4.520  -1.127  0.00  0.00    +0.020 A 
ATOM     12  C   UNL     1       9.889  -4.645  -2.467  0.00  0.00    +0.008 A 
ENDBRANCH   3   7
TORSDOF 1
ENDMDL
MODEL 3
REMARK VINA RESULT:    -3.792      1.305      4.706
REMARK INTER + INTRA:          -4.232
REMARK INTER:                  -4.017
REMARK INTRA:                  -0.215
REMARK UNBOUND:                -0.219
REMARK  Name = Nicotine.pdb
REMARK  2 active torsions:
REMARK  status: ('A' for Active; 'I' for Inactive)
REMARK    1  A    between atoms: C_3  and  C_6
REMARK    2  A    between atoms: N_4  and  C_12
REMARK                            x       y       z     vdW  Elec       q    Type
REMARK                         _______ _______ _______ _____ _____    ______ ____
ROOT
ATOM      1  C   UNL     1       9.754  -2.742  -6.670  0.00  0.00    +0.017 C 
ATOM      2  C   UNL     1      10.219  -2.239  -5.278  0.00  0.00    +0.025 C 
ATOM      3  C   UNL     1      10.622  -3.542  -4.555  0.00  0.00    +0.088 C 
ATOM      4  N   UNL     1       9.916  -4.649  -5.225  0.00  0.00    -0.298 NA
ATOM      5  C   UNL     1       9.080  -4.088  -6.307  0.00  0.00    +0.085 C 
ATOM      6  C   UNL     1      10.866  -5.638  -5.751  0.00  0.00    +0.105 C 
ENDROOT
BRANCH   3   7
ATOM      7  C   UNL     1      10.213  -3.473  -3.107  0.00  0.00    -0.012 A 
ATOM      8  C   UNL     1       9.859  -4.621  -2.424  0.00  0.00    +0.115 A 
ATOM      9  N   UNL     1       9.500  -4.569  -1.156  0.00  0.00    -0.263 NA
ATOM     10  C   UNL     1       9.463  -3.431  -0.493  0.00  0.00    +0.111 A 
ATOM     11  C   UNL     1       9.804  -2.241  -1.109  0.00  0.00    +0.020 A 
ATOM     12  C   UNL     1      10.192  -2.257  -2.440  0.00  0.00    +0.008 A 
ENDBRANCH   3   7
TORSDOF 1
ENDMDL
MODEL 4
REMARK VINA RESULT:    -3.528      1.681      4.600
REMARK INTER + INTRA:          -3.953
REMARK INTER:                  -3.737
REMARK INTRA:                  -0.216
REMARK UNBOUND:                -0.219
REMARK  Name = Nicotine.pdb
REMARK  2 active torsions:
REMARK  status: ('A' for Active; 'I' for Inactive)
REMARK    1  A    between atoms: C_3  and  C_6
REMARK    2  A    between atoms: N_4  and  C_12
REMARK                            x       y       z     vdW  Elec       q    Type
REMARK                         _______ _______ _______ _____ _____    ______ ____
ROOT
ATOM      1  C   UNL     1       8.737  -0.088  -5.899  0.00  0.00    +0.017 C 
ATOM      2  C   UNL     1       9.238  -0.451  -4.476  0.00  0.00    +0.025 C 
ATOM      3  C   UNL     1      10.185  -1.642  -4.735  0.00  0.00    +0.088 C 
ATOM      4  N   UNL     1       9.797  -2.236  -6.027  0.00  0.00    -0.298 NA
ATOM      5  C   UNL     1       8.642  -1.485  -6.563  0.00  0.00    +0.085 C 
ATOM      6  C   UNL     1      10.920  -2.220  -6.973  0.00  0.00    +0.105 C 
ENDROOT
BRANCH   3   7
ATOM      7  C   UNL     1      10.039  -2.662  -3.636  0.00  0.00    -0.012 A 
ATOM      8  C   UNL     1      10.081  -4.013  -3.926  0.00  0.00    +0.115 A 
ATOM      9  N   UNL     1       9.954  -4.913  -2.970  0.00  0.00    -0.263 NA
ATOM     10  C   UNL     1       9.783  -4.565  -1.710  0.00  0.00    +0.111 A 
ATOM     11  C   UNL     1       9.731  -3.233  -1.344  0.00  0.00    +0.020 A 
ATOM     12  C   UNL     1       9.866  -2.259  -2.321  0.00  0.00    +0.008 A 
ENDBRANCH   3   7
TORSDOF 1
ENDMDL
MODEL 5
REMARK VINA RESULT:    -2.966      2.110      3.463
REMARK INTER + INTRA:          -3.358
REMARK INTER:                  -3.152
REMARK INTRA:                  -0.206
REMARK UNBOUND:                -0.219
REMARK  Name = Nicotine.pdb
REMARK  2 active torsions:
REMARK  status: ('A' for Active; 'I' for Inactive)
REMARK    1  A    between atoms: C_3  and  C_6
REMARK    2  A    between atoms: N_4  and  C_12
REMARK                            x       y       z     vdW  Elec       q    Type
REMARK                         _______ _______ _______ _____ _____    ______ ____
ROOT
ATOM      1  C   UNL     1      10.673  -4.938  -4.924  0.00  0.00    +0.017 C 
ATOM      2  C   UNL     1      10.949  -3.657  -5.754  0.00  0.00    +0.025 C 
ATOM      3  C   UNL     1      10.922  -2.540  -4.689  0.00  0.00    +0.088 C 
ATOM      4  N   UNL     1      10.146  -3.048  -3.543  0.00  0.00    -0.298 NA
ATOM      5  C   UNL     1       9.674  -4.413  -3.862  0.00  0.00    +0.085 C 
ATOM      6  C   UNL     1      10.954  -3.043  -2.316  0.00  0.00    +0.105 C 
ENDROOT
BRANCH   3   7
ATOM      7  C   UNL     1      10.259  -1.310  -5.253  0.00  0.00    -0.012 A 
ATOM      8  C   UNL     1      10.666  -0.792  -6.468  0.00  0.00    +0.115 A 
ATOM      9  N   UNL     1      10.091   0.285  -6.969  0.00  0.00    -0.263 NA
ATOM     10  C   UNL     1       9.114   0.906  -6.338  0.00  0.00    +0.111 A 
ATOM     11  C   UNL     1       8.654   0.445  -5.119  0.00  0.00    +0.020 A 
ATOM     12  C   UNL     1       9.230  -0.687  -4.563  0.00  0.00    +0.008 A 
ENDBRANCH   3   7
TORSDOF 1
ENDMDL
MODEL 6
REMARK VINA RESULT:    -2.824      2.645      4.203
REMARK INTER + INTRA:          -3.208
REMARK INTER:                  -2.992
REMARK INTRA:                  -0.216
REMARK UNBOUND:                -0.219
REMARK  Name = Nicotine.pdb
REMARK  2 active torsions:
REMARK  status: ('A' for Active; 'I' for Inactive)
REMARK    1  A    between atoms: C_3  and  C_6
REMARK    2  A    between atoms: N_4  and  C_12
REMARK                            x       y       z     vdW  Elec       q    Type
REMARK                         _______ _______ _______ _____ _____    ______ ____
ROOT
ATOM      1  C   UNL     1       8.698   0.346  -4.947  0.00  0.00    +0.017 C 
ATOM      2  C   UNL     1       9.362  -0.890  -4.284  0.00  0.00    +0.025 C 
ATOM      3  C   UNL     1      10.379  -1.351  -5.350  0.00  0.00    +0.088 C 
ATOM      4  N   UNL     1       9.922  -0.823  -6.648  0.00  0.00    -0.298 NA
ATOM      5  C   UNL     1       8.661  -0.080  -6.436  0.00  0.00    +0.085 C 
ATOM      6  C   UNL     1      10.944   0.038  -7.256  0.00  0.00    +0.105 C 
ENDROOT
BRANCH   3   7
ATOM      7  C   UNL     1      10.426  -2.856  -5.396  0.00  0.00    -0.012 A 
ATOM      8  C   UNL     1      10.859  -3.508  -6.535  0.00  0.00    +0.115 A 
ATOM      9  N   UNL     1      10.904  -4.825  -6.583  0.00  0.00    -0.263 NA
ATOM     10  C   UNL     1      10.539  -5.569  -5.558  0.00  0.00    +0.111 A 
ATOM     11  C   UNL     1      10.095  -4.988  -4.385  0.00  0.00    +0.020 A 
ATOM     12  C   UNL     1      10.040  -3.606  -4.295  0.00  0.00    +0.008 A 
ENDBRANCH   3   7
TORSDOF 1
ENDMDL
MODEL 7
REMARK VINA RESULT:    -2.565      1.930      3.034
REMARK INTER + INTRA:          -2.934
REMARK INTER:                  -2.717
REMARK INTRA:                  -0.217
REMARK UNBOUND:                -0.219
REMARK  Name = Nicotine.pdb
REMARK  2 active torsions:
REMARK  status: ('A' for Active; 'I' for Inactive)
REMARK    1  A    between atoms: C_3  and  C_6
REMARK    2  A    between atoms: N_4  and  C_12
REMARK                            x       y       z     vdW  Elec       q    Type
REMARK                         _______ _______ _______ _____ _____    ______ ____
ROOT
ATOM      1  C   UNL     1       9.494  -2.029  -0.805  0.00  0.00    +0.017 C 
ATOM      2  C   UNL     1       8.813  -1.478  -2.085  0.00  0.00    +0.025 C 
ATOM      3  C   UNL     1       9.534  -2.239  -3.218  0.00  0.00    +0.088 C 
ATOM      4  N   UNL     1      10.831  -2.691  -2.683  0.00  0.00    -0.298 NA
ATOM      5  C   UNL     1      10.954  -2.222  -1.286  0.00  0.00    +0.085 C 
ATOM      6  C   UNL     1      10.954  -4.152  -2.762  0.00  0.00    +0.105 C 
ENDROOT
BRANCH   3   7
ATOM      7  C   UNL     1       9.753  -1.323  -4.393  0.00  0.00    -0.012 A 
ATOM      8  C   UNL     1      10.740  -1.599  -5.320  0.00  0.00    +0.115 A 
ATOM      9  N   UNL     1      10.938  -0.802  -6.352  0.00  0.00    -0.263 NA
ATOM     10  C   UNL     1      10.211   0.281  -6.541  0.00  0.00    +0.111 A 
ATOM     11  C   UNL     1       9.205   0.621  -5.656  0.00  0.00    +0.020 A 
ATOM     12  C   UNL     1       8.964  -0.195  -4.562  0.00  0.00    +0.008 A 
ENDBRANCH   3   7
TORSDOF 1
ENDMDL
MODEL 8
REMARK VINA RESULT:    -2.204      1.300      4.318
REMARK INTER + INTRA:          -2.551
REMARK INTER:                  -2.297
REMARK INTRA:                  -0.254
REMARK UNBOUND:                -0.219
REMARK  Name = Nicotine.pdb
REMARK  2 active torsions:
REMARK  status: ('A' for Active; 'I' for Inactive)
REMARK    1  A    between atoms: C_3  and  C_6
REMARK    2  A    between atoms: N_4  and  C_12
REMARK                            x       y       z     vdW  Elec       q    Type
REMARK                         _______ _______ _______ _____ _____    ______ ____
ROOT
ATOM      1  C   UNL     1       9.509  -5.500  -5.457  0.00  0.00    +0.017 C 
ATOM      2  C   UNL     1       9.017  -5.021  -4.065  0.00  0.00    +0.025 C 
ATOM      3  C   UNL     1       9.696  -3.643  -3.913  0.00  0.00    +0.088 C 
ATOM      4  N   UNL     1      10.866  -3.631  -4.810  0.00  0.00    -0.298 NA
ATOM      5  C   UNL     1      10.954  -4.942  -5.487  0.00  0.00    +0.085 C 
ATOM      6  C   UNL     1      10.770  -2.538  -5.786  0.00  0.00    +0.105 C 
ENDROOT
BRANCH   3   7
ATOM      7  C   UNL     1      10.140  -3.445  -2.487  0.00  0.00    -0.012 A 
ATOM      8  C   UNL     1      10.534  -2.197  -2.044  0.00  0.00    +0.115 A 
ATOM      9  N   UNL     1      10.924  -2.015  -0.797  0.00  0.00    -0.263 NA
ATOM     10  C   UNL     1      10.954  -3.007   0.071  0.00  0.00    +0.111 A 
ATOM     11  C   UNL     1      10.574  -4.284  -0.299  0.00  0.00    +0.020 A 
ATOM     12  C   UNL     1      10.153  -4.512  -1.600  0.00  0.00    +0.008 A 
ENDBRANCH   3   7
TORSDOF 1
ENDMDL
MODEL 9
REMARK VINA RESULT:    -1.231      2.043      2.997
REMARK INTER + INTRA:          -1.521
REMARK INTER:                  -1.306
REMARK INTRA:                  -0.215
REMARK UNBOUND:                -0.219
REMARK  Name = Nicotine.pdb
REMARK  2 active torsions:
REMARK  status: ('A' for Active; 'I' for Inactive)
REMARK    1  A    between atoms: C_3  and  C_6
REMARK    2  A    between atoms: N_4  and  C_12
REMARK                            x       y       z     vdW  Elec       q    Type
REMARK                         _______ _______ _______ _____ _____    ______ ____
ROOT
ATOM      1  C   UNL     1       9.989  -1.496  -2.828  0.00  0.00    +0.017 C 
ATOM      2  C   UNL     1      10.470  -2.860  -3.389  0.00  0.00    +0.025 C 
ATOM      3  C   UNL     1      10.666  -2.567  -4.892  0.00  0.00    +0.088 C 
ATOM      4  N   UNL     1       9.840  -1.391  -5.219  0.00  0.00    -0.298 NA
ATOM      5  C   UNL     1       9.125  -0.963  -3.998  0.00  0.00    +0.085 C 
ATOM      6  C   UNL     1      10.663  -0.301  -5.758  0.00  0.00    +0.105 C 
ENDROOT
BRANCH   3   7
ATOM      7  C   UNL     1      10.221  -3.752  -5.708  0.00  0.00    -0.012 A 
ATOM      8  C   UNL     1       9.115  -3.657  -6.532  0.00  0.00    +0.115 A 
ATOM      9  N   UNL     1       8.718  -4.690  -7.250  0.00  0.00    -0.263 NA
ATOM     10  C   UNL     1       9.353  -5.845  -7.212  0.00  0.00    +0.111 A 
ATOM     11  C   UNL     1      10.467  -6.015  -6.411  0.00  0.00    +0.020 A 
ATOM     12  C   UNL     1      10.917  -4.950  -5.646  0.00  0.00    +0.008 A 
ENDBRANCH   3   7
TORSDOF 1
ENDMDL
