MODEL 1
REMARK VINA RESULT:     0.000      0.000      0.000
REMARK INTER + INTRA:          -0.256
REMARK INTER:                   0.000
REMARK INTRA:                  -0.256
REMARK UNBOUND:                -0.256
REMARK  Name = Nicotine.pdb
REMARK  2 active torsions:
REMARK  status: ('A' for Active; 'I' for Inactive)
REMARK    1  A    between atoms: C_3  and  C_6
REMARK    2  A    between atoms: N_4  and  C_12
REMARK                            x       y       z     vdW  Elec       q    Type
REMARK                         _______ _______ _______ _____ _____    ______ ____
ROOT
ATOM      1  C   UNL     1       2.451   0.506  -2.782  0.00  0.00    +0.017 C 
ATOM      2  C   UNL     1       2.043   1.920  -3.274  0.00  0.00    +0.025 C 
ATOM      3  C   UNL     1       2.580   1.952  -4.721  0.00  0.00    +0.088 C 
ATOM      4  N   UNL     1       3.652   0.945  -4.812  0.00  0.00    -0.298 NA
ATOM      5  C   UNL     1       3.818   0.313  -3.486  0.00  0.00    +0.085 C 
ATOM      6  C   UNL     1       3.347  -0.059  -5.840  0.00  0.00    +0.105 C 
ENDROOT
BRANCH   3   7
ATOM      7  C   UNL     1       3.131   3.319  -5.033  0.00  0.00    -0.012 A 
ATOM      8  C   UNL     1       3.260   3.739  -6.343  0.00  0.00    +0.115 A 
ATOM      9  N   UNL     1       3.741   4.934  -6.625  0.00  0.00    -0.263 NA
ATOM     10  C   UNL     1       4.117   5.771  -5.678  0.00  0.00    +0.111 A 
ATOM     11  C   UNL     1       4.017   5.421  -4.344  0.00  0.00    +0.020 A 
ATOM     12  C   UNL     1       3.510   4.174  -4.009  0.00  0.00    +0.008 A 
ENDBRANCH   3   7
TORSDOF 1
ENDMDL
MODEL 2
REMARK VINA RESULT:     0.000      6.619      8.153
REMARK INTER + INTRA:          -0.256
REMARK INTER:                   0.000
REMARK INTRA:                  -0.256
REMARK UNBOUND:                -0.256
REMARK  Name = Nicotine.pdb
REMARK  2 active torsions:
REMARK  status: ('A' for Active; 'I' for Inactive)
REMARK    1  A    between atoms: C_3  and  C_6
REMARK    2  A    between atoms: N_4  and  C_12
REMARK                            x       y       z     vdW  Elec       q    Type
REMARK                         _______ _______ _______ _____ _____    ______ ____
ROOT
ATOM      1  C   UNL     1      -0.652   4.134   4.316  0.00  0.00    +0.017 C 
ATOM      2  C   UNL     1       0.565   4.375   3.384  0.00  0.00    +0.025 C 
ATOM      3  C   UNL     1       0.521   3.158   2.435  0.00  0.00    +0.088 C 
ATOM      4  N   UNL     1      -0.236   2.096   3.121  0.00  0.00    -0.298 NA
ATOM      5  C   UNL     1      -0.639   2.591   4.454  0.00  0.00    +0.085 C 
ATOM      6  C   UNL     1      -1.408   1.692   2.333  0.00  0.00    +0.105 C 
ENDROOT
BRANCH   3   7
ATOM      7  C   UNL     1       1.922   2.685   2.144  0.00  0.00    -0.012 A 
ATOM      8  C   UNL     1       2.184   1.927   1.018  0.00  0.00    +0.115 A 
ATOM      9  N   UNL     1       3.407   1.509   0.756  0.00  0.00    -0.263 NA
ATOM     10  C   UNL     1       4.421   1.792   1.549  0.00  0.00    +0.111 A 
ATOM     11  C   UNL     1       4.236   2.546   2.693  0.00  0.00    +0.020 A 
ATOM     12  C   UNL     1       2.965   3.008   2.999  0.00  0.00    +0.008 A 
ENDBRANCH   3   7
TORSDOF 1
ENDMDL
MODEL 3
REMARK VINA RESULT:     0.000      4.974      7.664
REMARK INTER + INTRA:          -0.256
REMARK INTER:                   0.000
REMARK INTRA:                  -0.256
REMARK UNBOUND:                -0.256
REMARK  Name = Nicotine.pdb
REMARK  2 active torsions:
REMARK  status: ('A' for Active; 'I' for Inactive)
REMARK    1  A    between atoms: C_3  and  C_6
REMARK    2  A    between atoms: N_4  and  C_12
REMARK                            x       y       z     vdW  Elec       q    Type
REMARK                         _______ _______ _______ _____ _____    ______ ____
ROOT
ATOM      1  C   UNL     1      -1.224  -1.395  -3.268  0.00  0.00    +0.017 C 
ATOM      2  C   UNL     1      -1.737  -0.866  -1.903  0.00  0.00    +0.025 C 
ATOM      3  C   UNL     1      -0.469  -0.255  -1.269  0.00  0.00    +0.088 C 
ATOM      4  N   UNL     1       0.693  -0.888  -1.919  0.00  0.00    -0.298 NA
ATOM      5  C   UNL     1       0.202  -1.877  -2.902  0.00  0.00    +0.085 C 
ATOM      6  C   UNL     1       1.548   0.116  -2.564  0.00  0.00    +0.105 C 
ENDROOT
BRANCH   3   7
ATOM      7  C   UNL     1      -0.448  -0.537   0.210  0.00  0.00    -0.012 A 
ATOM      8  C   UNL     1       0.310   0.245   1.061  0.00  0.00    +0.115 A 
ATOM      9  N   UNL     1       0.334   0.005   2.357  0.00  0.00    -0.263 NA
ATOM     10  C   UNL     1      -0.358  -0.982   2.892  0.00  0.00    +0.111 A 
ATOM     11  C   UNL     1      -1.140  -1.806   2.104  0.00  0.00    +0.020 A 
ATOM     12  C   UNL     1      -1.194  -1.580   0.738  0.00  0.00    +0.008 A 
ENDBRANCH   3   7
TORSDOF 1
ENDMDL
MODEL 4
REMARK VINA RESULT:     0.000      7.489      8.717
REMARK INTER + INTRA:          -0.256
REMARK INTER:                   0.000
REMARK INTRA:                  -0.256
REMARK UNBOUND:                -0.256
REMARK  Name = Nicotine.pdb
REMARK  2 active torsions:
REMARK  status: ('A' for Active; 'I' for Inactive)
REMARK    1  A    between atoms: C_3  and  C_6
REMARK    2  A    between atoms: N_4  and  C_12
REMARK                            x       y       z     vdW  Elec       q    Type
REMARK                         _______ _______ _______ _____ _____    ______ ____
ROOT
ATOM      1  C   UNL     1       1.630  -0.940   3.008  0.00  0.00    +0.017 C 
ATOM      2  C   UNL     1       2.853  -1.755   2.513  0.00  0.00    +0.025 C 
ATOM      3  C   UNL     1       4.044  -1.038   3.183  0.00  0.00    +0.088 C 
ATOM      4  N   UNL     1       3.602   0.331   3.508  0.00  0.00    -0.298 NA
ATOM      5  C   UNL     1       2.207   0.497   3.048  0.00  0.00    +0.085 C 
ATOM      6  C   UNL     1       3.717   0.593   4.949  0.00  0.00    +0.105 C 
ENDROOT
BRANCH   3   7
ATOM      7  C   UNL     1       5.213  -0.989   2.235  0.00  0.00    -0.012 A 
ATOM      8  C   UNL     1       6.497  -0.810   2.715  0.00  0.00    +0.115 A 
ATOM      9  N   UNL     1       7.526  -0.766   1.892  0.00  0.00    -0.263 NA
ATOM     10  C   UNL     1       7.376  -0.889   0.588  0.00  0.00    +0.111 A 
ATOM     11  C   UNL     1       6.122  -1.071   0.034  0.00  0.00    +0.020 A 
ATOM     12  C   UNL     1       5.017  -1.128   0.869  0.00  0.00    +0.008 A 
ENDBRANCH   3   7
TORSDOF 1
ENDMDL
MODEL 5
REMARK VINA RESULT:     0.000      4.457      5.445
REMARK INTER + INTRA:          -0.256
REMARK INTER:                   0.000
REMARK INTRA:                  -0.256
REMARK UNBOUND:                -0.256
REMARK  Name = Nicotine.pdb
REMARK  2 active torsions:
REMARK  status: ('A' for Active; 'I' for Inactive)
REMARK    1  A    between atoms: C_3  and  C_6
REMARK    2  A    between atoms: N_4  and  C_12
REMARK                            x       y       z     vdW  Elec       q    Type
REMARK                         _______ _______ _______ _____ _____    ______ ____
ROOT
ATOM      1  C   UNL     1       5.208   0.373   0.469  0.00  0.00    +0.017 C 
ATOM      2  C   UNL     1       3.998   0.756  -0.422  0.00  0.00    +0.025 C 
ATOM      3  C   UNL     1       4.156   2.282  -0.586  0.00  0.00    +0.088 C 
ATOM      4  N   UNL     1       4.978   2.760   0.541  0.00  0.00    -0.298 NA
ATOM      5  C   UNL     1       5.311   1.605   1.402  0.00  0.00    +0.085 C 
ATOM      6  C   UNL     1       6.195   3.427   0.060  0.00  0.00    +0.105 C 
ENDROOT
BRANCH   3   7
ATOM      7  C   UNL     1       2.803   2.945  -0.552  0.00  0.00    -0.012 A 
ATOM      8  C   UNL     1       2.626   4.201  -1.101  0.00  0.00    +0.115 A 
ATOM      9  N   UNL     1       1.445   4.787  -1.076  0.00  0.00    -0.263 NA
ATOM     10  C   UNL     1       0.394   4.207  -0.530  0.00  0.00    +0.111 A 
ATOM     11  C   UNL     1       0.495   2.951   0.038  0.00  0.00    +0.020 A 
ATOM     12  C   UNL     1       1.720   2.301   0.025  0.00  0.00    +0.008 A 
ENDBRANCH   3   7
TORSDOF 1
ENDMDL
MODEL 6
REMARK VINA RESULT:     0.000      4.757      5.580
REMARK INTER + INTRA:          -0.256
REMARK INTER:                   0.000
REMARK INTRA:                  -0.256
REMARK UNBOUND:                -0.256
REMARK  Name = Nicotine.pdb
REMARK  2 active torsions:
REMARK  status: ('A' for Active; 'I' for Inactive)
REMARK    1  A    between atoms: C_3  and  C_6
REMARK    2  A    between atoms: N_4  and  C_12
REMARK                            x       y       z     vdW  Elec       q    Type
REMARK                         _______ _______ _______ _____ _____    ______ ____
ROOT
ATOM      1  C   UNL     1       3.108  -2.229  -1.377  0.00  0.00    +0.017 C 
ATOM      2  C   UNL     1       2.465  -1.517  -0.158  0.00  0.00    +0.025 C 
ATOM      3  C   UNL     1       1.588  -0.429  -0.814  0.00  0.00    +0.088 C 
ATOM      4  N   UNL     1       2.133  -0.183  -2.161  0.00  0.00    -0.298 NA
ATOM      5  C   UNL     1       3.317  -1.047  -2.356  0.00  0.00    +0.085 C 
ATOM      6  C   UNL     1       1.120  -0.437  -3.194  0.00  0.00    +0.105 C 
ENDROOT
BRANCH   3   7
ATOM      7  C   UNL     1       1.643   0.836   0.002  0.00  0.00    -0.012 A 
ATOM      8  C   UNL     1       0.642   1.782  -0.107  0.00  0.00    +0.115 A 
ATOM      9  N   UNL     1       0.683   2.892   0.604  0.00  0.00    -0.263 NA
ATOM     10  C   UNL     1       1.670   3.144   1.440  0.00  0.00    +0.111 A 
ATOM     11  C   UNL     1       2.707   2.244   1.602  0.00  0.00    +0.020 A 
ATOM     12  C   UNL     1       2.696   1.063   0.876  0.00  0.00    +0.008 A 
ENDBRANCH   3   7
TORSDOF 1
ENDMDL
MODEL 7
REMARK VINA RESULT:     0.000      3.966      5.315
REMARK INTER + INTRA:          -0.256
REMARK INTER:                   0.000
REMARK INTRA:                  -0.256
REMARK UNBOUND:                -0.256
REMARK  Name = Nicotine.pdb
REMARK  2 active torsions:
REMARK  status: ('A' for Active; 'I' for Inactive)
REMARK    1  A    between atoms: C_3  and  C_6
REMARK    2  A    between atoms: N_4  and  C_12
REMARK                            x       y       z     vdW  Elec       q    Type
REMARK                         _______ _______ _______ _____ _____    ______ ____
ROOT
ATOM      1  C   UNL     1      -1.739   2.195  -0.886  0.00  0.00    +0.017 C 
ATOM      2  C   UNL     1      -0.338   2.013  -0.244  0.00  0.00    +0.025 C 
ATOM      3  C   UNL     1       0.393   3.316  -0.632  0.00  0.00    +0.088 C 
ATOM      4  N   UNL     1      -0.290   3.863  -1.818  0.00  0.00    -0.298 NA
ATOM      5  C   UNL     1      -1.389   2.948  -2.193  0.00  0.00    +0.085 C 
ATOM      6  C   UNL     1      -0.797   5.217  -1.556  0.00  0.00    +0.105 C 
ENDROOT
BRANCH   3   7
ATOM      7  C   UNL     1       1.833   3.017  -0.960  0.00  0.00    -0.012 A 
ATOM      8  C   UNL     1       2.784   4.018  -0.906  0.00  0.00    +0.115 A 
ATOM      9  N   UNL     1       4.046   3.766  -1.192  0.00  0.00    -0.263 NA
ATOM     10  C   UNL     1       4.451   2.560  -1.538  0.00  0.00    +0.111 A 
ATOM     11  C   UNL     1       3.556   1.508  -1.613  0.00  0.00    +0.020 A 
ATOM     12  C   UNL     1       2.222   1.735  -1.315  0.00  0.00    +0.008 A 
ENDBRANCH   3   7
TORSDOF 1
ENDMDL
MODEL 8
REMARK VINA RESULT:     0.000      4.649      6.644
REMARK INTER + INTRA:          -0.256
REMARK INTER:                   0.000
REMARK INTRA:                  -0.256
REMARK UNBOUND:                -0.256
REMARK  Name = Nicotine.pdb
REMARK  2 active torsions:
REMARK  status: ('A' for Active; 'I' for Inactive)
REMARK    1  A    between atoms: C_3  and  C_6
REMARK    2  A    between atoms: N_4  and  C_12
REMARK                            x       y       z     vdW  Elec       q    Type
REMARK                         _______ _______ _______ _____ _____    ______ ____
ROOT
ATOM      1  C   UNL     1       2.598  -0.225  -0.858  0.00  0.00    +0.017 C 
ATOM      2  C   UNL     1       1.131  -0.434  -0.397  0.00  0.00    +0.025 C 
ATOM      3  C   UNL     1       0.387   0.743  -1.063  0.00  0.00    +0.088 C 
ATOM      4  N   UNL     1       1.387   1.787  -1.349  0.00  0.00    -0.298 NA
ATOM      5  C   UNL     1       2.705   1.320  -0.868  0.00  0.00    +0.085 C 
ATOM      6  C   UNL     1       1.430   2.097  -2.784  0.00  0.00    +0.105 C 
ENDROOT
BRANCH   3   7
ATOM      7  C   UNL     1      -0.664   1.281  -0.127  0.00  0.00    -0.012 A 
ATOM      8  C   UNL     1      -1.731   2.009  -0.618  0.00  0.00    +0.115 A 
ATOM      9  N   UNL     1      -2.655   2.484   0.194  0.00  0.00    -0.263 NA
ATOM     10  C   UNL     1      -2.601   2.285   1.496  0.00  0.00    +0.111 A 
ATOM     11  C   UNL     1      -1.565   1.565   2.060  0.00  0.00    +0.020 A 
ATOM     12  C   UNL     1      -0.577   1.046   1.237  0.00  0.00    +0.008 A 
ENDBRANCH   3   7
TORSDOF 1
ENDMDL
MODEL 9
REMARK VINA RESULT:     0.000      4.659      5.195
REMARK INTER + INTRA:          -0.256
REMARK INTER:                   0.000
REMARK INTRA:                  -0.256
REMARK UNBOUND:                -0.256
REMARK  Name = Nicotine.pdb
REMARK  2 active torsions:
REMARK  status: ('A' for Active; 'I' for Inactive)
REMARK    1  A    between atoms: C_3  and  C_6
REMARK    2  A    between atoms: N_4  and  C_12
REMARK                            x       y       z     vdW  Elec       q    Type
REMARK                         _______ _______ _______ _____ _____    ______ ____
ROOT
ATOM      1  C   UNL     1       6.056   1.395  -2.323  0.00  0.00    +0.017 C 
ATOM      2  C   UNL     1       7.225   2.393  -2.118  0.00  0.00    +0.025 C 
ATOM      3  C   UNL     1       6.984   3.442  -3.224  0.00  0.00    +0.088 C 
ATOM      4  N   UNL     1       6.163   2.799  -4.265  0.00  0.00    -0.298 NA
ATOM      5  C   UNL     1       5.908   1.398  -3.866  0.00  0.00    +0.085 C 
ATOM      6  C   UNL     1       4.903   3.526  -4.467  0.00  0.00    +0.105 C 
ENDROOT
BRANCH   3   7
ATOM      7  C   UNL     1       8.301   3.883  -3.808  0.00  0.00    -0.012 A 
ATOM      8  C   UNL     1       8.401   5.090  -4.475  0.00  0.00    +0.115 A 
ATOM      9  N   UNL     1       9.550   5.484  -4.989  0.00  0.00    -0.263 NA
ATOM     10  C   UNL     1      10.641   4.750  -4.890  0.00  0.00    +0.111 A 
ATOM     11  C   UNL     1      10.618   3.532  -4.238  0.00  0.00    +0.020 A 
ATOM     12  C   UNL     1       9.429   3.087  -3.680  0.00  0.00    +0.008 A 
ENDBRANCH   3   7
TORSDOF 1
ENDMDL
MODEL 10
REMARK VINA RESULT:     0.000      8.296      9.643
REMARK INTER + INTRA:          -0.256
REMARK INTER:                   0.000
REMARK INTRA:                  -0.256
REMARK UNBOUND:                -0.256
REMARK  Name = Nicotine.pdb
REMARK  2 active torsions:
REMARK  status: ('A' for Active; 'I' for Inactive)
REMARK    1  A    between atoms: C_3  and  C_6
REMARK    2  A    between atoms: N_4  and  C_12
REMARK                            x       y       z     vdW  Elec       q    Type
REMARK                         _______ _______ _______ _____ _____    ______ ____
ROOT
ATOM      1  C   UNL     1      -4.423   1.659   0.576  0.00  0.00    +0.017 C 
ATOM      2  C   UNL     1      -3.265   1.235   1.516  0.00  0.00    +0.025 C 
ATOM      3  C   UNL     1      -3.156   2.426   2.492  0.00  0.00    +0.088 C 
ATOM      4  N   UNL     1      -3.751   3.596   1.822  0.00  0.00    -0.298 NA
ATOM      5  C   UNL     1      -4.199   3.189   0.473  0.00  0.00    +0.085 C 
ATOM      6  C   UNL     1      -4.868   4.140   2.605  0.00  0.00    +0.105 C 
ENDROOT
BRANCH   3   7
ATOM      7  C   UNL     1      -1.708   2.697   2.809  0.00  0.00    -0.012 A 
ATOM      8  C   UNL     1      -1.361   3.388   3.955  0.00  0.00    +0.115 A 
ATOM      9  N   UNL     1      -0.097   3.630   4.240  0.00  0.00    -0.263 NA
ATOM     10  C   UNL     1       0.881   3.227   3.453  0.00  0.00    +0.111 A 
ATOM     11  C   UNL     1       0.611   2.530   2.290  0.00  0.00    +0.020 A 
ATOM     12  C   UNL     1      -0.707   2.253   1.960  0.00  0.00    +0.008 A 
ENDBRANCH   3   7
TORSDOF 1
ENDMDL
