MODEL 1
REMARK VINA RESULT:    -4.435      0.000      0.000
REMARK INTER + INTRA:          -4.908
REMARK INTER:                  -4.694
REMARK INTRA:                  -0.213
REMARK UNBOUND:                -0.213
REMARK  Name = Nicotine.pdb
REMARK  2 active torsions:
REMARK  status: ('A' for Active; 'I' for Inactive)
REMARK    1  A    between atoms: C_3  and  C_6
REMARK    2  A    between atoms: N_4  and  C_12
REMARK                            x       y       z     vdW  Elec       q    Type
REMARK                         _______ _______ _______ _____ _____    ______ ____
ROOT
ATOM      1  C   UNL     1       1.527  -1.561   3.238  0.00  0.00    +0.017 C 
ATOM      2  C   UNL     1       2.820  -2.034   2.523  0.00  0.00    +0.025 C 
ATOM      3  C   UNL     1       3.133  -3.374   3.222  0.00  0.00    +0.088 C 
ATOM      4  N   UNL     1       2.463  -3.349   4.535  0.00  0.00    -0.298 NA
ATOM      5  C   UNL     1       1.775  -2.049   4.687  0.00  0.00    +0.085 C 
ATOM      6  C   UNL     1       1.517  -4.465   4.665  0.00  0.00    +0.105 C 
ENDROOT
BRANCH   3   7
ATOM      7  C   UNL     1       4.621  -3.521   3.408  0.00  0.00    -0.012 A 
ATOM      8  C   UNL     1       5.466  -3.507   2.314  0.00  0.00    +0.115 A 
ATOM      9  N   UNL     1       6.770  -3.635   2.468  0.00  0.00    -0.263 NA
ATOM     10  C   UNL     1       7.317  -3.780   3.659  0.00  0.00    +0.111 A 
ATOM     11  C   UNL     1       6.535  -3.802   4.798  0.00  0.00    +0.020 A 
ATOM     12  C   UNL     1       5.160  -3.665   4.677  0.00  0.00    +0.008 A 
ENDBRANCH   3   7
TORSDOF 1
ENDMDL
MODEL 2
REMARK VINA RESULT:    -4.292      1.473      4.627
REMARK INTER + INTRA:          -4.756
REMARK INTER:                  -4.542
REMARK INTRA:                  -0.215
REMARK UNBOUND:                -0.213
REMARK  Name = Nicotine.pdb
REMARK  2 active torsions:
REMARK  status: ('A' for Active; 'I' for Inactive)
REMARK    1  A    between atoms: C_3  and  C_6
REMARK    2  A    between atoms: N_4  and  C_12
REMARK                            x       y       z     vdW  Elec       q    Type
REMARK                         _______ _______ _______ _____ _____    ______ ____
ROOT
ATOM      1  C   UNL     1       6.698  -4.041   5.542  0.00  0.00    +0.017 C 
ATOM      2  C   UNL     1       5.168  -3.930   5.309  0.00  0.00    +0.025 C 
ATOM      3  C   UNL     1       5.059  -3.795   3.775  0.00  0.00    +0.088 C 
ATOM      4  N   UNL     1       6.357  -3.296   3.287  0.00  0.00    -0.298 NA
ATOM      5  C   UNL     1       7.250  -3.093   4.448  0.00  0.00    +0.085 C 
ATOM      6  C   UNL     1       6.951  -4.229   2.322  0.00  0.00    +0.105 C 
ENDROOT
BRANCH   3   7
ATOM      7  C   UNL     1       3.967  -2.818   3.423  0.00  0.00    -0.012 A 
ATOM      8  C   UNL     1       3.430  -1.991   4.391  0.00  0.00    +0.115 A 
ATOM      9  N   UNL     1       2.474  -1.133   4.091  0.00  0.00    -0.263 NA
ATOM     10  C   UNL     1       1.995  -1.030   2.867  0.00  0.00    +0.111 A 
ATOM     11  C   UNL     1       2.483  -1.824   1.846  0.00  0.00    +0.020 A 
ATOM     12  C   UNL     1       3.492  -2.734   2.123  0.00  0.00    +0.008 A 
ENDBRANCH   3   7
TORSDOF 1
ENDMDL
MODEL 3
REMARK VINA RESULT:    -4.282      1.631      4.681
REMARK INTER + INTRA:          -4.746
REMARK INTER:                  -4.515
REMARK INTRA:                  -0.232
REMARK UNBOUND:                -0.213
REMARK  Name = Nicotine.pdb
REMARK  2 active torsions:
REMARK  status: ('A' for Active; 'I' for Inactive)
REMARK    1  A    between atoms: C_3  and  C_6
REMARK    2  A    between atoms: N_4  and  C_12
REMARK                            x       y       z     vdW  Elec       q    Type
REMARK                         _______ _______ _______ _____ _____    ______ ____
ROOT
ATOM      1  C   UNL     1       5.262  -3.478   2.720  0.00  0.00    +0.017 C 
ATOM      2  C   UNL     1       3.720  -3.403   2.564  0.00  0.00    +0.025 C 
ATOM      3  C   UNL     1       3.261  -2.835   3.924  0.00  0.00    +0.088 C 
ATOM      4  N   UNL     1       4.327  -3.124   4.900  0.00  0.00    -0.298 NA
ATOM      5  C   UNL     1       5.407  -3.863   4.213  0.00  0.00    +0.085 C 
ATOM      6  C   UNL     1       4.837  -1.886   5.505  0.00  0.00    +0.105 C 
ENDROOT
BRANCH   3   7
ATOM      7  C   UNL     1       1.979  -3.501   4.351  0.00  0.00    -0.012 A 
ATOM      8  C   UNL     1       0.887  -2.741   4.726  0.00  0.00    +0.115 A 
ATOM      9  N   UNL     1      -0.239  -3.316   5.101  0.00  0.00    -0.263 NA
ATOM     10  C   UNL     1      -0.370  -4.627   5.134  0.00  0.00    +0.111 A 
ATOM     11  C   UNL     1       0.678  -5.452   4.772  0.00  0.00    +0.020 A 
ATOM     12  C   UNL     1       1.876  -4.884   4.367  0.00  0.00    +0.008 A 
ENDBRANCH   3   7
TORSDOF 1
ENDMDL
MODEL 4
REMARK VINA RESULT:    -4.040      2.067      5.166
REMARK INTER + INTRA:          -4.489
REMARK INTER:                  -4.267
REMARK INTRA:                  -0.223
REMARK UNBOUND:                -0.213
REMARK  Name = Nicotine.pdb
REMARK  2 active torsions:
REMARK  status: ('A' for Active; 'I' for Inactive)
REMARK    1  A    between atoms: C_3  and  C_6
REMARK    2  A    between atoms: N_4  and  C_12
REMARK                            x       y       z     vdW  Elec       q    Type
REMARK                         _______ _______ _______ _____ _____    ______ ____
ROOT
ATOM      1  C   UNL     1       2.704  -1.539   2.163  0.00  0.00    +0.017 C 
ATOM      2  C   UNL     1       1.369  -1.509   2.954  0.00  0.00    +0.025 C 
ATOM      3  C   UNL     1       1.720  -2.262   4.255  0.00  0.00    +0.088 C 
ATOM      4  N   UNL     1       2.893  -3.108   3.967  0.00  0.00    -0.298 NA
ATOM      5  C   UNL     1       3.264  -2.931   2.547  0.00  0.00    +0.085 C 
ATOM      6  C   UNL     1       4.015  -2.771   4.852  0.00  0.00    +0.105 C 
ENDROOT
BRANCH   3   7
ATOM      7  C   UNL     1       0.558  -3.122   4.679  0.00  0.00    -0.012 A 
ATOM      8  C   UNL     1       0.705  -4.492   4.791  0.00  0.00    +0.115 A 
ATOM      9  N   UNL     1      -0.307  -5.251   5.162  0.00  0.00    -0.263 NA
ATOM     10  C   UNL     1      -1.491  -4.742   5.438  0.00  0.00    +0.111 A 
ATOM     11  C   UNL     1      -1.714  -3.380   5.348  0.00  0.00    +0.020 A 
ATOM     12  C   UNL     1      -0.672  -2.549   4.966  0.00  0.00    +0.008 A 
ENDBRANCH   3   7
TORSDOF 1
ENDMDL
MODEL 5
REMARK VINA RESULT:    -3.947      1.420      2.592
REMARK INTER + INTRA:          -4.391
REMARK INTER:                  -4.185
REMARK INTRA:                  -0.206
REMARK UNBOUND:                -0.213
REMARK  Name = Nicotine.pdb
REMARK  2 active torsions:
REMARK  status: ('A' for Active; 'I' for Inactive)
REMARK    1  A    between atoms: C_3  and  C_6
REMARK    2  A    between atoms: N_4  and  C_12
REMARK                            x       y       z     vdW  Elec       q    Type
REMARK                         _______ _______ _______ _____ _____    ______ ____
ROOT
ATOM      1  C   UNL     1       2.667  -4.143   4.969  0.00  0.00    +0.017 C 
ATOM      2  C   UNL     1       4.168  -3.871   5.247  0.00  0.00    +0.025 C 
ATOM      3  C   UNL     1       4.590  -2.995   4.049  0.00  0.00    +0.088 C 
ATOM      4  N   UNL     1       3.627  -3.249   2.962  0.00  0.00    -0.298 NA
ATOM      5  C   UNL     1       2.650  -4.257   3.424  0.00  0.00    +0.085 C 
ATOM      6  C   UNL     1       2.953  -2.009   2.554  0.00  0.00    +0.105 C 
ENDROOT
BRANCH   3   7
ATOM      7  C   UNL     1       5.979  -3.370   3.603  0.00  0.00    -0.012 A 
ATOM      8  C   UNL     1       7.081  -2.965   4.333  0.00  0.00    +0.115 A 
ATOM      9  N   UNL     1       8.301  -3.289   3.950  0.00  0.00    -0.263 NA
ATOM     10  C   UNL     1       8.519  -4.006   2.865  0.00  0.00    +0.111 A 
ATOM     11  C   UNL     1       7.466  -4.447   2.084  0.00  0.00    +0.020 A 
ATOM     12  C   UNL     1       6.169  -4.130   2.459  0.00  0.00    +0.008 A 
ENDBRANCH   3   7
TORSDOF 1
ENDMDL
MODEL 6
REMARK VINA RESULT:    -3.941      1.230      2.362
REMARK INTER + INTRA:          -4.385
REMARK INTER:                  -4.167
REMARK INTRA:                  -0.218
REMARK UNBOUND:                -0.213
REMARK  Name = Nicotine.pdb
REMARK  2 active torsions:
REMARK  status: ('A' for Active; 'I' for Inactive)
REMARK    1  A    between atoms: C_3  and  C_6
REMARK    2  A    between atoms: N_4  and  C_12
REMARK                            x       y       z     vdW  Elec       q    Type
REMARK                         _______ _______ _______ _____ _____    ______ ____
ROOT
ATOM      1  C   UNL     1       0.336  -3.738   4.788  0.00  0.00    +0.017 C 
ATOM      2  C   UNL     1       1.685  -4.504   4.749  0.00  0.00    +0.025 C 
ATOM      3  C   UNL     1       2.703  -3.436   5.204  0.00  0.00    +0.088 C 
ATOM      4  N   UNL     1       2.096  -2.117   4.948  0.00  0.00    -0.298 NA
ATOM      5  C   UNL     1       0.767  -2.321   4.335  0.00  0.00    +0.085 C 
ATOM      6  C   UNL     1       1.992  -1.336   6.187  0.00  0.00    +0.105 C 
ENDROOT
BRANCH   3   7
ATOM      7  C   UNL     1       3.979  -3.577   4.416  0.00  0.00    -0.012 A 
ATOM      8  C   UNL     1       5.177  -3.816   5.063  0.00  0.00    +0.115 A 
ATOM      9  N   UNL     1       6.299  -3.941   4.381  0.00  0.00    -0.263 NA
ATOM     10  C   UNL     1       6.325  -3.843   3.067  0.00  0.00    +0.111 A 
ATOM     11  C   UNL     1       5.167  -3.606   2.351  0.00  0.00    +0.020 A 
ATOM     12  C   UNL     1       3.967  -3.474   3.034  0.00  0.00    +0.008 A 
ENDBRANCH   3   7
TORSDOF 1
ENDMDL
MODEL 7
REMARK VINA RESULT:    -3.870      1.120      2.282
REMARK INTER + INTRA:          -4.310
REMARK INTER:                  -4.092
REMARK INTRA:                  -0.218
REMARK UNBOUND:                -0.213
REMARK  Name = Nicotine.pdb
REMARK  2 active torsions:
REMARK  status: ('A' for Active; 'I' for Inactive)
REMARK    1  A    between atoms: C_3  and  C_6
REMARK    2  A    between atoms: N_4  and  C_12
REMARK                            x       y       z     vdW  Elec       q    Type
REMARK                         _______ _______ _______ _____ _____    ______ ____
ROOT
ATOM      1  C   UNL     1       2.042  -5.054   6.153  0.00  0.00    +0.017 C 
ATOM      2  C   UNL     1       3.536  -4.635   6.135  0.00  0.00    +0.025 C 
ATOM      3  C   UNL     1       3.568  -3.512   5.077  0.00  0.00    +0.088 C 
ATOM      4  N   UNL     1       2.393  -3.697   4.207  0.00  0.00    -0.298 NA
ATOM      5  C   UNL     1       1.654  -4.893   4.662  0.00  0.00    +0.085 C 
ATOM      6  C   UNL     1       1.532  -2.507   4.224  0.00  0.00    +0.105 C 
ENDROOT
BRANCH   3   7
ATOM      7  C   UNL     1       4.832  -3.611   4.263  0.00  0.00    -0.012 A 
ATOM      8  C   UNL     1       4.795  -3.443   2.891  0.00  0.00    +0.115 A 
ATOM      9  N   UNL     1       5.897  -3.528   2.171  0.00  0.00    -0.263 NA
ATOM     10  C   UNL     1       7.068  -3.775   2.723  0.00  0.00    +0.111 A 
ATOM     11  C   UNL     1       7.183  -3.954   4.089  0.00  0.00    +0.020 A 
ATOM     12  C   UNL     1       6.048  -3.866   4.879  0.00  0.00    +0.008 A 
ENDBRANCH   3   7
TORSDOF 1
ENDMDL
MODEL 8
REMARK VINA RESULT:    -3.840      1.544      5.011
REMARK INTER + INTRA:          -4.277
REMARK INTER:                  -4.053
REMARK INTRA:                  -0.224
REMARK UNBOUND:                -0.213
REMARK  Name = Nicotine.pdb
REMARK  2 active torsions:
REMARK  status: ('A' for Active; 'I' for Inactive)
REMARK    1  A    between atoms: C_3  and  C_6
REMARK    2  A    between atoms: N_4  and  C_12
REMARK                            x       y       z     vdW  Elec       q    Type
REMARK                         _______ _______ _______ _____ _____    ______ ____
ROOT
ATOM      1  C   UNL     1       9.203  -3.653   4.705  0.00  0.00    +0.017 C 
ATOM      2  C   UNL     1       7.775  -4.221   4.915  0.00  0.00    +0.025 C 
ATOM      3  C   UNL     1       7.184  -4.211   3.489  0.00  0.00    +0.088 C 
ATOM      4  N   UNL     1       7.948  -3.222   2.707  0.00  0.00    -0.298 NA
ATOM      5  C   UNL     1       8.962  -2.606   3.589  0.00  0.00    +0.085 C 
ATOM      6  C   UNL     1       8.577  -3.848   1.536  0.00  0.00    +0.105 C 
ENDROOT
BRANCH   3   7
ATOM      7  C   UNL     1       5.731  -3.816   3.538  0.00  0.00    -0.012 A 
ATOM      8  C   UNL     1       5.054  -3.494   2.377  0.00  0.00    +0.115 A 
ATOM      9  N   UNL     1       3.782  -3.147   2.412  0.00  0.00    -0.263 NA
ATOM     10  C   UNL     1       3.110  -3.093   3.544  0.00  0.00    +0.111 A 
ATOM     11  C   UNL     1       3.720  -3.401   4.746  0.00  0.00    +0.020 A 
ATOM     12  C   UNL     1       5.055  -3.775   4.748  0.00  0.00    +0.008 A 
ENDBRANCH   3   7
TORSDOF 1
ENDMDL
MODEL 9
REMARK VINA RESULT:    -3.764      1.969      5.203
REMARK INTER + INTRA:          -4.198
REMARK INTER:                  -3.997
REMARK INTRA:                  -0.201
REMARK UNBOUND:                -0.213
REMARK  Name = Nicotine.pdb
REMARK  2 active torsions:
REMARK  status: ('A' for Active; 'I' for Inactive)
REMARK    1  A    between atoms: C_3  and  C_6
REMARK    2  A    between atoms: N_4  and  C_12
REMARK                            x       y       z     vdW  Elec       q    Type
REMARK                         _______ _______ _______ _____ _____    ______ ____
ROOT
ATOM      1  C   UNL     1       4.737  -3.634   5.576  0.00  0.00    +0.017 C 
ATOM      2  C   UNL     1       3.448  -4.489   5.700  0.00  0.00    +0.025 C 
ATOM      3  C   UNL     1       2.726  -4.224   4.362  0.00  0.00    +0.088 C 
ATOM      4  N   UNL     1       3.238  -2.946   3.835  0.00  0.00    -0.298 NA
ATOM      5  C   UNL     1       4.220  -2.400   4.795  0.00  0.00    +0.085 C 
ATOM      6  C   UNL     1       3.842  -3.128   2.508  0.00  0.00    +0.105 C 
ENDROOT
BRANCH   3   7
ATOM      7  C   UNL     1       1.240  -4.127   4.592  0.00  0.00    -0.012 A 
ATOM      8  C   UNL     1       0.475  -5.272   4.710  0.00  0.00    +0.115 A 
ATOM      9  N   UNL     1      -0.826  -5.196   4.911  0.00  0.00    -0.263 NA
ATOM     10  C   UNL     1      -1.446  -4.036   5.007  0.00  0.00    +0.111 A 
ATOM     11  C   UNL     1      -0.747  -2.849   4.900  0.00  0.00    +0.020 A 
ATOM     12  C   UNL     1       0.624  -2.889   4.694  0.00  0.00    +0.008 A 
ENDBRANCH   3   7
TORSDOF 1
ENDMDL
MODEL 10
REMARK VINA RESULT:    -3.641      2.430      4.010
REMARK INTER + INTRA:          -4.067
REMARK INTER:                  -3.844
REMARK INTRA:                  -0.224
REMARK UNBOUND:                -0.213
REMARK  Name = Nicotine.pdb
REMARK  2 active torsions:
REMARK  status: ('A' for Active; 'I' for Inactive)
REMARK    1  A    between atoms: C_3  and  C_6
REMARK    2  A    between atoms: N_4  and  C_12
REMARK                            x       y       z     vdW  Elec       q    Type
REMARK                         _______ _______ _______ _____ _____    ______ ____
ROOT
ATOM      1  C   UNL     1      -1.008  -5.005   5.938  0.00  0.00    +0.017 C 
ATOM      2  C   UNL     1       0.505  -4.714   5.757  0.00  0.00    +0.025 C 
ATOM      3  C   UNL     1       0.526  -3.222   5.360  0.00  0.00    +0.088 C 
ATOM      4  N   UNL     1      -0.803  -2.897   4.812  0.00  0.00    -0.298 NA
ATOM      5  C   UNL     1      -1.632  -4.121   4.830  0.00  0.00    +0.085 C 
ATOM      6  C   UNL     1      -1.440  -1.819   5.579  0.00  0.00    +0.105 C 
ENDROOT
BRANCH   3   7
ATOM      7  C   UNL     1       1.585  -2.985   4.314  0.00  0.00    -0.012 A 
ATOM      8  C   UNL     1       1.614  -1.799   3.606  0.00  0.00    +0.115 A 
ATOM      9  N   UNL     1       2.537  -1.583   2.689  0.00  0.00    -0.263 NA
ATOM     10  C   UNL     1       3.462  -2.481   2.412  0.00  0.00    +0.111 A 
ATOM     11  C   UNL     1       3.497  -3.690   3.080  0.00  0.00    +0.020 A 
ATOM     12  C   UNL     1       2.545  -3.951   4.054  0.00  0.00    +0.008 A 
ENDBRANCH   3   7
TORSDOF 1
ENDMDL
