MODEL 1
REMARK VINA RESULT:    -3.224      0.000      0.000
REMARK INTER + INTRA:          -3.666
REMARK INTER:                  -3.413
REMARK INTRA:                  -0.253
REMARK UNBOUND:                -0.253
REMARK  Name = Nicotine.pdb
REMARK  2 active torsions:
REMARK  status: ('A' for Active; 'I' for Inactive)
REMARK    1  A    between atoms: C_3  and  C_6
REMARK    2  A    between atoms: N_4  and  C_12
REMARK                            x       y       z     vdW  Elec       q    Type
REMARK                         _______ _______ _______ _____ _____    ______ ____
ROOT
ATOM      1  C   UNL     1      -2.084   5.866  -4.207  0.00  0.00    +0.017 C 
ATOM      2  C   UNL     1      -2.029   4.405  -4.728  0.00  0.00    +0.025 C 
ATOM      3  C   UNL     1      -3.180   4.359  -5.755  0.00  0.00    +0.088 C 
ATOM      4  N   UNL     1      -4.115   5.446  -5.412  0.00  0.00    -0.298 NA
ATOM      5  C   UNL     1      -3.609   6.141  -4.210  0.00  0.00    +0.085 C 
ATOM      6  C   UNL     1      -4.273   6.379  -6.534  0.00  0.00    +0.105 C 
ENDROOT
BRANCH   3   7
ATOM      7  C   UNL     1      -3.885   3.030  -5.675  0.00  0.00    -0.012 A 
ATOM      8  C   UNL     1      -4.407   2.446  -6.814  0.00  0.00    +0.115 A 
ATOM      9  N   UNL     1      -5.025   1.282  -6.753  0.00  0.00    -0.263 NA
ATOM     10  C   UNL     1      -5.171   0.634  -5.615  0.00  0.00    +0.111 A 
ATOM     11  C   UNL     1      -4.675   1.156  -4.434  0.00  0.00    +0.020 A 
ATOM     12  C   UNL     1      -4.014   2.374  -4.460  0.00  0.00    +0.008 A 
ENDBRANCH   3   7
TORSDOF 1
ENDMDL
MODEL 2
REMARK VINA RESULT:    -3.203      3.313      3.921
REMARK INTER + INTRA:          -3.643
REMARK INTER:                  -3.436
REMARK INTRA:                  -0.207
REMARK UNBOUND:                -0.253
REMARK  Name = Nicotine.pdb
REMARK  2 active torsions:
REMARK  status: ('A' for Active; 'I' for Inactive)
REMARK    1  A    between atoms: C_3  and  C_6
REMARK    2  A    between atoms: N_4  and  C_12
REMARK                            x       y       z     vdW  Elec       q    Type
REMARK                         _______ _______ _______ _____ _____    ______ ____
ROOT
ATOM      1  C   UNL     1      -3.303   4.487  -4.260  0.00  0.00    +0.017 C 
ATOM      2  C   UNL     1      -1.829   4.208  -4.657  0.00  0.00    +0.025 C 
ATOM      3  C   UNL     1      -1.970   3.362  -5.940  0.00  0.00    +0.088 C 
ATOM      4  N   UNL     1      -3.312   2.754  -5.918  0.00  0.00    -0.298 NA
ATOM      5  C   UNL     1      -3.994   3.163  -4.672  0.00  0.00    +0.085 C 
ATOM      6  C   UNL     1      -4.090   3.149  -7.099  0.00  0.00    +0.105 C 
ENDROOT
BRANCH   3   7
ATOM      7  C   UNL     1      -0.917   2.284  -5.962  0.00  0.00    -0.012 A 
ATOM      8  C   UNL     1       0.415   2.604  -5.781  0.00  0.00    +0.115 A 
ATOM      9  N   UNL     1       1.343   1.667  -5.799  0.00  0.00    -0.263 NA
ATOM     10  C   UNL     1       1.041   0.397  -5.988  0.00  0.00    +0.111 A 
ATOM     11  C   UNL     1      -0.270   0.001  -6.175  0.00  0.00    +0.020 A 
ATOM     12  C   UNL     1      -1.273   0.958  -6.158  0.00  0.00    +0.008 A 
ENDBRANCH   3   7
TORSDOF 1
ENDMDL
MODEL 3
REMARK VINA RESULT:    -3.197      1.504      2.016
REMARK INTER + INTRA:          -3.637
REMARK INTER:                  -3.422
REMARK INTRA:                  -0.215
REMARK UNBOUND:                -0.253
REMARK  Name = Nicotine.pdb
REMARK  2 active torsions:
REMARK  status: ('A' for Active; 'I' for Inactive)
REMARK    1  A    between atoms: C_3  and  C_6
REMARK    2  A    between atoms: N_4  and  C_12
REMARK                            x       y       z     vdW  Elec       q    Type
REMARK                         _______ _______ _______ _____ _____    ______ ____
ROOT
ATOM      1  C   UNL     1      -2.271   5.981  -4.802  0.00  0.00    +0.017 C 
ATOM      2  C   UNL     1      -2.890   4.674  -4.240  0.00  0.00    +0.025 C 
ATOM      3  C   UNL     1      -2.134   3.572  -5.013  0.00  0.00    +0.088 C 
ATOM      4  N   UNL     1      -1.612   4.185  -6.248  0.00  0.00    -0.298 NA
ATOM      5  C   UNL     1      -2.031   5.602  -6.285  0.00  0.00    +0.085 C 
ATOM      6  C   UNL     1      -0.150   4.066  -6.318  0.00  0.00    +0.105 C 
ENDROOT
BRANCH   3   7
ATOM      7  C   UNL     1      -3.077   2.448  -5.356  0.00  0.00    -0.012 A 
ATOM      8  C   UNL     1      -2.876   1.690  -6.494  0.00  0.00    +0.115 A 
ATOM      9  N   UNL     1      -3.696   0.703  -6.801  0.00  0.00    -0.263 NA
ATOM     10  C   UNL     1      -4.732   0.402  -6.043  0.00  0.00    +0.111 A 
ATOM     11  C   UNL     1      -4.996   1.117  -4.889  0.00  0.00    +0.020 A 
ATOM     12  C   UNL     1      -4.153   2.157  -4.531  0.00  0.00    +0.008 A 
ENDBRANCH   3   7
TORSDOF 1
ENDMDL
MODEL 4
REMARK VINA RESULT:    -3.154      3.613      4.695
REMARK INTER + INTRA:          -3.591
REMARK INTER:                  -3.337
REMARK INTRA:                  -0.254
REMARK UNBOUND:                -0.253
REMARK  Name = Nicotine.pdb
REMARK  2 active torsions:
REMARK  status: ('A' for Active; 'I' for Inactive)
REMARK    1  A    between atoms: C_3  and  C_6
REMARK    2  A    between atoms: N_4  and  C_12
REMARK                            x       y       z     vdW  Elec       q    Type
REMARK                         _______ _______ _______ _____ _____    ______ ____
ROOT
ATOM      1  C   UNL     1       0.713  -0.228  -7.117  0.00  0.00    +0.017 C 
ATOM      2  C   UNL     1      -0.755   0.254  -7.256  0.00  0.00    +0.025 C 
ATOM      3  C   UNL     1      -0.724   1.652  -6.601  0.00  0.00    +0.088 C 
ATOM      4  N   UNL     1       0.440   1.685  -5.697  0.00  0.00    -0.298 NA
ATOM      5  C   UNL     1       1.110   0.368  -5.744  0.00  0.00    +0.085 C 
ATOM      6  C   UNL     1       1.366   2.762  -6.069  0.00  0.00    +0.105 C 
ENDROOT
BRANCH   3   7
ATOM      7  C   UNL     1      -1.991   1.880  -5.818  0.00  0.00    -0.012 A 
ATOM      8  C   UNL     1      -2.325   3.148  -5.384  0.00  0.00    +0.115 A 
ATOM      9  N   UNL     1      -3.432   3.356  -4.698  0.00  0.00    -0.263 NA
ATOM     10  C   UNL     1      -4.258   2.372  -4.400  0.00  0.00    +0.111 A 
ATOM     11  C   UNL     1      -3.990   1.077  -4.801  0.00  0.00    +0.020 A 
ATOM     12  C   UNL     1      -2.838   0.821  -5.529  0.00  0.00    +0.008 A 
ENDBRANCH   3   7
TORSDOF 1
ENDMDL
MODEL 5
REMARK VINA RESULT:    -3.103      2.973      4.862
REMARK INTER + INTRA:          -3.538
REMARK INTER:                  -3.313
REMARK INTRA:                  -0.225
REMARK UNBOUND:                -0.253
REMARK  Name = Nicotine.pdb
REMARK  2 active torsions:
REMARK  status: ('A' for Active; 'I' for Inactive)
REMARK    1  A    between atoms: C_3  and  C_6
REMARK    2  A    between atoms: N_4  and  C_12
REMARK                            x       y       z     vdW  Elec       q    Type
REMARK                         _______ _______ _______ _____ _____    ______ ____
ROOT
ATOM      1  C   UNL     1      -1.388  -0.230  -5.820  0.00  0.00    +0.017 C 
ATOM      2  C   UNL     1      -2.413   0.935  -5.833  0.00  0.00    +0.025 C 
ATOM      3  C   UNL     1      -1.569   2.134  -6.313  0.00  0.00    +0.088 C 
ATOM      4  N   UNL     1      -0.158   1.819  -6.026  0.00  0.00    -0.298 NA
ATOM      5  C   UNL     1      -0.096   0.496  -5.369  0.00  0.00    +0.085 C 
ATOM      6  C   UNL     1       0.647   1.837  -7.254  0.00  0.00    +0.105 C 
ENDROOT
BRANCH   3   7
ATOM      7  C   UNL     1      -1.979   3.380  -5.570  0.00  0.00    -0.012 A 
ATOM      8  C   UNL     1      -1.214   4.528  -5.656  0.00  0.00    +0.115 A 
ATOM      9  N   UNL     1      -1.566   5.622  -5.009  0.00  0.00    -0.263 NA
ATOM     10  C   UNL     1      -2.651   5.667  -4.261  0.00  0.00    +0.111 A 
ATOM     11  C   UNL     1      -3.465   4.557  -4.128  0.00  0.00    +0.020 A 
ATOM     12  C   UNL     1      -3.130   3.390  -4.798  0.00  0.00    +0.008 A 
ENDBRANCH   3   7
TORSDOF 1
ENDMDL
MODEL 6
REMARK VINA RESULT:    -3.076      3.750      5.788
REMARK INTER + INTRA:          -3.509
REMARK INTER:                  -3.313
REMARK INTRA:                  -0.196
REMARK UNBOUND:                -0.253
REMARK  Name = Nicotine.pdb
REMARK  2 active torsions:
REMARK  status: ('A' for Active; 'I' for Inactive)
REMARK    1  A    between atoms: C_3  and  C_6
REMARK    2  A    between atoms: N_4  and  C_12
REMARK                            x       y       z     vdW  Elec       q    Type
REMARK                         _______ _______ _______ _____ _____    ______ ____
ROOT
ATOM      1  C   UNL     1      -2.978  -1.309  -6.990  0.00  0.00    +0.017 C 
ATOM      2  C   UNL     1      -1.540  -1.043  -6.471  0.00  0.00    +0.025 C 
ATOM      3  C   UNL     1      -1.713   0.224  -5.605  0.00  0.00    +0.088 C 
ATOM      4  N   UNL     1      -2.937   0.904  -6.065  0.00  0.00    -0.298 NA
ATOM      5  C   UNL     1      -3.511   0.132  -7.188  0.00  0.00    +0.085 C 
ATOM      6  C   UNL     1      -3.906   1.043  -4.971  0.00  0.00    +0.105 C 
ENDROOT
BRANCH   3   7
ATOM      7  C   UNL     1      -0.523   1.131  -5.781  0.00  0.00    -0.012 A 
ATOM      8  C   UNL     1       0.758   0.611  -5.793  0.00  0.00    +0.115 A 
ATOM      9  N   UNL     1       1.804   1.398  -5.947  0.00  0.00    -0.263 NA
ATOM     10  C   UNL     1       1.675   2.702  -6.094  0.00  0.00    +0.111 A 
ATOM     11  C   UNL     1       0.426   3.294  -6.094  0.00  0.00    +0.020 A 
ATOM     12  C   UNL     1      -0.698   2.497  -5.940  0.00  0.00    +0.008 A 
ENDBRANCH   3   7
TORSDOF 1
ENDMDL
MODEL 7
REMARK VINA RESULT:    -2.973      3.112      3.573
REMARK INTER + INTRA:          -3.400
REMARK INTER:                  -3.186
REMARK INTRA:                  -0.214
REMARK UNBOUND:                -0.253
REMARK  Name = Nicotine.pdb
REMARK  2 active torsions:
REMARK  status: ('A' for Active; 'I' for Inactive)
REMARK    1  A    between atoms: C_3  and  C_6
REMARK    2  A    between atoms: N_4  and  C_12
REMARK                            x       y       z     vdW  Elec       q    Type
REMARK                         _______ _______ _______ _____ _____    ______ ____
ROOT
ATOM      1  C   UNL     1      -1.165   6.329  -5.849  0.00  0.00    +0.017 C 
ATOM      2  C   UNL     1      -0.854   5.023  -6.628  0.00  0.00    +0.025 C 
ATOM      3  C   UNL     1      -1.763   3.984  -5.939  0.00  0.00    +0.088 C 
ATOM      4  N   UNL     1      -2.074   4.499  -4.594  0.00  0.00    -0.298 NA
ATOM      5  C   UNL     1      -1.381   5.792  -4.412  0.00  0.00    +0.085 C 
ATOM      6  C   UNL     1      -3.523   4.647  -4.408  0.00  0.00    +0.105 C 
ENDROOT
BRANCH   3   7
ATOM      7  C   UNL     1      -1.043   2.665  -5.831  0.00  0.00    -0.012 A 
ATOM      8  C   UNL     1       0.335   2.627  -5.730  0.00  0.00    +0.115 A 
ATOM      9  N   UNL     1       0.974   1.477  -5.634  0.00  0.00    -0.263 NA
ATOM     10  C   UNL     1       0.331   0.326  -5.632  0.00  0.00    +0.111 A 
ATOM     11  C   UNL     1      -1.047   0.285  -5.729  0.00  0.00    +0.020 A 
ATOM     12  C   UNL     1      -1.753   1.474  -5.825  0.00  0.00    +0.008 A 
ENDBRANCH   3   7
TORSDOF 1
ENDMDL
MODEL 8
REMARK VINA RESULT:    -2.961     12.570     13.457
REMARK INTER + INTRA:          -3.387
REMARK INTER:                  -3.201
REMARK INTRA:                  -0.186
REMARK UNBOUND:                -0.253
REMARK  Name = Nicotine.pdb
REMARK  2 active torsions:
REMARK  status: ('A' for Active; 'I' for Inactive)
REMARK    1  A    between atoms: C_3  and  C_6
REMARK    2  A    between atoms: N_4  and  C_12
REMARK                            x       y       z     vdW  Elec       q    Type
REMARK                         _______ _______ _______ _____ _____    ______ ____
ROOT
ATOM      1  C   UNL     1       8.373  -5.658  -2.007  0.00  0.00    +0.017 C 
ATOM      2  C   UNL     1       7.534  -6.094  -3.237  0.00  0.00    +0.025 C 
ATOM      3  C   UNL     1       7.411  -4.789  -4.053  0.00  0.00    +0.088 C 
ATOM      4  N   UNL     1       7.628  -3.669  -3.120  0.00  0.00    -0.298 NA
ATOM      5  C   UNL     1       7.853  -4.219  -1.767  0.00  0.00    +0.085 C 
ATOM      6  C   UNL     1       8.762  -2.840  -3.548  0.00  0.00    +0.105 C 
ENDROOT
BRANCH   3   7
ATOM      7  C   UNL     1       6.036  -4.693  -4.661  0.00  0.00    -0.012 A 
ATOM      8  C   UNL     1       5.344  -5.837  -5.011  0.00  0.00    +0.115 A 
ATOM      9  N   UNL     1       4.140  -5.762  -5.544  0.00  0.00    -0.263 NA
ATOM     10  C   UNL     1       3.552  -4.603  -5.764  0.00  0.00    +0.111 A 
ATOM     11  C   UNL     1       4.182  -3.416  -5.440  0.00  0.00    +0.020 A 
ATOM     12  C   UNL     1       5.446  -3.456  -4.873  0.00  0.00    +0.008 A 
ENDBRANCH   3   7
TORSDOF 1
ENDMDL
MODEL 9
REMARK VINA RESULT:    -2.791     12.736     13.878
REMARK INTER + INTRA:          -3.208
REMARK INTER:                  -2.997
REMARK INTRA:                  -0.211
REMARK UNBOUND:                -0.253
REMARK  Name = Nicotine.pdb
REMARK  2 active torsions:
REMARK  status: ('A' for Active; 'I' for Inactive)
REMARK    1  A    between atoms: C_3  and  C_6
REMARK    2  A    between atoms: N_4  and  C_12
REMARK                            x       y       z     vdW  Elec       q    Type
REMARK                         _______ _______ _______ _____ _____    ______ ____
ROOT
ATOM      1  C   UNL     1       3.987  -3.882  -5.698  0.00  0.00    +0.017 C 
ATOM      2  C   UNL     1       5.177  -3.179  -4.992  0.00  0.00    +0.025 C 
ATOM      3  C   UNL     1       6.335  -4.182  -5.181  0.00  0.00    +0.088 C 
ATOM      4  N   UNL     1       5.731  -5.505  -5.421  0.00  0.00    -0.298 NA
ATOM      5  C   UNL     1       4.260  -5.370  -5.364  0.00  0.00    +0.085 C 
ATOM      6  C   UNL     1       6.160  -6.053  -6.715  0.00  0.00    +0.105 C 
ENDROOT
BRANCH   3   7
ATOM      7  C   UNL     1       7.186  -4.223  -3.939  0.00  0.00    -0.012 A 
ATOM      8  C   UNL     1       7.990  -3.149  -3.607  0.00  0.00    +0.115 A 
ATOM      9  N   UNL     1       8.738  -3.176  -2.521  0.00  0.00    -0.263 NA
ATOM     10  C   UNL     1       8.751  -4.219  -1.715  0.00  0.00    +0.111 A 
ATOM     11  C   UNL     1       7.973  -5.330  -1.982  0.00  0.00    +0.020 A 
ATOM     12  C   UNL     1       7.169  -5.335  -3.112  0.00  0.00    +0.008 A 
ENDBRANCH   3   7
TORSDOF 1
ENDMDL
