MODEL 1
REMARK VINA RESULT:    -3.327      0.000      0.000
REMARK INTER + INTRA:          -3.736
REMARK INTER:                  -3.522
REMARK INTRA:                  -0.214
REMARK UNBOUND:                -0.214
REMARK  Name = Nicotine.pdb
REMARK  2 active torsions:
REMARK  status: ('A' for Active; 'I' for Inactive)
REMARK    1  A    between atoms: C_3  and  C_6
REMARK    2  A    between atoms: N_4  and  C_12
REMARK                            x       y       z     vdW  Elec       q    Type
REMARK                         _______ _______ _______ _____ _____    ______ ____
ROOT
ATOM      1  C   UNL     1      10.664  -3.953   3.023  0.00  0.00    +0.017 C 
ATOM      2  C   UNL     1      10.954  -2.437   3.187  0.00  0.00    +0.025 C 
ATOM      3  C   UNL     1      10.933  -2.243   4.718  0.00  0.00    +0.088 C 
ATOM      4  N   UNL     1      10.150  -3.354   5.289  0.00  0.00    -0.298 NA
ATOM      5  C   UNL     1       9.667  -4.207   4.182  0.00  0.00    +0.085 C 
ATOM      6  C   UNL     1      10.954  -4.131   6.241  0.00  0.00    +0.105 C 
ENDROOT
BRANCH   3   7
ATOM      7  C   UNL     1      10.283  -0.928   5.059  0.00  0.00    -0.012 A 
ATOM      8  C   UNL     1      10.882   0.263   4.695  0.00  0.00    +0.115 A 
ATOM      9  N   UNL     1      10.320   1.419   4.990  0.00  0.00    -0.263 NA
ATOM     10  C   UNL     1       9.174   1.487   5.638  0.00  0.00    +0.111 A 
ATOM     11  C   UNL     1       8.515   0.338   6.034  0.00  0.00    +0.020 A 
ATOM     12  C   UNL     1       9.074  -0.896   5.737  0.00  0.00    +0.008 A 
ENDBRANCH   3   7
TORSDOF 1
ENDMDL
MODEL 2
REMARK VINA RESULT:    -3.103      1.596      4.662
REMARK INTER + INTRA:          -3.498
REMARK INTER:                  -3.290
REMARK INTRA:                  -0.208
REMARK UNBOUND:                -0.214
REMARK  Name = Nicotine.pdb
REMARK  2 active torsions:
REMARK  status: ('A' for Active; 'I' for Inactive)
REMARK    1  A    between atoms: C_3  and  C_6
REMARK    2  A    between atoms: N_4  and  C_12
REMARK                            x       y       z     vdW  Elec       q    Type
REMARK                         _______ _______ _______ _____ _____    ______ ____
ROOT
ATOM      1  C   UNL     1       8.349   0.682   5.429  0.00  0.00    +0.017 C 
ATOM      2  C   UNL     1       8.739  -0.580   6.244  0.00  0.00    +0.025 C 
ATOM      3  C   UNL     1       9.888  -1.189   5.413  0.00  0.00    +0.088 C 
ATOM      4  N   UNL     1       9.748  -0.682   4.036  0.00  0.00    -0.298 NA
ATOM      5  C   UNL     1       8.555   0.190   3.974  0.00  0.00    +0.085 C 
ATOM      6  C   UNL     1      10.954   0.045   3.618  0.00  0.00    +0.105 C 
ENDROOT
BRANCH   3   7
ATOM      7  C   UNL     1       9.784  -2.692   5.419  0.00  0.00    -0.012 A 
ATOM      8  C   UNL     1       8.704  -3.316   6.015  0.00  0.00    +0.115 A 
ATOM      9  N   UNL     1       8.605  -4.631   6.025  0.00  0.00    -0.263 NA
ATOM     10  C   UNL     1       9.523  -5.399   5.473  0.00  0.00    +0.111 A 
ATOM     11  C   UNL     1      10.631  -4.847   4.858  0.00  0.00    +0.020 A 
ATOM     12  C   UNL     1      10.767  -3.468   4.823  0.00  0.00    +0.008 A 
ENDBRANCH   3   7
TORSDOF 1
ENDMDL
MODEL 3
REMARK VINA RESULT:    -3.076     11.354     12.286
REMARK INTER + INTRA:          -3.469
REMARK INTER:                  -3.242
REMARK INTRA:                  -0.227
REMARK UNBOUND:                -0.214
REMARK  Name = Nicotine.pdb
REMARK  2 active torsions:
REMARK  status: ('A' for Active; 'I' for Inactive)
REMARK    1  A    between atoms: C_3  and  C_6
REMARK    2  A    between atoms: N_4  and  C_12
REMARK                            x       y       z     vdW  Elec       q    Type
REMARK                         _______ _______ _______ _____ _____    ______ ____
ROOT
ATOM      1  C   UNL     1      10.434   1.142  -6.201  0.00  0.00    +0.017 C 
ATOM      2  C   UNL     1       9.178   1.945  -5.770  0.00  0.00    +0.025 C 
ATOM      3  C   UNL     1       8.078   0.864  -5.711  0.00  0.00    +0.088 C 
ATOM      4  N   UNL     1       8.517  -0.253  -6.567  0.00  0.00    -0.298 NA
ATOM      5  C   UNL     1       9.820   0.099  -7.169  0.00  0.00    +0.085 C 
ATOM      6  C   UNL     1       8.611  -1.501  -5.798  0.00  0.00    +0.105 C 
ENDROOT
BRANCH   3   7
ATOM      7  C   UNL     1       6.779   1.426  -6.226  0.00  0.00    -0.012 A 
ATOM      8  C   UNL     1       5.698   0.595  -6.452  0.00  0.00    +0.115 A 
ATOM      9  N   UNL     1       4.557   1.080  -6.903  0.00  0.00    -0.263 NA
ATOM     10  C   UNL     1       4.400   2.364  -7.155  0.00  0.00    +0.111 A 
ATOM     11  C   UNL     1       5.437   3.256  -6.952  0.00  0.00    +0.020 A 
ATOM     12  C   UNL     1       6.650   2.784  -6.474  0.00  0.00    +0.008 A 
ENDBRANCH   3   7
TORSDOF 1
ENDMDL
MODEL 4
REMARK VINA RESULT:    -3.026     10.442     11.092
REMARK INTER + INTRA:          -3.417
REMARK INTER:                  -3.198
REMARK INTRA:                  -0.218
REMARK UNBOUND:                -0.214
REMARK  Name = Nicotine.pdb
REMARK  2 active torsions:
REMARK  status: ('A' for Active; 'I' for Inactive)
REMARK    1  A    between atoms: C_3  and  C_6
REMARK    2  A    between atoms: N_4  and  C_12
REMARK                            x       y       z     vdW  Elec       q    Type
REMARK                         _______ _______ _______ _____ _____    ______ ____
ROOT
ATOM      1  C   UNL     1       7.190  -5.570  -4.910  0.00  0.00    +0.017 C 
ATOM      2  C   UNL     1       6.444  -4.305  -5.412  0.00  0.00    +0.025 C 
ATOM      3  C   UNL     1       7.527  -3.562  -6.222  0.00  0.00    +0.088 C 
ATOM      4  N   UNL     1       8.836  -4.034  -5.737  0.00  0.00    -0.298 NA
ATOM      5  C   UNL     1       8.611  -5.012  -4.651  0.00  0.00    +0.085 C 
ATOM      6  C   UNL     1       9.620  -4.628  -6.827  0.00  0.00    +0.105 C 
ENDROOT
BRANCH   3   7
ATOM      7  C   UNL     1       7.402  -2.076  -6.002  0.00  0.00    -0.012 A 
ATOM      8  C   UNL     1       8.527  -1.306  -5.776  0.00  0.00    +0.115 A 
ATOM      9  N   UNL     1       8.426  -0.005  -5.583  0.00  0.00    -0.263 NA
ATOM     10  C   UNL     1       7.260   0.609  -5.597  0.00  0.00    +0.111 A 
ATOM     11  C   UNL     1       6.091  -0.096  -5.818  0.00  0.00    +0.020 A 
ATOM     12  C   UNL     1       6.158  -1.464  -6.030  0.00  0.00    +0.008 A 
ENDBRANCH   3   7
TORSDOF 1
ENDMDL
MODEL 5
REMARK VINA RESULT:    -2.937     10.543     11.795
REMARK INTER + INTRA:          -3.322
REMARK INTER:                  -3.136
REMARK INTRA:                  -0.186
REMARK UNBOUND:                -0.214
REMARK  Name = Nicotine.pdb
REMARK  2 active torsions:
REMARK  status: ('A' for Active; 'I' for Inactive)
REMARK    1  A    between atoms: C_3  and  C_6
REMARK    2  A    between atoms: N_4  and  C_12
REMARK                            x       y       z     vdW  Elec       q    Type
REMARK                         _______ _______ _______ _____ _____    ______ ____
ROOT
ATOM      1  C   UNL     1       8.501   0.524  -5.771  0.00  0.00    +0.017 C 
ATOM      2  C   UNL     1       8.898  -0.929  -6.143  0.00  0.00    +0.025 C 
ATOM      3  C   UNL     1       7.537  -1.598  -6.429  0.00  0.00    +0.088 C 
ATOM      4  N   UNL     1       6.507  -0.807  -5.732  0.00  0.00    -0.298 NA
ATOM      5  C   UNL     1       7.170   0.300  -5.011  0.00  0.00    +0.085 C 
ATOM      6  C   UNL     1       5.506  -0.296  -6.677  0.00  0.00    +0.105 C 
ENDROOT
BRANCH   3   7
ATOM      7  C   UNL     1       7.541  -3.011  -5.908  0.00  0.00    -0.012 A 
ATOM      8  C   UNL     1       8.734  -3.650  -5.628  0.00  0.00    +0.115 A 
ATOM      9  N   UNL     1       8.746  -4.887  -5.171  0.00  0.00    -0.263 NA
ATOM     10  C   UNL     1       7.632  -5.561  -4.964  0.00  0.00    +0.111 A 
ATOM     11  C   UNL     1       6.401  -4.987  -5.220  0.00  0.00    +0.020 A 
ATOM     12  C   UNL     1       6.348  -3.686  -5.697  0.00  0.00    +0.008 A 
ENDBRANCH   3   7
TORSDOF 1
ENDMDL
MODEL 6
REMARK VINA RESULT:    -2.846     10.770     12.121
REMARK INTER + INTRA:          -3.226
REMARK INTER:                  -2.973
REMARK INTRA:                  -0.253
REMARK UNBOUND:                -0.214
REMARK  Name = Nicotine.pdb
REMARK  2 active torsions:
REMARK  status: ('A' for Active; 'I' for Inactive)
REMARK    1  A    between atoms: C_3  and  C_6
REMARK    2  A    between atoms: N_4  and  C_12
REMARK                            x       y       z     vdW  Elec       q    Type
REMARK                         _______ _______ _______ _____ _____    ______ ____
ROOT
ATOM      1  C   UNL     1       7.150   1.572  -5.794  0.00  0.00    +0.017 C 
ATOM      2  C   UNL     1       7.203   0.214  -5.045  0.00  0.00    +0.025 C 
ATOM      3  C   UNL     1       8.380  -0.513  -5.728  0.00  0.00    +0.088 C 
ATOM      4  N   UNL     1       8.561   0.099  -7.057  0.00  0.00    -0.298 NA
ATOM      5  C   UNL     1       7.537   1.151  -7.234  0.00  0.00    +0.085 C 
ATOM      6  C   UNL     1       9.914   0.652  -7.203  0.00  0.00    +0.105 C 
ENDROOT
BRANCH   3   7
ATOM      7  C   UNL     1       8.061  -1.978  -5.877  0.00  0.00    -0.012 A 
ATOM      8  C   UNL     1       9.058  -2.927  -5.757  0.00  0.00    +0.115 A 
ATOM      9  N   UNL     1       8.787  -4.211  -5.885  0.00  0.00    -0.263 NA
ATOM     10  C   UNL     1       7.565  -4.640  -6.132  0.00  0.00    +0.111 A 
ATOM     11  C   UNL     1       6.516  -3.750  -6.265  0.00  0.00    +0.020 A 
ATOM     12  C   UNL     1       6.762  -2.392  -6.131  0.00  0.00    +0.008 A 
ENDBRANCH   3   7
TORSDOF 1
ENDMDL
MODEL 7
REMARK VINA RESULT:    -2.777     11.720     12.588
REMARK INTER + INTRA:          -3.153
REMARK INTER:                  -2.941
REMARK INTRA:                  -0.212
REMARK UNBOUND:                -0.214
REMARK  Name = Nicotine.pdb
REMARK  2 active torsions:
REMARK  status: ('A' for Active; 'I' for Inactive)
REMARK    1  A    between atoms: C_3  and  C_6
REMARK    2  A    between atoms: N_4  and  C_12
REMARK                            x       y       z     vdW  Elec       q    Type
REMARK                         _______ _______ _______ _____ _____    ______ ____
ROOT
ATOM      1  C   UNL     1       6.605  -1.360  -5.776  0.00  0.00    +0.017 C 
ATOM      2  C   UNL     1       7.090   0.016  -5.249  0.00  0.00    +0.025 C 
ATOM      3  C   UNL     1       6.196   1.015  -6.014  0.00  0.00    +0.088 C 
ATOM      4  N   UNL     1       5.712   0.329  -7.226  0.00  0.00    -0.298 NA
ATOM      5  C   UNL     1       6.285  -1.033  -7.256  0.00  0.00    +0.085 C 
ATOM      6  C   UNL     1       4.244   0.285  -7.256  0.00  0.00    +0.105 C 
ENDROOT
BRANCH   3   7
ATOM      7  C   UNL     1       6.999   2.231  -6.397  0.00  0.00    -0.012 A 
ATOM      8  C   UNL     1       8.372   2.241  -6.240  0.00  0.00    +0.115 A 
ATOM      9  N   UNL     1       9.082   3.301  -6.574  0.00  0.00    -0.263 NA
ATOM     10  C   UNL     1       8.517   4.386  -7.066  0.00  0.00    +0.111 A 
ATOM     11  C   UNL     1       7.149   4.450  -7.251  0.00  0.00    +0.020 A 
ATOM     12  C   UNL     1       6.370   3.353  -6.917  0.00  0.00    +0.008 A 
ENDBRANCH   3   7
TORSDOF 1
ENDMDL
MODEL 8
REMARK VINA RESULT:    -2.564     11.219     11.819
REMARK INTER + INTRA:          -2.927
REMARK INTER:                  -2.711
REMARK INTRA:                  -0.216
REMARK UNBOUND:                -0.214
REMARK  Name = Nicotine.pdb
REMARK  2 active torsions:
REMARK  status: ('A' for Active; 'I' for Inactive)
REMARK    1  A    between atoms: C_3  and  C_6
REMARK    2  A    between atoms: N_4  and  C_12
REMARK                            x       y       z     vdW  Elec       q    Type
REMARK                         _______ _______ _______ _____ _____    ______ ____
ROOT
ATOM      1  C   UNL     1       8.566  -2.118  -6.485  0.00  0.00    +0.017 C 
ATOM      2  C   UNL     1       9.327  -0.870  -5.964  0.00  0.00    +0.025 C 
ATOM      3  C   UNL     1       8.189   0.124  -5.651  0.00  0.00    +0.088 C 
ATOM      4  N   UNL     1       7.018  -0.286  -6.447  0.00  0.00    -0.298 NA
ATOM      5  C   UNL     1       7.389  -1.469  -7.254  0.00  0.00    +0.085 C 
ATOM      6  C   UNL     1       5.868  -0.578  -5.581  0.00  0.00    +0.105 C 
ENDROOT
BRANCH   3   7
ATOM      7  C   UNL     1       8.607   1.520  -6.034  0.00  0.00    -0.012 A 
ATOM      8  C   UNL     1       7.678   2.419  -6.523  0.00  0.00    +0.115 A 
ATOM      9  N   UNL     1       8.036   3.642  -6.860  0.00  0.00    -0.263 NA
ATOM     10  C   UNL     1       9.283   4.056  -6.748  0.00  0.00    +0.111 A 
ATOM     11  C   UNL     1      10.267   3.213  -6.266  0.00  0.00    +0.020 A 
ATOM     12  C   UNL     1       9.927   1.921  -5.896  0.00  0.00    +0.008 A 
ENDBRANCH   3   7
TORSDOF 1
ENDMDL
