MODEL 1
REMARK VINA RESULT:    -2.822      0.000      0.000
REMARK INTER + INTRA:          -3.194
REMARK INTER:                  -2.987
REMARK INTRA:                  -0.206
REMARK UNBOUND:                -0.206
REMARK  Name = Nicotine.pdb
REMARK  2 active torsions:
REMARK  status: ('A' for Active; 'I' for Inactive)
REMARK    1  A    between atoms: C_3  and  C_6
REMARK    2  A    between atoms: N_4  and  C_12
REMARK                            x       y       z     vdW  Elec       q    Type
REMARK                         _______ _______ _______ _____ _____    ______ ____
ROOT
ATOM      1  C   UNL     1       3.535  -2.771   3.214  0.00  0.00    +0.017 C 
ATOM      2  C   UNL     1       3.176  -1.369   3.772  0.00  0.00    +0.025 C 
ATOM      3  C   UNL     1       2.720  -1.676   5.215  0.00  0.00    +0.088 C 
ATOM      4  N   UNL     1       2.312  -3.092   5.252  0.00  0.00    -0.298 NA
ATOM      5  C   UNL     1       2.469  -3.663   3.898  0.00  0.00    +0.085 C 
ATOM      6  C   UNL     1       3.102  -3.843   6.236  0.00  0.00    +0.105 C 
ENDROOT
BRANCH   3   7
ATOM      7  C   UNL     1       1.555  -0.795   5.584  0.00  0.00    -0.012 A 
ATOM      8  C   UNL     1       0.284  -1.325   5.690  0.00  0.00    +0.115 A 
ATOM      9  N   UNL     1      -0.742  -0.561   6.012  0.00  0.00    -0.263 NA
ATOM     10  C   UNL     1      -0.598   0.729   6.244  0.00  0.00    +0.111 A 
ATOM     11  C   UNL     1       0.644   1.330   6.157  0.00  0.00    +0.020 A 
ATOM     12  C   UNL     1       1.746   0.557   5.826  0.00  0.00    +0.008 A 
ENDBRANCH   3   7
TORSDOF 1
ENDMDL
