MODEL 1
REMARK VINA RESULT:    -2.203      0.000      0.000
REMARK INTER + INTRA:          -2.524
REMARK INTER:                  -2.332
REMARK INTRA:                  -0.192
REMARK UNBOUND:                -0.192
REMARK  Name = Nicotine.pdb
REMARK  2 active torsions:
REMARK  status: ('A' for Active; 'I' for Inactive)
REMARK    1  A    between atoms: C_3  and  C_6
REMARK    2  A    between atoms: N_4  and  C_12
REMARK                            x       y       z     vdW  Elec       q    Type
REMARK                         _______ _______ _______ _____ _____    ______ ____
ROOT
ATOM      1  C   UNL     1      10.947  -5.712  -2.164  0.00  0.00    +0.017 C 
ATOM      2  C   UNL     1      10.948  -5.419  -3.687  0.00  0.00    +0.025 C 
ATOM      3  C   UNL     1      10.747  -3.890  -3.746  0.00  0.00    +0.088 C 
ATOM      4  N   UNL     1      10.121  -3.482  -2.476  0.00  0.00    -0.298 NA
ATOM      5  C   UNL     1       9.904  -4.688  -1.649  0.00  0.00    +0.085 C 
ATOM      6  C   UNL     1      10.954  -2.501  -1.769  0.00  0.00    +0.105 C 
ENDROOT
BRANCH   3   7
ATOM      7  C   UNL     1       9.845  -3.536  -4.900  0.00  0.00    -0.012 A 
ATOM      8  C   UNL     1      10.382  -3.145  -6.113  0.00  0.00    +0.115 A 
ATOM      9  N   UNL     1       9.600  -2.834  -7.128  0.00  0.00    -0.263 NA
ATOM     10  C   UNL     1       8.286  -2.881  -7.031  0.00  0.00    +0.111 A 
ATOM     11  C   UNL     1       7.677  -3.263  -5.850  0.00  0.00    +0.020 A 
ATOM     12  C   UNL     1       8.467  -3.603  -4.762  0.00  0.00    +0.008 A 
ENDBRANCH   3   7
TORSDOF 1
ENDMDL
MODEL 2
REMARK VINA RESULT:    -1.867      2.223      3.152
REMARK INTER + INTRA:          -2.168
REMARK INTER:                  -1.953
REMARK INTRA:                  -0.216
REMARK UNBOUND:                -0.192
REMARK  Name = Nicotine.pdb
REMARK  2 active torsions:
REMARK  status: ('A' for Active; 'I' for Inactive)
REMARK    1  A    between atoms: C_3  and  C_6
REMARK    2  A    between atoms: N_4  and  C_12
REMARK                            x       y       z     vdW  Elec       q    Type
REMARK                         _______ _______ _______ _____ _____    ______ ____
ROOT
ATOM      1  C   UNL     1       9.477  -6.055   0.404  0.00  0.00    +0.017 C 
ATOM      2  C   UNL     1      10.282  -6.007  -0.921  0.00  0.00    +0.025 C 
ATOM      3  C   UNL     1      10.935  -4.610  -0.881  0.00  0.00    +0.088 C 
ATOM      4  N   UNL     1      10.130  -3.777   0.031  0.00  0.00    -0.298 NA
ATOM      5  C   UNL     1       8.999  -4.587   0.533  0.00  0.00    +0.085 C 
ATOM      6  C   UNL     1      10.946  -3.268   1.140  0.00  0.00    +0.105 C 
ENDROOT
BRANCH   3   7
ATOM      7  C   UNL     1      10.939  -4.005  -2.261  0.00  0.00    -0.012 A 
ATOM      8  C   UNL     1      10.951  -2.632  -2.422  0.00  0.00    +0.115 A 
ATOM      9  N   UNL     1      10.954  -2.095  -3.627  0.00  0.00    -0.263 NA
ATOM     10  C   UNL     1      10.946  -2.837  -4.717  0.00  0.00    +0.111 A 
ATOM     11  C   UNL     1      10.934  -4.217  -4.633  0.00  0.00    +0.020 A 
ATOM     12  C   UNL     1      10.936  -4.817  -3.384  0.00  0.00    +0.008 A 
ENDBRANCH   3   7
TORSDOF 1
ENDMDL
MODEL 3
REMARK VINA RESULT:    -0.287      1.001      4.578
REMARK INTER + INTRA:          -0.496
REMARK INTER:                  -0.292
REMARK INTRA:                  -0.203
REMARK UNBOUND:                -0.192
REMARK  Name = Nicotine.pdb
REMARK  2 active torsions:
REMARK  status: ('A' for Active; 'I' for Inactive)
REMARK    1  A    between atoms: C_3  and  C_6
REMARK    2  A    between atoms: N_4  and  C_12
REMARK                            x       y       z     vdW  Elec       q    Type
REMARK                         _______ _______ _______ _____ _____    ______ ____
ROOT
ATOM      1  C   UNL     1       7.768  -2.902  -6.580  0.00  0.00    +0.017 C 
ATOM      2  C   UNL     1       8.106  -2.963  -5.067  0.00  0.00    +0.025 C 
ATOM      3  C   UNL     1       9.648  -3.027  -5.058  0.00  0.00    +0.088 C 
ATOM      4  N   UNL     1      10.072  -3.537  -6.374  0.00  0.00    -0.298 NA
ATOM      5  C   UNL     1       8.865  -3.814  -7.183  0.00  0.00    +0.085 C 
ATOM      6  C   UNL     1      10.953  -2.578  -7.053  0.00  0.00    +0.105 C 
ENDROOT
BRANCH   3   7
ATOM      7  C   UNL     1      10.116  -3.959  -3.970  0.00  0.00    -0.012 A 
ATOM      8  C   UNL     1      10.142  -3.540  -2.654  0.00  0.00    +0.115 A 
ATOM      9  N   UNL     1      10.550  -4.349  -1.696  0.00  0.00    -0.263 NA
ATOM     10  C   UNL     1      10.947  -5.580  -1.951  0.00  0.00    +0.111 A 
ATOM     11  C   UNL     1      10.948  -6.070  -3.243  0.00  0.00    +0.020 A 
ATOM     12  C   UNL     1      10.520  -5.250  -4.276  0.00  0.00    +0.008 A 
ENDBRANCH   3   7
TORSDOF 1
ENDMDL
MODEL 4
REMARK VINA RESULT:     0.520      1.204      4.534
REMARK INTER + INTRA:           0.358
REMARK INTER:                   0.568
REMARK INTRA:                  -0.210
REMARK UNBOUND:                -0.192
REMARK  Name = Nicotine.pdb
REMARK  2 active torsions:
REMARK  status: ('A' for Active; 'I' for Inactive)
REMARK    1  A    between atoms: C_3  and  C_6
REMARK    2  A    between atoms: N_4  and  C_12
REMARK                            x       y       z     vdW  Elec       q    Type
REMARK                         _______ _______ _______ _____ _____    ______ ____
ROOT
ATOM      1  C   UNL     1      10.183  -3.120  -7.052  0.00  0.00    +0.017 C 
ATOM      2  C   UNL     1      10.889  -3.767  -5.832  0.00  0.00    +0.025 C 
ATOM      3  C   UNL     1       9.723  -4.030  -4.856  0.00  0.00    +0.088 C 
ATOM      4  N   UNL     1       8.627  -3.116  -5.226  0.00  0.00    -0.298 NA
ATOM      5  C   UNL     1       9.072  -2.286  -6.366  0.00  0.00    +0.085 C 
ATOM      6  C   UNL     1       7.408  -3.863  -5.563  0.00  0.00    +0.105 C 
ENDROOT
BRANCH   3   7
ATOM      7  C   UNL     1      10.165  -3.756  -3.442  0.00  0.00    -0.012 A 
ATOM      8  C   UNL     1      10.193  -4.774  -2.508  0.00  0.00    +0.115 A 
ATOM      9  N   UNL     1      10.580  -4.542  -1.268  0.00  0.00    -0.263 NA
ATOM     10  C   UNL     1      10.951  -3.341  -0.871  0.00  0.00    +0.111 A 
ATOM     11  C   UNL     1      10.949  -2.274  -1.749  0.00  0.00    +0.020 A 
ATOM     12  C   UNL     1      10.554  -2.480  -3.062  0.00  0.00    +0.008 A 
ENDBRANCH   3   7
TORSDOF 1
ENDMDL
