MODEL 1
REMARK VINA RESULT:     9.097      0.000      0.000
REMARK INTER + INTRA:           9.442
REMARK INTER:                   9.628
REMARK INTRA:                  -0.187
REMARK UNBOUND:                -0.187
REMARK  Name = Nicotine.pdb
REMARK  2 active torsions:
REMARK  status: ('A' for Active; 'I' for Inactive)
REMARK    1  A    between atoms: C_3  and  C_6
REMARK    2  A    between atoms: N_4  and  C_12
REMARK                            x       y       z     vdW  Elec       q    Type
REMARK                         _______ _______ _______ _____ _____    ______ ____
ROOT
ATOM      1  C   UNL     1      10.954   6.796   0.990  0.00  0.00    +0.017 C 
ATOM      2  C   UNL     1      10.899   5.254   1.154  0.00  0.00    +0.025 C 
ATOM      3  C   UNL     1      10.679   4.759  -0.291  0.00  0.00    +0.088 C 
ATOM      4  N   UNL     1      10.092   5.878  -1.052  0.00  0.00    -0.298 NA
ATOM      5  C   UNL     1       9.918   7.028  -0.139  0.00  0.00    +0.085 C 
ATOM      6  C   UNL     1      10.939   6.237  -2.197  0.00  0.00    +0.105 C 
ENDROOT
BRANCH   3   7
ATOM      7  C   UNL     1       9.734   3.586  -0.293  0.00  0.00    -0.012 A 
ATOM      8  C   UNL     1       9.725   2.694   0.763  0.00  0.00    +0.115 A 
ATOM      9  N   UNL     1       8.901   1.664   0.770  0.00  0.00    -0.263 NA
ATOM     10  C   UNL     1       8.060   1.444  -0.220  0.00  0.00    +0.111 A 
ATOM     11  C   UNL     1       8.011   2.293  -1.310  0.00  0.00    +0.020 A 
ATOM     12  C   UNL     1       8.858   3.389  -1.350  0.00  0.00    +0.008 A 
ENDBRANCH   3   7
TORSDOF 1
ENDMDL
MODEL 2
REMARK VINA RESULT:     9.553      1.306      4.843
REMARK INTER + INTRA:           9.925
REMARK INTER:                  10.126
REMARK INTRA:                  -0.201
REMARK UNBOUND:                -0.187
REMARK  Name = Nicotine.pdb
REMARK  2 active torsions:
REMARK  status: ('A' for Active; 'I' for Inactive)
REMARK    1  A    between atoms: C_3  and  C_6
REMARK    2  A    between atoms: N_4  and  C_12
REMARK                            x       y       z     vdW  Elec       q    Type
REMARK                         _______ _______ _______ _____ _____    ______ ____
ROOT
ATOM      1  C   UNL     1       6.281   1.882  -1.235  0.00  0.00    +0.017 C 
ATOM      2  C   UNL     1       7.450   2.854  -1.541  0.00  0.00    +0.025 C 
ATOM      3  C   UNL     1       8.623   2.250  -0.739  0.00  0.00    +0.088 C 
ATOM      4  N   UNL     1       8.039   1.419   0.330  0.00  0.00    -0.298 NA
ATOM      5  C   UNL     1       6.566   1.503   0.240  0.00  0.00    +0.085 C 
ATOM      6  C   UNL     1       8.495   0.027   0.224  0.00  0.00    +0.105 C 
ENDROOT
BRANCH   3   7
ATOM      7  C   UNL     1       9.454   3.353  -0.136  0.00  0.00    -0.012 A 
ATOM      8  C   UNL     1       9.844   4.434  -0.904  0.00  0.00    +0.115 A 
ATOM      9  N   UNL     1      10.572   5.403  -0.385  0.00  0.00    -0.263 NA
ATOM     10  C   UNL     1      10.954   5.383   0.877  0.00  0.00    +0.111 A 
ATOM     11  C   UNL     1      10.601   4.335   1.707  0.00  0.00    +0.020 A 
ATOM     12  C   UNL     1       9.832   3.300   1.197  0.00  0.00    +0.008 A 
ENDBRANCH   3   7
TORSDOF 1
ENDMDL
MODEL 3
REMARK VINA RESULT:    10.528      1.909      5.274
REMARK INTER + INTRA:          10.957
REMARK INTER:                  11.129
REMARK INTRA:                  -0.171
REMARK UNBOUND:                -0.187
REMARK  Name = Nicotine.pdb
REMARK  2 active torsions:
REMARK  status: ('A' for Active; 'I' for Inactive)
REMARK    1  A    between atoms: C_3  and  C_6
REMARK    2  A    between atoms: N_4  and  C_12
REMARK                            x       y       z     vdW  Elec       q    Type
REMARK                         _______ _______ _______ _____ _____    ______ ____
ROOT
ATOM      1  C   UNL     1       6.413  -0.437  -0.716  0.00  0.00    +0.017 C 
ATOM      2  C   UNL     1       7.758   0.099  -0.158  0.00  0.00    +0.025 C 
ATOM      3  C   UNL     1       7.381   1.500   0.370  0.00  0.00    +0.088 C 
ATOM      4  N   UNL     1       6.155   1.917  -0.336  0.00  0.00    -0.298 NA
ATOM      5  C   UNL     1       5.775   0.853  -1.289  0.00  0.00    +0.085 C 
ATOM      6  C   UNL     1       5.068   2.188   0.613  0.00  0.00    +0.105 C 
ENDROOT
BRANCH   3   7
ATOM      7  C   UNL     1       8.495   2.473   0.084  0.00  0.00    -0.012 A 
ATOM      8  C   UNL     1       8.587   3.087  -1.151  0.00  0.00    +0.115 A 
ATOM      9  N   UNL     1       9.559   3.940  -1.409  0.00  0.00    -0.263 NA
ATOM     10  C   UNL     1      10.475   4.239  -0.510  0.00  0.00    +0.111 A 
ATOM     11  C   UNL     1      10.448   3.665   0.747  0.00  0.00    +0.020 A 
ATOM     12  C   UNL     1       9.437   2.768   1.057  0.00  0.00    +0.008 A 
ENDBRANCH   3   7
TORSDOF 1
ENDMDL
