MODEL 1
REMARK VINA RESULT:     0.000      0.000      0.000
REMARK INTER + INTRA:          -0.256
REMARK INTER:                   0.000
REMARK INTRA:                  -0.256
REMARK UNBOUND:                -0.256
REMARK  Name = Nicotine.pdb
REMARK  2 active torsions:
REMARK  status: ('A' for Active; 'I' for Inactive)
REMARK    1  A    between atoms: C_3  and  C_6
REMARK    2  A    between atoms: N_4  and  C_12
REMARK                            x       y       z     vdW  Elec       q    Type
REMARK                         _______ _______ _______ _____ _____    ______ ____
ROOT
ATOM      1  C   UNL     1       5.221  -2.281  -1.406  0.00  0.00    +0.017 C 
ATOM      2  C   UNL     1       6.719  -1.908  -1.254  0.00  0.00    +0.025 C 
ATOM      3  C   UNL     1       6.727  -1.007  -0.001  0.00  0.00    +0.088 C 
ATOM      4  N   UNL     1       5.364  -0.468   0.158  0.00  0.00    -0.298 NA
ATOM      5  C   UNL     1       4.525  -0.974  -0.949  0.00  0.00    +0.085 C 
ATOM      6  C   UNL     1       4.799  -0.842   1.461  0.00  0.00    +0.105 C 
ENDROOT
BRANCH   3   7
ATOM      7  C   UNL     1       7.707   0.123  -0.188  0.00  0.00    -0.012 A 
ATOM      8  C   UNL     1       8.221   0.791   0.907  0.00  0.00    +0.115 A 
ATOM      9  N   UNL     1       9.079   1.780   0.752  0.00  0.00    -0.263 NA
ATOM     10  C   UNL     1       9.479   2.170  -0.443  0.00  0.00    +0.111 A 
ATOM     11  C   UNL     1       9.009   1.548  -1.584  0.00  0.00    +0.020 A 
ATOM     12  C   UNL     1       8.109   0.500  -1.460  0.00  0.00    +0.008 A 
ENDBRANCH   3   7
TORSDOF 1
ENDMDL
MODEL 2
REMARK VINA RESULT:     0.000      2.007      2.026
REMARK INTER + INTRA:          -0.256
REMARK INTER:                   0.000
REMARK INTRA:                  -0.256
REMARK UNBOUND:                -0.256
REMARK  Name = Nicotine.pdb
REMARK  2 active torsions:
REMARK  status: ('A' for Active; 'I' for Inactive)
REMARK    1  A    between atoms: C_3  and  C_6
REMARK    2  A    between atoms: N_4  and  C_12
REMARK                            x       y       z     vdW  Elec       q    Type
REMARK                         _______ _______ _______ _____ _____    ______ ____
ROOT
ATOM      1  C   UNL     1       5.221  -2.281  -1.406  0.00  0.00    +0.017 C 
ATOM      2  C   UNL     1       6.162  -1.053  -1.515  0.00  0.00    +0.025 C 
ATOM      3  C   UNL     1       6.271  -0.568  -0.054  0.00  0.00    +0.088 C 
ATOM      4  N   UNL     1       5.089  -1.078   0.665  0.00  0.00    -0.298 NA
ATOM      5  C   UNL     1       4.247  -1.831  -0.289  0.00  0.00    +0.085 C 
ATOM      6  C   UNL     1       5.486  -1.923   1.799  0.00  0.00    +0.105 C 
ENDROOT
BRANCH   3   7
ATOM      7  C   UNL     1       6.286   0.938  -0.013  0.00  0.00    -0.012 A 
ATOM      8  C   UNL     1       6.805   1.603   1.082  0.00  0.00    +0.115 A 
ATOM      9  N   UNL     1       6.823   2.921   1.125  0.00  0.00    -0.263 NA
ATOM     10  C   UNL     1       6.351   3.653   0.136  0.00  0.00    +0.111 A 
ATOM     11  C   UNL     1       5.816   3.059  -0.992  0.00  0.00    +0.020 A 
ATOM     12  C   UNL     1       5.786   1.675  -1.075  0.00  0.00    +0.008 A 
ENDBRANCH   3   7
TORSDOF 1
ENDMDL
MODEL 3
REMARK VINA RESULT:     0.000      3.842      6.215
REMARK INTER + INTRA:          -0.256
REMARK INTER:                   0.000
REMARK INTRA:                  -0.256
REMARK UNBOUND:                -0.256
REMARK  Name = Nicotine.pdb
REMARK  2 active torsions:
REMARK  status: ('A' for Active; 'I' for Inactive)
REMARK    1  A    between atoms: C_3  and  C_6
REMARK    2  A    between atoms: N_4  and  C_12
REMARK                            x       y       z     vdW  Elec       q    Type
REMARK                         _______ _______ _______ _____ _____    ______ ____
ROOT
ATOM      1  C   UNL     1       3.674  -1.429  -3.143  0.00  0.00    +0.017 C 
ATOM      2  C   UNL     1       2.327  -0.681  -2.966  0.00  0.00    +0.025 C 
ATOM      3  C   UNL     1       2.770   0.733  -2.532  0.00  0.00    +0.088 C 
ATOM      4  N   UNL     1       4.126   0.612  -1.967  0.00  0.00    -0.298 NA
ATOM      5  C   UNL     1       4.528  -0.810  -2.008  0.00  0.00    +0.085 C 
ATOM      6  C   UNL     1       5.080   1.451  -2.702  0.00  0.00    +0.105 C 
ENDROOT
BRANCH   3   7
ATOM      7  C   UNL     1       1.824   1.269  -1.489  0.00  0.00    -0.012 A 
ATOM      8  C   UNL     1       1.730   2.629  -1.264  0.00  0.00    +0.115 A 
ATOM      9  N   UNL     1       0.904   3.106  -0.353  0.00  0.00    -0.263 NA
ATOM     10  C   UNL     1       0.142   2.314   0.375  0.00  0.00    +0.111 A 
ATOM     11  C   UNL     1       0.182   0.943   0.206  0.00  0.00    +0.020 A 
ATOM     12  C   UNL     1       1.034   0.405  -0.746  0.00  0.00    +0.008 A 
ENDBRANCH   3   7
TORSDOF 1
ENDMDL
MODEL 4
REMARK VINA RESULT:     0.000      4.948      7.670
REMARK INTER + INTRA:          -0.256
REMARK INTER:                   0.000
REMARK INTRA:                  -0.256
REMARK UNBOUND:                -0.256
REMARK  Name = Nicotine.pdb
REMARK  2 active torsions:
REMARK  status: ('A' for Active; 'I' for Inactive)
REMARK    1  A    between atoms: C_3  and  C_6
REMARK    2  A    between atoms: N_4  and  C_12
REMARK                            x       y       z     vdW  Elec       q    Type
REMARK                         _______ _______ _______ _____ _____    ______ ____
ROOT
ATOM      1  C   UNL     1       2.531  -2.582  -2.399  0.00  0.00    +0.017 C 
ATOM      2  C   UNL     1       1.019  -2.336  -2.156  0.00  0.00    +0.025 C 
ATOM      3  C   UNL     1       0.951  -0.814  -1.905  0.00  0.00    +0.088 C 
ATOM      4  N   UNL     1       2.293  -0.382  -1.473  0.00  0.00    -0.298 NA
ATOM      5  C   UNL     1       3.175  -1.567  -1.421  0.00  0.00    +0.085 C 
ATOM      6  C   UNL     1       2.835   0.639  -2.378  0.00  0.00    +0.105 C 
ENDROOT
BRANCH   3   7
ATOM      7  C   UNL     1      -0.057  -0.517  -0.825  0.00  0.00    -0.012 A 
ATOM      8  C   UNL     1      -0.619   0.741  -0.721  0.00  0.00    +0.115 A 
ATOM      9  N   UNL     1      -1.503   1.010   0.220  0.00  0.00    -0.263 NA
ATOM     10  C   UNL     1      -1.883   0.099   1.094  0.00  0.00    +0.111 A 
ATOM     11  C   UNL     1      -1.364  -1.182   1.052  0.00  0.00    +0.020 A 
ATOM     12  C   UNL     1      -0.437  -1.503   0.072  0.00  0.00    +0.008 A 
ENDBRANCH   3   7
TORSDOF 1
ENDMDL
MODEL 5
REMARK VINA RESULT:     0.000      3.881      5.901
REMARK INTER + INTRA:          -0.256
REMARK INTER:                   0.000
REMARK INTRA:                  -0.256
REMARK UNBOUND:                -0.256
REMARK  Name = Nicotine.pdb
REMARK  2 active torsions:
REMARK  status: ('A' for Active; 'I' for Inactive)
REMARK    1  A    between atoms: C_3  and  C_6
REMARK    2  A    between atoms: N_4  and  C_12
REMARK                            x       y       z     vdW  Elec       q    Type
REMARK                         _______ _______ _______ _____ _____    ______ ____
ROOT
ATOM      1  C   UNL     1       4.003   1.540  -0.926  0.00  0.00    +0.017 C 
ATOM      2  C   UNL     1       4.424   0.054  -1.076  0.00  0.00    +0.025 C 
ATOM      3  C   UNL     1       4.807  -0.049  -2.568  0.00  0.00    +0.088 C 
ATOM      4  N   UNL     1       4.123   1.052  -3.271  0.00  0.00    -0.298 NA
ATOM      5  C   UNL     1       3.320   1.811  -2.290  0.00  0.00    +0.085 C 
ATOM      6  C   UNL     1       5.090   1.926  -3.949  0.00  0.00    +0.105 C 
ENDROOT
BRANCH   3   7
ATOM      7  C   UNL     1       4.353  -1.374  -3.124  0.00  0.00    -0.012 A 
ATOM      8  C   UNL     1       4.937  -1.890  -4.265  0.00  0.00    +0.115 A 
ATOM      9  N   UNL     1       4.546  -3.049  -4.757  0.00  0.00    -0.263 NA
ATOM     10  C   UNL     1       3.590  -3.757  -4.189  0.00  0.00    +0.111 A 
ATOM     11  C   UNL     1       2.960  -3.304  -3.044  0.00  0.00    +0.020 A 
ATOM     12  C   UNL     1       3.348  -2.093  -2.494  0.00  0.00    +0.008 A 
ENDBRANCH   3   7
TORSDOF 1
ENDMDL
MODEL 6
REMARK VINA RESULT:     0.000      4.775      5.841
REMARK INTER + INTRA:          -0.256
REMARK INTER:                   0.000
REMARK INTRA:                  -0.256
REMARK UNBOUND:                -0.256
REMARK  Name = Nicotine.pdb
REMARK  2 active torsions:
REMARK  status: ('A' for Active; 'I' for Inactive)
REMARK    1  A    between atoms: C_3  and  C_6
REMARK    2  A    between atoms: N_4  and  C_12
REMARK                            x       y       z     vdW  Elec       q    Type
REMARK                         _______ _______ _______ _____ _____    ______ ____
ROOT
ATOM      1  C   UNL     1       5.761   3.248   1.095  0.00  0.00    +0.017 C 
ATOM      2  C   UNL     1       4.893   4.199   0.228  0.00  0.00    +0.025 C 
ATOM      3  C   UNL     1       3.946   3.228  -0.509  0.00  0.00    +0.088 C 
ATOM      4  N   UNL     1       4.593   1.904  -0.512  0.00  0.00    -0.298 NA
ATOM      5  C   UNL     1       5.903   2.018   0.164  0.00  0.00    +0.085 C 
ATOM      6  C   UNL     1       3.745   0.902   0.146  0.00  0.00    +0.105 C 
ENDROOT
BRANCH   3   7
ATOM      7  C   UNL     1       3.730   3.698  -1.924  0.00  0.00    -0.012 A 
ATOM      8  C   UNL     1       2.621   3.283  -2.637  0.00  0.00    +0.115 A 
ATOM      9  N   UNL     1       2.425   3.690  -3.877  0.00  0.00    -0.263 NA
ATOM     10  C   UNL     1       3.270   4.501  -4.482  0.00  0.00    +0.111 A 
ATOM     11  C   UNL     1       4.401   4.958  -3.832  0.00  0.00    +0.020 A 
ATOM     12  C   UNL     1       4.638   4.556  -2.526  0.00  0.00    +0.008 A 
ENDBRANCH   3   7
TORSDOF 1
ENDMDL
MODEL 7
REMARK VINA RESULT:     0.000      5.719      7.192
REMARK INTER + INTRA:          -0.256
REMARK INTER:                   0.000
REMARK INTRA:                  -0.256
REMARK UNBOUND:                -0.256
REMARK  Name = Nicotine.pdb
REMARK  2 active torsions:
REMARK  status: ('A' for Active; 'I' for Inactive)
REMARK    1  A    between atoms: C_3  and  C_6
REMARK    2  A    between atoms: N_4  and  C_12
REMARK                            x       y       z     vdW  Elec       q    Type
REMARK                         _______ _______ _______ _____ _____    ______ ____
ROOT
ATOM      1  C   UNL     1       0.919   0.608  -1.740  0.00  0.00    +0.017 C 
ATOM      2  C   UNL     1       0.253   1.480  -0.643  0.00  0.00    +0.025 C 
ATOM      3  C   UNL     1       0.879   2.871  -0.878  0.00  0.00    +0.088 C 
ATOM      4  N   UNL     1       2.147   2.663  -1.599  0.00  0.00    -0.298 NA
ATOM      5  C   UNL     1       2.344   1.211  -1.797  0.00  0.00    +0.085 C 
ATOM      6  C   UNL     1       2.146   3.375  -2.884  0.00  0.00    +0.105 C 
ENDROOT
BRANCH   3   7
ATOM      7  C   UNL     1       1.144   3.544   0.444  0.00  0.00    -0.012 A 
ATOM      8  C   UNL     1       1.279   4.917   0.515  0.00  0.00    +0.115 A 
ATOM      9  N   UNL     1       1.510   5.514   1.668  0.00  0.00    -0.263 NA
ATOM     10  C   UNL     1       1.623   4.832   2.791  0.00  0.00    +0.111 A 
ATOM     11  C   UNL     1       1.499   3.456   2.798  0.00  0.00    +0.020 A 
ATOM     12  C   UNL     1       1.250   2.794   1.606  0.00  0.00    +0.008 A 
ENDBRANCH   3   7
TORSDOF 1
ENDMDL
MODEL 8
REMARK VINA RESULT:     0.000      7.617      8.621
REMARK INTER + INTRA:          -0.256
REMARK INTER:                   0.000
REMARK INTRA:                  -0.256
REMARK UNBOUND:                -0.256
REMARK  Name = Nicotine.pdb
REMARK  2 active torsions:
REMARK  status: ('A' for Active; 'I' for Inactive)
REMARK    1  A    between atoms: C_3  and  C_6
REMARK    2  A    between atoms: N_4  and  C_12
REMARK                            x       y       z     vdW  Elec       q    Type
REMARK                         _______ _______ _______ _____ _____    ______ ____
ROOT
ATOM      1  C   UNL     1      -0.930   2.050  -0.201  0.00  0.00    +0.017 C 
ATOM      2  C   UNL     1      -0.930   3.178  -1.267  0.00  0.00    +0.025 C 
ATOM      3  C   UNL     1      -0.982   2.398  -2.597  0.00  0.00    +0.088 C 
ATOM      4  N   UNL     1      -0.474   1.041  -2.328  0.00  0.00    -0.298 NA
ATOM      5  C   UNL     1      -0.089   0.956  -0.904  0.00  0.00    +0.085 C 
ATOM      6  C   UNL     1      -1.481   0.025  -2.664  0.00  0.00    +0.105 C 
ENDROOT
BRANCH   3   7
ATOM      7  C   UNL     1      -0.114   3.078  -3.624  0.00  0.00    -0.012 A 
ATOM      8  C   UNL     1      -0.321   2.855  -4.972  0.00  0.00    +0.115 A 
ATOM      9  N   UNL     1       0.435   3.446  -5.878  0.00  0.00    -0.263 NA
ATOM     10  C   UNL     1       1.410   4.265  -5.539  0.00  0.00    +0.111 A 
ATOM     11  C   UNL     1       1.676   4.537  -4.209  0.00  0.00    +0.020 A 
ATOM     12  C   UNL     1       0.899   3.938  -3.230  0.00  0.00    +0.008 A 
ENDBRANCH   3   7
TORSDOF 1
ENDMDL
MODEL 9
REMARK VINA RESULT:     0.000      9.434     10.559
REMARK INTER + INTRA:          -0.256
REMARK INTER:                   0.000
REMARK INTRA:                  -0.256
REMARK UNBOUND:                -0.256
REMARK  Name = Nicotine.pdb
REMARK  2 active torsions:
REMARK  status: ('A' for Active; 'I' for Inactive)
REMARK    1  A    between atoms: C_3  and  C_6
REMARK    2  A    between atoms: N_4  and  C_12
REMARK                            x       y       z     vdW  Elec       q    Type
REMARK                         _______ _______ _______ _____ _____    ______ ____
ROOT
ATOM      1  C   UNL     1      -1.612   4.806  -1.034  0.00  0.00    +0.017 C 
ATOM      2  C   UNL     1      -1.563   5.593  -2.370  0.00  0.00    +0.025 C 
ATOM      3  C   UNL     1      -2.002   4.540  -3.409  0.00  0.00    +0.088 C 
ATOM      4  N   UNL     1      -1.745   3.213  -2.822  0.00  0.00    -0.298 NA
ATOM      5  C   UNL     1      -1.147   3.399  -1.483  0.00  0.00    +0.085 C 
ATOM      6  C   UNL     1      -2.981   2.424  -2.742  0.00  0.00    +0.105 C 
ENDROOT
BRANCH   3   7
ATOM      7  C   UNL     1      -1.202   4.705  -4.675  0.00  0.00    -0.012 A 
ATOM      8  C   UNL     1      -1.679   4.208  -5.873  0.00  0.00    +0.115 A 
ATOM      9  N   UNL     1      -0.985   4.348  -6.986  0.00  0.00    -0.263 NA
ATOM     10  C   UNL     1       0.181   4.962  -7.003  0.00  0.00    +0.111 A 
ATOM     11  C   UNL     1       0.722   5.487  -5.843  0.00  0.00    +0.020 A 
ATOM     12  C   UNL     1       0.018   5.363  -4.655  0.00  0.00    +0.008 A 
ENDBRANCH   3   7
TORSDOF 1
ENDMDL
MODEL 10
REMARK VINA RESULT:     0.000      6.243      8.327
REMARK INTER + INTRA:          -0.256
REMARK INTER:                   0.000
REMARK INTRA:                  -0.256
REMARK UNBOUND:                -0.256
REMARK  Name = Nicotine.pdb
REMARK  2 active torsions:
REMARK  status: ('A' for Active; 'I' for Inactive)
REMARK    1  A    between atoms: C_3  and  C_6
REMARK    2  A    between atoms: N_4  and  C_12
REMARK                            x       y       z     vdW  Elec       q    Type
REMARK                         _______ _______ _______ _____ _____    ______ ____
ROOT
ATOM      1  C   UNL     1      -2.338  -0.828  -5.875  0.00  0.00    +0.017 C 
ATOM      2  C   UNL     1      -0.946  -1.289  -5.369  0.00  0.00    +0.025 C 
ATOM      3  C   UNL     1      -1.138  -1.356  -3.839  0.00  0.00    +0.088 C 
ATOM      4  N   UNL     1      -2.276  -0.481  -3.503  0.00  0.00    -0.298 NA
ATOM      5  C   UNL     1      -2.777   0.139  -4.748  0.00  0.00    +0.085 C 
ATOM      6  C   UNL     1      -3.338  -1.236  -2.825  0.00  0.00    +0.105 C 
ENDROOT
BRANCH   3   7
ATOM      7  C   UNL     1       0.108  -0.868  -3.144  0.00  0.00    -0.012 A 
ATOM      8  C   UNL     1       0.364  -1.228  -1.835  0.00  0.00    +0.115 A 
ATOM      9  N   UNL     1       1.451  -0.806  -1.220  0.00  0.00    -0.263 NA
ATOM     10  C   UNL     1       2.331  -0.030  -1.822  0.00  0.00    +0.111 A 
ATOM     11  C   UNL     1       2.143   0.370  -3.132  0.00  0.00    +0.020 A 
ATOM     12  C   UNL     1       1.013  -0.058  -3.812  0.00  0.00    +0.008 A 
ENDBRANCH   3   7
TORSDOF 1
ENDMDL
