MODEL 1
REMARK VINA RESULT:    -3.831      0.000      0.000
REMARK INTER + INTRA:          -4.310
REMARK INTER:                  -4.055
REMARK INTRA:                  -0.255
REMARK UNBOUND:                -0.255
REMARK  Name = Nicotine.pdb
REMARK  2 active torsions:
REMARK  status: ('A' for Active; 'I' for Inactive)
REMARK    1  A    between atoms: C_3  and  C_6
REMARK    2  A    between atoms: N_4  and  C_12
REMARK                            x       y       z     vdW  Elec       q    Type
REMARK                         _______ _______ _______ _____ _____    ______ ____
ROOT
ATOM      1  C   UNL     1      -0.281   6.925  -7.256  0.00  0.00    +0.017 C 
ATOM      2  C   UNL     1       1.120   6.800  -6.601  0.00  0.00    +0.025 C 
ATOM      3  C   UNL     1       1.210   5.299  -6.256  0.00  0.00    +0.088 C 
ATOM      4  N   UNL     1      -0.169   4.785  -6.178  0.00  0.00    -0.298 NA
ATOM      5  C   UNL     1      -1.103   5.902  -6.432  0.00  0.00    +0.085 C 
ATOM      6  C   UNL     1      -0.381   3.693  -7.137  0.00  0.00    +0.105 C 
ENDROOT
BRANCH   3   7
ATOM      7  C   UNL     1       1.902   5.118  -4.930  0.00  0.00    -0.012 A 
ATOM      8  C   UNL     1       2.635   3.974  -4.675  0.00  0.00    +0.115 A 
ATOM      9  N   UNL     1       3.244   3.808  -3.517  0.00  0.00    -0.263 NA
ATOM     10  C   UNL     1       3.180   4.716  -2.563  0.00  0.00    +0.111 A 
ATOM     11  C   UNL     1       2.466   5.885  -2.747  0.00  0.00    +0.020 A 
ATOM     12  C   UNL     1       1.817   6.098  -3.953  0.00  0.00    +0.008 A 
ENDBRANCH   3   7
TORSDOF 1
ENDMDL
MODEL 2
REMARK VINA RESULT:    -3.726      1.283      2.024
REMARK INTER + INTRA:          -4.199
REMARK INTER:                  -4.012
REMARK INTRA:                  -0.187
REMARK UNBOUND:                -0.255
REMARK  Name = Nicotine.pdb
REMARK  2 active torsions:
REMARK  status: ('A' for Active; 'I' for Inactive)
REMARK    1  A    between atoms: C_3  and  C_6
REMARK    2  A    between atoms: N_4  and  C_12
REMARK                            x       y       z     vdW  Elec       q    Type
REMARK                         _______ _______ _______ _____ _____    ______ ____
ROOT
ATOM      1  C   UNL     1       1.152   4.037  -7.254  0.00  0.00    +0.017 C 
ATOM      2  C   UNL     1       1.548   3.768  -5.778  0.00  0.00    +0.025 C 
ATOM      3  C   UNL     1       0.714   4.808  -5.000  0.00  0.00    +0.088 C 
ATOM      4  N   UNL     1       0.373   5.889  -5.943  0.00  0.00    -0.298 NA
ATOM      5  C   UNL     1       0.978   5.576  -7.255  0.00  0.00    +0.085 C 
ATOM      6  C   UNL     1      -1.082   6.049  -6.057  0.00  0.00    +0.105 C 
ENDROOT
BRANCH   3   7
ATOM      7  C   UNL     1       1.524   5.361  -3.855  0.00  0.00    -0.012 A 
ATOM      8  C   UNL     1       2.680   4.724  -3.445  0.00  0.00    +0.115 A 
ATOM      9  N   UNL     1       3.394   5.201  -2.444  0.00  0.00    -0.263 NA
ATOM     10  C   UNL     1       3.039   6.295  -1.799  0.00  0.00    +0.111 A 
ATOM     11  C   UNL     1       1.895   6.986  -2.154  0.00  0.00    +0.020 A 
ATOM     12  C   UNL     1       1.122   6.517  -3.204  0.00  0.00    +0.008 A 
ENDBRANCH   3   7
TORSDOF 1
ENDMDL
MODEL 3
REMARK VINA RESULT:    -3.443      1.788      4.249
REMARK INTER + INTRA:          -3.899
REMARK INTER:                  -3.679
REMARK INTRA:                  -0.220
REMARK UNBOUND:                -0.255
REMARK  Name = Nicotine.pdb
REMARK  2 active torsions:
REMARK  status: ('A' for Active; 'I' for Inactive)
REMARK    1  A    between atoms: C_3  and  C_6
REMARK    2  A    between atoms: N_4  and  C_12
REMARK                            x       y       z     vdW  Elec       q    Type
REMARK                         _______ _______ _______ _____ _____    ______ ____
ROOT
ATOM      1  C   UNL     1       3.079   5.992  -3.258  0.00  0.00    +0.017 C 
ATOM      2  C   UNL     1       2.919   5.480  -4.713  0.00  0.00    +0.025 C 
ATOM      3  C   UNL     1       1.415   5.689  -4.991  0.00  0.00    +0.088 C 
ATOM      4  N   UNL     1       0.733   5.740  -3.686  0.00  0.00    -0.298 NA
ATOM      5  C   UNL     1       1.739   5.547  -2.620  0.00  0.00    +0.085 C 
ATOM      6  C   UNL     1       0.019   7.012  -3.514  0.00  0.00    +0.105 C 
ENDROOT
BRANCH   3   7
ATOM      7  C   UNL     1       0.880   4.540  -5.806  0.00  0.00    -0.012 A 
ATOM      8  C   UNL     1      -0.481   4.314  -5.887  0.00  0.00    +0.115 A 
ATOM      9  N   UNL     1      -0.957   3.311  -6.599  0.00  0.00    -0.263 NA
ATOM     10  C   UNL     1      -0.163   2.489  -7.256  0.00  0.00    +0.111 A 
ATOM     11  C   UNL     1       1.209   2.653  -7.223  0.00  0.00    +0.020 A 
ATOM     12  C   UNL     1       1.746   3.699  -6.489  0.00  0.00    +0.008 A 
ENDBRANCH   3   7
TORSDOF 1
ENDMDL
MODEL 4
REMARK VINA RESULT:    -3.212      1.575      2.060
REMARK INTER + INTRA:          -3.655
REMARK INTER:                  -3.449
REMARK INTRA:                  -0.206
REMARK UNBOUND:                -0.255
REMARK  Name = Nicotine.pdb
REMARK  2 active torsions:
REMARK  status: ('A' for Active; 'I' for Inactive)
REMARK    1  A    between atoms: C_3  and  C_6
REMARK    2  A    between atoms: N_4  and  C_12
REMARK                            x       y       z     vdW  Elec       q    Type
REMARK                         _______ _______ _______ _____ _____    ______ ____
ROOT
ATOM      1  C   UNL     1      -0.988   5.185  -6.913  0.00  0.00    +0.017 C 
ATOM      2  C   UNL     1      -0.128   6.218  -6.137  0.00  0.00    +0.025 C 
ATOM      3  C   UNL     1       1.131   5.408  -5.760  0.00  0.00    +0.088 C 
ATOM      4  N   UNL     1       0.759   3.982  -5.792  0.00  0.00    -0.298 NA
ATOM      5  C   UNL     1      -0.673   3.877  -6.146  0.00  0.00    +0.085 C 
ATOM      6  C   UNL     1       1.594   3.242  -6.747  0.00  0.00    +0.105 C 
ENDROOT
BRANCH   3   7
ATOM      7  C   UNL     1       1.589   5.789  -4.376  0.00  0.00    -0.012 A 
ATOM      8  C   UNL     1       0.860   6.687  -3.620  0.00  0.00    +0.115 A 
ATOM      9  N   UNL     1       1.254   7.025  -2.408  0.00  0.00    -0.263 NA
ATOM     10  C   UNL     1       2.350   6.527  -1.872  0.00  0.00    +0.111 A 
ATOM     11  C   UNL     1       3.130   5.622  -2.567  0.00  0.00    +0.020 A 
ATOM     12  C   UNL     1       2.745   5.239  -3.843  0.00  0.00    +0.008 A 
ENDBRANCH   3   7
TORSDOF 1
ENDMDL
MODEL 5
REMARK VINA RESULT:    -2.663      1.809      4.514
REMARK INTER + INTRA:          -3.074
REMARK INTER:                  -2.868
REMARK INTRA:                  -0.205
REMARK UNBOUND:                -0.255
REMARK  Name = Nicotine.pdb
REMARK  2 active torsions:
REMARK  status: ('A' for Active; 'I' for Inactive)
REMARK    1  A    between atoms: C_3  and  C_6
REMARK    2  A    between atoms: N_4  and  C_12
REMARK                            x       y       z     vdW  Elec       q    Type
REMARK                         _______ _______ _______ _____ _____    ______ ____
ROOT
ATOM      1  C   UNL     1       2.739   4.151  -4.378  0.00  0.00    +0.017 C 
ATOM      2  C   UNL     1       1.359   4.099  -5.084  0.00  0.00    +0.025 C 
ATOM      3  C   UNL     1       1.314   5.434  -5.857  0.00  0.00    +0.088 C 
ATOM      4  N   UNL     1       2.258   6.354  -5.196  0.00  0.00    -0.298 NA
ATOM      5  C   UNL     1       2.861   5.657  -4.040  0.00  0.00    +0.085 C 
ATOM      6  C   UNL     1       3.291   6.812  -6.133  0.00  0.00    +0.105 C 
ENDROOT
BRANCH   3   7
ATOM      7  C   UNL     1      -0.079   6.006  -5.811  0.00  0.00    -0.012 A 
ATOM      8  C   UNL     1      -0.829   6.114  -6.967  0.00  0.00    +0.115 A 
ATOM      9  N   UNL     1      -2.049   6.613  -6.936  0.00  0.00    -0.263 NA
ATOM     10  C   UNL     1      -2.599   7.028  -5.812  0.00  0.00    +0.111 A 
ATOM     11  C   UNL     1      -1.910   6.952  -4.616  0.00  0.00    +0.020 A 
ATOM     12  C   UNL     1      -0.627   6.427  -4.609  0.00  0.00    +0.008 A 
ENDBRANCH   3   7
TORSDOF 1
ENDMDL
MODEL 6
REMARK VINA RESULT:    -2.604      1.617      4.583
REMARK INTER + INTRA:          -3.011
REMARK INTER:                  -2.820
REMARK INTRA:                  -0.191
REMARK UNBOUND:                -0.255
REMARK  Name = Nicotine.pdb
REMARK  2 active torsions:
REMARK  status: ('A' for Active; 'I' for Inactive)
REMARK    1  A    between atoms: C_3  and  C_6
REMARK    2  A    between atoms: N_4  and  C_12
REMARK                            x       y       z     vdW  Elec       q    Type
REMARK                         _______ _______ _______ _____ _____    ______ ____
ROOT
ATOM      1  C   UNL     1       2.630   5.845  -2.776  0.00  0.00    +0.017 C 
ATOM      2  C   UNL     1       1.095   5.967  -2.969  0.00  0.00    +0.025 C 
ATOM      3  C   UNL     1       0.839   5.133  -4.243  0.00  0.00    +0.088 C 
ATOM      4  N   UNL     1       2.111   5.064  -4.984  0.00  0.00    -0.298 NA
ATOM      5  C   UNL     1       3.130   5.836  -4.242  0.00  0.00    +0.085 C 
ATOM      6  C   UNL     1       2.537   3.671  -5.171  0.00  0.00    +0.105 C 
ENDROOT
BRANCH   3   7
ATOM      7  C   UNL     1      -0.214   5.800  -5.089  0.00  0.00    -0.012 A 
ATOM      8  C   UNL     1      -1.286   6.441  -4.496  0.00  0.00    +0.115 A 
ATOM      9  N   UNL     1      -2.211   7.028  -5.229  0.00  0.00    -0.263 NA
ATOM     10  C   UNL     1      -2.154   7.028  -6.547  0.00  0.00    +0.111 A 
ATOM     11  C   UNL     1      -1.112   6.408  -7.210  0.00  0.00    +0.020 A 
ATOM     12  C   UNL     1      -0.117   5.785  -6.472  0.00  0.00    +0.008 A 
ENDBRANCH   3   7
TORSDOF 1
ENDMDL
MODEL 7
REMARK VINA RESULT:    -2.062      1.573      4.631
REMARK INTER + INTRA:          -2.437
REMARK INTER:                  -2.217
REMARK INTRA:                  -0.220
REMARK UNBOUND:                -0.255
REMARK  Name = Nicotine.pdb
REMARK  2 active torsions:
REMARK  status: ('A' for Active; 'I' for Inactive)
REMARK    1  A    between atoms: C_3  and  C_6
REMARK    2  A    between atoms: N_4  and  C_12
REMARK                            x       y       z     vdW  Elec       q    Type
REMARK                         _______ _______ _______ _____ _____    ______ ____
ROOT
ATOM      1  C   UNL     1       3.074   3.651  -4.149  0.00  0.00    +0.017 C 
ATOM      2  C   UNL     1       2.347   4.442  -5.268  0.00  0.00    +0.025 C 
ATOM      3  C   UNL     1       1.960   5.761  -4.564  0.00  0.00    +0.088 C 
ATOM      4  N   UNL     1       1.938   5.493  -3.115  0.00  0.00    -0.298 NA
ATOM      5  C   UNL     1       2.267   4.068  -2.894  0.00  0.00    +0.085 C 
ATOM      6  C   UNL     1       2.879   6.367  -2.402  0.00  0.00    +0.105 C 
ENDROOT
BRANCH   3   7
ATOM      7  C   UNL     1       0.597   6.207  -5.025  0.00  0.00    -0.012 A 
ATOM      8  C   UNL     1      -0.347   6.629  -4.109  0.00  0.00    +0.115 A 
ATOM      9  N   UNL     1      -1.543   7.021  -4.504  0.00  0.00    -0.263 NA
ATOM     10  C   UNL     1      -1.884   7.028  -5.777  0.00  0.00    +0.111 A 
ATOM     11  C   UNL     1      -0.992   6.621  -6.751  0.00  0.00    +0.020 A 
ATOM     12  C   UNL     1       0.276   6.206  -6.374  0.00  0.00    +0.008 A 
ENDBRANCH   3   7
TORSDOF 1
ENDMDL
MODEL 8
REMARK VINA RESULT:    -1.145      1.447      4.542
REMARK INTER + INTRA:          -1.467
REMARK INTER:                  -1.273
REMARK INTRA:                  -0.194
REMARK UNBOUND:                -0.255
REMARK  Name = Nicotine.pdb
REMARK  2 active torsions:
REMARK  status: ('A' for Active; 'I' for Inactive)
REMARK    1  A    between atoms: C_3  and  C_6
REMARK    2  A    between atoms: N_4  and  C_12
REMARK                            x       y       z     vdW  Elec       q    Type
REMARK                         _______ _______ _______ _____ _____    ______ ____
ROOT
ATOM      1  C   UNL     1       2.542   6.697  -1.947  0.00  0.00    +0.017 C 
ATOM      2  C   UNL     1       1.254   6.409  -2.762  0.00  0.00    +0.025 C 
ATOM      3  C   UNL     1       1.515   5.000  -3.337  0.00  0.00    +0.088 C 
ATOM      4  N   UNL     1       2.974   4.794  -3.341  0.00  0.00    -0.298 NA
ATOM      5  C   UNL     1       3.624   6.015  -2.820  0.00  0.00    +0.085 C 
ATOM      6  C   UNL     1       3.343   3.619  -2.540  0.00  0.00    +0.105 C 
ENDROOT
BRANCH   3   7
ATOM      7  C   UNL     1       0.980   4.913  -4.743  0.00  0.00    -0.012 A 
ATOM      8  C   UNL     1      -0.226   5.504  -5.070  0.00  0.00    +0.115 A 
ATOM      9  N   UNL     1      -0.702   5.432  -6.298  0.00  0.00    -0.263 NA
ATOM     10  C   UNL     1      -0.053   4.800  -7.256  0.00  0.00    +0.111 A 
ATOM     11  C   UNL     1       1.159   4.185  -7.004  0.00  0.00    +0.020 A 
ATOM     12  C   UNL     1       1.693   4.244  -5.726  0.00  0.00    +0.008 A 
ENDBRANCH   3   7
TORSDOF 1
ENDMDL
