MODEL 1
REMARK VINA RESULT:    -1.462      0.000      0.000
REMARK INTER + INTRA:          -1.739
REMARK INTER:                  -1.547
REMARK INTRA:                  -0.191
REMARK UNBOUND:                -0.191
REMARK  Name = Nicotine.pdb
REMARK  2 active torsions:
REMARK  status: ('A' for Active; 'I' for Inactive)
REMARK    1  A    between atoms: C_3  and  C_6
REMARK    2  A    between atoms: N_4  and  C_12
REMARK                            x       y       z     vdW  Elec       q    Type
REMARK                         _______ _______ _______ _____ _____    ______ ____
ROOT
ATOM      1  C   UNL     1       9.641   4.585  -7.254  0.00  0.00    +0.017 C 
ATOM      2  C   UNL     1      10.350   4.786  -5.889  0.00  0.00    +0.025 C 
ATOM      3  C   UNL     1      10.881   3.374  -5.562  0.00  0.00    +0.088 C 
ATOM      4  N   UNL     1      10.068   2.413  -6.329  0.00  0.00    -0.298 NA
ATOM      5  C   UNL     1       9.048   3.163  -7.092  0.00  0.00    +0.085 C 
ATOM      6  C   UNL     1      10.909   1.608  -7.225  0.00  0.00    +0.105 C 
ENDROOT
BRANCH   3   7
ATOM      7  C   UNL     1      10.741   3.103  -4.087  0.00  0.00    -0.012 A 
ATOM      8  C   UNL     1      10.402   4.122  -3.218  0.00  0.00    +0.115 A 
ATOM      9  N   UNL     1      10.277   3.893  -1.925  0.00  0.00    -0.263 NA
ATOM     10  C   UNL     1      10.470   2.694  -1.412  0.00  0.00    +0.111 A 
ATOM     11  C   UNL     1      10.812   1.626  -2.219  0.00  0.00    +0.020 A 
ATOM     12  C   UNL     1      10.947   1.827  -3.584  0.00  0.00    +0.008 A 
ENDBRANCH   3   7
TORSDOF 1
ENDMDL
MODEL 2
REMARK VINA RESULT:     0.023      2.138      4.294
REMARK INTER + INTRA:          -0.167
REMARK INTER:                   0.036
REMARK INTRA:                  -0.203
REMARK UNBOUND:                -0.191
REMARK  Name = Nicotine.pdb
REMARK  2 active torsions:
REMARK  status: ('A' for Active; 'I' for Inactive)
REMARK    1  A    between atoms: C_3  and  C_6
REMARK    2  A    between atoms: N_4  and  C_12
REMARK                            x       y       z     vdW  Elec       q    Type
REMARK                         _______ _______ _______ _____ _____    ______ ____
ROOT
ATOM      1  C   UNL     1      10.692   1.392  -4.648  0.00  0.00    +0.017 C 
ATOM      2  C   UNL     1      10.147   2.837  -4.506  0.00  0.00    +0.025 C 
ATOM      3  C   UNL     1       9.332   3.030  -5.802  0.00  0.00    +0.088 C 
ATOM      4  N   UNL     1       9.846   2.065  -6.790  0.00  0.00    -0.298 NA
ATOM      5  C   UNL     1      10.954   1.305  -6.173  0.00  0.00    +0.085 C 
ATOM      6  C   UNL     1       8.781   1.164  -7.250  0.00  0.00    +0.105 C 
ENDROOT
BRANCH   3   7
ATOM      7  C   UNL     1       9.511   4.435  -6.316  0.00  0.00    -0.012 A 
ATOM      8  C   UNL     1      10.766   5.013  -6.350  0.00  0.00    +0.115 A 
ATOM      9  N   UNL     1      10.931   6.242  -6.799  0.00  0.00    -0.263 NA
ATOM     10  C   UNL     1       9.916   6.965  -7.228  0.00  0.00    +0.111 A 
ATOM     11  C   UNL     1       8.631   6.455  -7.224  0.00  0.00    +0.020 A 
ATOM     12  C   UNL     1       8.420   5.164  -6.765  0.00  0.00    +0.008 A 
ENDBRANCH   3   7
TORSDOF 1
ENDMDL
MODEL 3
REMARK VINA RESULT:     0.513      1.756      4.387
REMARK INTER + INTRA:           0.352
REMARK INTER:                   0.534
REMARK INTRA:                  -0.182
REMARK UNBOUND:                -0.191
REMARK  Name = Nicotine.pdb
REMARK  2 active torsions:
REMARK  status: ('A' for Active; 'I' for Inactive)
REMARK    1  A    between atoms: C_3  and  C_6
REMARK    2  A    between atoms: N_4  and  C_12
REMARK                            x       y       z     vdW  Elec       q    Type
REMARK                         _______ _______ _______ _____ _____    ______ ____
ROOT
ATOM      1  C   UNL     1      10.244   0.684  -5.903  0.00  0.00    +0.017 C 
ATOM      2  C   UNL     1      10.505   1.922  -6.801  0.00  0.00    +0.025 C 
ATOM      3  C   UNL     1      10.674   3.065  -5.778  0.00  0.00    +0.088 C 
ATOM      4  N   UNL     1      10.007   2.640  -4.534  0.00  0.00    -0.298 NA
ATOM      5  C   UNL     1       9.413   1.303  -4.751  0.00  0.00    +0.085 C 
ATOM      6  C   UNL     1      10.950   2.621  -3.409  0.00  0.00    +0.105 C 
ENDROOT
BRANCH   3   7
ATOM      7  C   UNL     1      10.031   4.322  -6.302  0.00  0.00    -0.012 A 
ATOM      8  C   UNL     1       8.688   4.339  -6.625  0.00  0.00    +0.115 A 
ATOM      9  N   UNL     1       8.117   5.435  -7.085  0.00  0.00    -0.263 NA
ATOM     10  C   UNL     1       8.798   6.552  -7.254  0.00  0.00    +0.111 A 
ATOM     11  C   UNL     1      10.146   6.612  -6.952  0.00  0.00    +0.020 A 
ATOM     12  C   UNL     1      10.778   5.480  -6.461  0.00  0.00    +0.008 A 
ENDBRANCH   3   7
TORSDOF 1
ENDMDL
