MODEL 1
REMARK VINA RESULT:    -3.779      0.000      0.000
REMARK INTER + INTRA:          -4.255
REMARK INTER:                  -3.999
REMARK INTRA:                  -0.255
REMARK UNBOUND:                -0.255
REMARK  Name = Nicotine.pdb
REMARK  2 active torsions:
REMARK  status: ('A' for Active; 'I' for Inactive)
REMARK    1  A    between atoms: C_3  and  C_6
REMARK    2  A    between atoms: N_4  and  C_12
REMARK                            x       y       z     vdW  Elec       q    Type
REMARK                         _______ _______ _______ _____ _____    ______ ____
ROOT
ATOM      1  C   UNL     1       1.093   4.717  -0.127  0.00  0.00    +0.017 C 
ATOM      2  C   UNL     1       0.499   3.876   1.032  0.00  0.00    +0.025 C 
ATOM      3  C   UNL     1       0.879   4.693   2.285  0.00  0.00    +0.088 C 
ATOM      4  N   UNL     1       2.032   5.538   1.922  0.00  0.00    -0.298 NA
ATOM      5  C   UNL     1       2.394   5.261   0.516  0.00  0.00    +0.085 C 
ATOM      6  C   UNL     1       1.724   6.960   2.118  0.00  0.00    +0.105 C 
ENDROOT
BRANCH   3   7
ATOM      7  C   UNL     1       1.258   3.763   3.409  0.00  0.00    -0.012 A 
ATOM      8  C   UNL     1       1.324   4.228   4.708  0.00  0.00    +0.115 A 
ATOM      9  N   UNL     1       1.655   3.420   5.698  0.00  0.00    -0.263 NA
ATOM     10  C   UNL     1       1.932   2.148   5.490  0.00  0.00    +0.111 A 
ATOM     11  C   UNL     1       1.886   1.612   4.217  0.00  0.00    +0.020 A 
ATOM     12  C   UNL     1       1.537   2.429   3.153  0.00  0.00    +0.008 A 
ENDBRANCH   3   7
TORSDOF 1
ENDMDL
MODEL 2
REMARK VINA RESULT:    -3.480      1.663      4.437
REMARK INTER + INTRA:          -3.939
REMARK INTER:                  -3.707
REMARK INTRA:                  -0.232
REMARK UNBOUND:                -0.255
REMARK  Name = Nicotine.pdb
REMARK  2 active torsions:
REMARK  status: ('A' for Active; 'I' for Inactive)
REMARK    1  A    between atoms: C_3  and  C_6
REMARK    2  A    between atoms: N_4  and  C_12
REMARK                            x       y       z     vdW  Elec       q    Type
REMARK                         _______ _______ _______ _____ _____    ______ ____
ROOT
ATOM      1  C   UNL     1       1.489   2.496   5.082  0.00  0.00    +0.017 C 
ATOM      2  C   UNL     1       1.588   2.068   3.594  0.00  0.00    +0.025 C 
ATOM      3  C   UNL     1       2.573   3.098   3.002  0.00  0.00    +0.088 C 
ATOM      4  N   UNL     1       2.551   4.280   3.882  0.00  0.00    -0.298 NA
ATOM      5  C   UNL     1       1.582   4.038   4.972  0.00  0.00    +0.085 C 
ATOM      6  C   UNL     1       3.888   4.563   4.419  0.00  0.00    +0.105 C 
ENDROOT
BRANCH   3   7
ATOM      7  C   UNL     1       2.138   3.483   1.612  0.00  0.00    -0.012 A 
ATOM      8  C   UNL     1       3.034   3.434   0.560  0.00  0.00    +0.115 A 
ATOM      9  N   UNL     1       2.661   3.770  -0.659  0.00  0.00    -0.263 NA
ATOM     10  C   UNL     1       1.431   4.163  -0.925  0.00  0.00    +0.111 A 
ATOM     11  C   UNL     1       0.480   4.236   0.076  0.00  0.00    +0.020 A 
ATOM     12  C   UNL     1       0.834   3.886   1.370  0.00  0.00    +0.008 A 
ENDBRANCH   3   7
TORSDOF 1
ENDMDL
MODEL 3
REMARK VINA RESULT:    -3.457      1.531      4.590
REMARK INTER + INTRA:          -3.914
REMARK INTER:                  -3.696
REMARK INTRA:                  -0.218
REMARK UNBOUND:                -0.255
REMARK  Name = Nicotine.pdb
REMARK  2 active torsions:
REMARK  status: ('A' for Active; 'I' for Inactive)
REMARK    1  A    between atoms: C_3  and  C_6
REMARK    2  A    between atoms: N_4  and  C_12
REMARK                            x       y       z     vdW  Elec       q    Type
REMARK                         _______ _______ _______ _____ _____    ______ ____
ROOT
ATOM      1  C   UNL     1       3.362   4.825   6.083  0.00  0.00    +0.017 C 
ATOM      2  C   UNL     1       2.399   5.473   5.053  0.00  0.00    +0.025 C 
ATOM      3  C   UNL     1       1.580   4.269   4.539  0.00  0.00    +0.088 C 
ATOM      4  N   UNL     1       2.378   3.057   4.795  0.00  0.00    -0.298 NA
ATOM      5  C   UNL     1       3.658   3.458   5.418  0.00  0.00    +0.085 C 
ATOM      6  C   UNL     1       1.647   2.116   5.653  0.00  0.00    +0.105 C 
ENDROOT
BRANCH   3   7
ATOM      7  C   UNL     1       1.327   4.415   3.061  0.00  0.00    -0.012 A 
ATOM      8  C   UNL     1       0.993   3.313   2.297  0.00  0.00    +0.115 A 
ATOM      9  N   UNL     1       0.770   3.432   1.003  0.00  0.00    -0.263 NA
ATOM     10  C   UNL     1       0.854   4.596   0.389  0.00  0.00    +0.111 A 
ATOM     11  C   UNL     1       1.183   5.743   1.088  0.00  0.00    +0.020 A 
ATOM     12  C   UNL     1       1.419   5.657   2.452  0.00  0.00    +0.008 A 
ENDBRANCH   3   7
TORSDOF 1
ENDMDL
MODEL 4
REMARK VINA RESULT:    -3.223      1.097      1.869
REMARK INTER + INTRA:          -3.667
REMARK INTER:                  -3.499
REMARK INTRA:                  -0.168
REMARK UNBOUND:                -0.255
REMARK  Name = Nicotine.pdb
REMARK  2 active torsions:
REMARK  status: ('A' for Active; 'I' for Inactive)
REMARK    1  A    between atoms: C_3  and  C_6
REMARK    2  A    between atoms: N_4  and  C_12
REMARK                            x       y       z     vdW  Elec       q    Type
REMARK                         _______ _______ _______ _____ _____    ______ ____
ROOT
ATOM      1  C   UNL     1       3.144   5.968   0.429  0.00  0.00    +0.017 C 
ATOM      2  C   UNL     1       3.530   4.840   1.421  0.00  0.00    +0.025 C 
ATOM      3  C   UNL     1       2.282   3.933   1.418  0.00  0.00    +0.088 C 
ATOM      4  N   UNL     1       1.146   4.754   0.963  0.00  0.00    -0.298 NA
ATOM      5  C   UNL     1       1.629   6.128   0.711  0.00  0.00    +0.085 C 
ATOM      6  C   UNL     1       0.531   4.183  -0.242  0.00  0.00    +0.105 C 
ENDROOT
BRANCH   3   7
ATOM      7  C   UNL     1       2.019   3.417   2.809  0.00  0.00    -0.012 A 
ATOM      8  C   UNL     1       1.498   4.253   3.778  0.00  0.00    +0.115 A 
ATOM      9  N   UNL     1       1.265   3.810   4.998  0.00  0.00    -0.263 NA
ATOM     10  C   UNL     1       1.517   2.563   5.342  0.00  0.00    +0.111 A 
ATOM     11  C   UNL     1       2.039   1.668   4.426  0.00  0.00    +0.020 A 
ATOM     12  C   UNL     1       2.292   2.096   3.132  0.00  0.00    +0.008 A 
ENDBRANCH   3   7
TORSDOF 1
ENDMDL
MODEL 5
REMARK VINA RESULT:    -3.221      1.651      4.433
REMARK INTER + INTRA:          -3.664
REMARK INTER:                  -3.408
REMARK INTRA:                  -0.256
REMARK UNBOUND:                -0.255
REMARK  Name = Nicotine.pdb
REMARK  2 active torsions:
REMARK  status: ('A' for Active; 'I' for Inactive)
REMARK    1  A    between atoms: C_3  and  C_6
REMARK    2  A    between atoms: N_4  and  C_12
REMARK                            x       y       z     vdW  Elec       q    Type
REMARK                         _______ _______ _______ _____ _____    ______ ____
ROOT
ATOM      1  C   UNL     1       2.818   6.521   4.643  0.00  0.00    +0.017 C 
ATOM      2  C   UNL     1       2.061   6.676   3.297  0.00  0.00    +0.025 C 
ATOM      3  C   UNL     1       1.406   5.291   3.107  0.00  0.00    +0.088 C 
ATOM      4  N   UNL     1       2.177   4.328   3.913  0.00  0.00    -0.298 NA
ATOM      5  C   UNL     1       3.290   5.047   4.569  0.00  0.00    +0.085 C 
ATOM      6  C   UNL     1       1.320   3.665   4.904  0.00  0.00    +0.105 C 
ENDROOT
BRANCH   3   7
ATOM      7  C   UNL     1       1.452   4.898   1.653  0.00  0.00    -0.012 A 
ATOM      8  C   UNL     1       0.544   3.988   1.146  0.00  0.00    +0.115 A 
ATOM      9  N   UNL     1       0.577   3.639  -0.125  0.00  0.00    -0.263 NA
ATOM     10  C   UNL     1       1.469   4.138  -0.958  0.00  0.00    +0.111 A 
ATOM     11  C   UNL     1       2.408   5.054  -0.523  0.00  0.00    +0.020 A 
ATOM     12  C   UNL     1       2.401   5.449   0.805  0.00  0.00    +0.008 A 
ENDBRANCH   3   7
TORSDOF 1
ENDMDL
MODEL 6
REMARK VINA RESULT:    -3.173      1.729      4.505
REMARK INTER + INTRA:          -3.614
REMARK INTER:                  -3.386
REMARK INTRA:                  -0.228
REMARK UNBOUND:                -0.255
REMARK  Name = Nicotine.pdb
REMARK  2 active torsions:
REMARK  status: ('A' for Active; 'I' for Inactive)
REMARK    1  A    between atoms: C_3  and  C_6
REMARK    2  A    between atoms: N_4  and  C_12
REMARK                            x       y       z     vdW  Elec       q    Type
REMARK                         _______ _______ _______ _____ _____    ______ ____
ROOT
ATOM      1  C   UNL     1       2.250   1.438   3.953  0.00  0.00    +0.017 C 
ATOM      2  C   UNL     1       1.310   2.464   3.268  0.00  0.00    +0.025 C 
ATOM      3  C   UNL     1       2.122   2.908   2.033  0.00  0.00    +0.088 C 
ATOM      4  N   UNL     1       3.540   2.628   2.319  0.00  0.00    -0.298 NA
ATOM      5  C   UNL     1       3.643   2.058   3.679  0.00  0.00    +0.085 C 
ATOM      6  C   UNL     1       4.110   1.715   1.320  0.00  0.00    +0.105 C 
ENDROOT
BRANCH   3   7
ATOM      7  C   UNL     1       1.927   4.383   1.794  0.00  0.00    -0.012 A 
ATOM      8  C   UNL     1       1.513   4.842   0.557  0.00  0.00    +0.115 A 
ATOM      9  N   UNL     1       1.340   6.131   0.340  0.00  0.00    -0.263 NA
ATOM     10  C   UNL     1       1.552   7.028   1.282  0.00  0.00    +0.111 A 
ATOM     11  C   UNL     1       1.967   6.643   2.544  0.00  0.00    +0.020 A 
ATOM     12  C   UNL     1       2.154   5.296   2.812  0.00  0.00    +0.008 A 
ENDBRANCH   3   7
TORSDOF 1
ENDMDL
MODEL 7
REMARK VINA RESULT:    -3.152      1.885      2.741
REMARK INTER + INTRA:          -3.591
REMARK INTER:                  -3.341
REMARK INTRA:                  -0.250
REMARK UNBOUND:                -0.255
REMARK  Name = Nicotine.pdb
REMARK  2 active torsions:
REMARK  status: ('A' for Active; 'I' for Inactive)
REMARK    1  A    between atoms: C_3  and  C_6
REMARK    2  A    between atoms: N_4  and  C_12
REMARK                            x       y       z     vdW  Elec       q    Type
REMARK                         _______ _______ _______ _____ _____    ______ ____
ROOT
ATOM      1  C   UNL     1       1.578   5.849   0.244  0.00  0.00    +0.017 C 
ATOM      2  C   UNL     1       2.337   5.307   1.484  0.00  0.00    +0.025 C 
ATOM      3  C   UNL     1       2.802   3.909   1.022  0.00  0.00    +0.088 C 
ATOM      4  N   UNL     1       1.916   3.497  -0.082  0.00  0.00    -0.298 NA
ATOM      5  C   UNL     1       0.915   4.561  -0.304  0.00  0.00    +0.085 C 
ATOM      6  C   UNL     1       2.686   3.233  -1.304  0.00  0.00    +0.105 C 
ENDROOT
BRANCH   3   7
ATOM      7  C   UNL     1       2.693   2.931   2.162  0.00  0.00    -0.012 A 
ATOM      8  C   UNL     1       3.657   1.958   2.343  0.00  0.00    +0.115 A 
ATOM      9  N   UNL     1       3.569   1.097   3.339  0.00  0.00    -0.263 NA
ATOM     10  C   UNL     1       2.567   1.127   4.194  0.00  0.00    +0.111 A 
ATOM     11  C   UNL     1       1.565   2.073   4.077  0.00  0.00    +0.020 A 
ATOM     12  C   UNL     1       1.626   2.997   3.046  0.00  0.00    +0.008 A 
ENDBRANCH   3   7
TORSDOF 1
ENDMDL
MODEL 8
REMARK VINA RESULT:    -2.982      2.136      4.860
REMARK INTER + INTRA:          -3.412
REMARK INTER:                  -3.188
REMARK INTRA:                  -0.223
REMARK UNBOUND:                -0.255
REMARK  Name = Nicotine.pdb
REMARK  2 active torsions:
REMARK  status: ('A' for Active; 'I' for Inactive)
REMARK    1  A    between atoms: C_3  and  C_6
REMARK    2  A    between atoms: N_4  and  C_12
REMARK                            x       y       z     vdW  Elec       q    Type
REMARK                         _______ _______ _______ _____ _____    ______ ____
ROOT
ATOM      1  C   UNL     1       1.573   5.741   3.354  0.00  0.00    +0.017 C 
ATOM      2  C   UNL     1       1.342   5.781   1.820  0.00  0.00    +0.025 C 
ATOM      3  C   UNL     1       1.391   4.291   1.423  0.00  0.00    +0.088 C 
ATOM      4  N   UNL     1       2.139   3.582   2.476  0.00  0.00    -0.298 NA
ATOM      5  C   UNL     1       2.574   4.567   3.489  0.00  0.00    +0.085 C 
ATOM      6  C   UNL     1       1.319   2.526   3.086  0.00  0.00    +0.105 C 
ENDROOT
BRANCH   3   7
ATOM      7  C   UNL     1       2.095   4.136   0.100  0.00  0.00    -0.012 A 
ATOM      8  C   UNL     1       3.150   3.253  -0.032  0.00  0.00    +0.115 A 
ATOM      9  N   UNL     1       3.771   3.111  -1.186  0.00  0.00    -0.263 NA
ATOM     10  C   UNL     1       3.416   3.799  -2.253  0.00  0.00    +0.111 A 
ATOM     11  C   UNL     1       2.370   4.701  -2.198  0.00  0.00    +0.020 A 
ATOM     12  C   UNL     1       1.689   4.873  -1.003  0.00  0.00    +0.008 A 
ENDBRANCH   3   7
TORSDOF 1
ENDMDL
MODEL 9
REMARK VINA RESULT:    -2.928      2.189      3.070
REMARK INTER + INTRA:          -3.354
REMARK INTER:                  -3.142
REMARK INTRA:                  -0.212
REMARK UNBOUND:                -0.255
REMARK  Name = Nicotine.pdb
REMARK  2 active torsions:
REMARK  status: ('A' for Active; 'I' for Inactive)
REMARK    1  A    between atoms: C_3  and  C_6
REMARK    2  A    between atoms: N_4  and  C_12
REMARK                            x       y       z     vdW  Elec       q    Type
REMARK                         _______ _______ _______ _____ _____    ______ ____
ROOT
ATOM      1  C   UNL     1       3.112   5.293  -1.127  0.00  0.00    +0.017 C 
ATOM      2  C   UNL     1       3.440   4.970   0.355  0.00  0.00    +0.025 C 
ATOM      3  C   UNL     1       3.425   3.427   0.386  0.00  0.00    +0.088 C 
ATOM      4  N   UNL     1       2.614   2.975  -0.759  0.00  0.00    -0.298 NA
ATOM      5  C   UNL     1       2.109   4.165  -1.478  0.00  0.00    +0.085 C 
ATOM      6  C   UNL     1       3.398   2.113  -1.653  0.00  0.00    +0.105 C 
ENDROOT
BRANCH   3   7
ATOM      7  C   UNL     1       2.808   2.946   1.674  0.00  0.00    -0.012 A 
ATOM      8  C   UNL     1       1.780   3.657   2.265  0.00  0.00    +0.115 A 
ATOM      9  N   UNL     1       1.235   3.243   3.392  0.00  0.00    -0.263 NA
ATOM     10  C   UNL     1       1.643   2.145   3.997  0.00  0.00    +0.111 A 
ATOM     11  C   UNL     1       2.667   1.382   3.465  0.00  0.00    +0.020 A 
ATOM     12  C   UNL     1       3.260   1.784   2.278  0.00  0.00    +0.008 A 
ENDBRANCH   3   7
TORSDOF 1
ENDMDL
MODEL 10
REMARK VINA RESULT:    -2.904      1.690      2.116
REMARK INTER + INTRA:          -3.329
REMARK INTER:                  -3.144
REMARK INTRA:                  -0.185
REMARK UNBOUND:                -0.255
REMARK  Name = Nicotine.pdb
REMARK  2 active torsions:
REMARK  status: ('A' for Active; 'I' for Inactive)
REMARK    1  A    between atoms: C_3  and  C_6
REMARK    2  A    between atoms: N_4  and  C_12
REMARK                            x       y       z     vdW  Elec       q    Type
REMARK                         _______ _______ _______ _____ _____    ______ ____
ROOT
ATOM      1  C   UNL     1       1.645   6.736   0.951  0.00  0.00    +0.017 C 
ATOM      2  C   UNL     1       1.077   5.359   1.387  0.00  0.00    +0.025 C 
ATOM      3  C   UNL     1       1.642   5.187   2.812  0.00  0.00    +0.088 C 
ATOM      4  N   UNL     1       2.833   6.049   2.918  0.00  0.00    -0.298 NA
ATOM      5  C   UNL     1       3.042   6.724   1.619  0.00  0.00    +0.085 C 
ATOM      6  C   UNL     1       2.680   7.028   4.002  0.00  0.00    +0.105 C 
ENDROOT
BRANCH   3   7
ATOM      7  C   UNL     1       2.028   3.748   3.040  0.00  0.00    -0.012 A 
ATOM      8  C   UNL     1       2.919   3.120   2.190  0.00  0.00    +0.115 A 
ATOM      9  N   UNL     1       3.262   1.861   2.382  0.00  0.00    -0.263 NA
ATOM     10  C   UNL     1       2.774   1.155   3.383  0.00  0.00    +0.111 A 
ATOM     11  C   UNL     1       1.879   1.716   4.275  0.00  0.00    +0.020 A 
ATOM     12  C   UNL     1       1.499   3.039   4.108  0.00  0.00    +0.008 A 
ENDBRANCH   3   7
TORSDOF 1
ENDMDL
