MODEL 1
REMARK VINA RESULT:    -1.269      0.000      0.000
REMARK INTER + INTRA:          -1.552
REMARK INTER:                  -1.343
REMARK INTRA:                  -0.209
REMARK UNBOUND:                -0.209
REMARK  Name = Nicotine.pdb
REMARK  2 active torsions:
REMARK  status: ('A' for Active; 'I' for Inactive)
REMARK    1  A    between atoms: C_3  and  C_6
REMARK    2  A    between atoms: N_4  and  C_12
REMARK                            x       y       z     vdW  Elec       q    Type
REMARK                         _______ _______ _______ _____ _____    ______ ____
ROOT
ATOM      1  C   UNL     1       3.533   0.305   5.250  0.00  0.00    +0.017 C 
ATOM      2  C   UNL     1       4.209   1.290   6.241  0.00  0.00    +0.025 C 
ATOM      3  C   UNL     1       3.405   2.592   6.038  0.00  0.00    +0.088 C 
ATOM      4  N   UNL     1       2.779   2.516   4.706  0.00  0.00    -0.298 NA
ATOM      5  C   UNL     1       3.179   1.243   4.069  0.00  0.00    +0.085 C 
ATOM      6  C   UNL     1       1.318   2.621   4.804  0.00  0.00    +0.105 C 
ENDROOT
BRANCH   3   7
ATOM      7  C   UNL     1       4.329   3.780   6.106  0.00  0.00    -0.012 A 
ATOM      8  C   UNL     1       5.697   3.599   6.185  0.00  0.00    +0.115 A 
ATOM      9  N   UNL     1       6.513   4.633   6.244  0.00  0.00    -0.263 NA
ATOM     10  C   UNL     1       6.062   5.872   6.231  0.00  0.00    +0.111 A 
ATOM     11  C   UNL     1       4.707   6.132   6.153  0.00  0.00    +0.020 A 
ATOM     12  C   UNL     1       3.819   5.069   6.084  0.00  0.00    +0.008 A 
ENDBRANCH   3   7
TORSDOF 1
ENDMDL
MODEL 2
REMARK VINA RESULT:    -0.065      1.411      4.595
REMARK INTER + INTRA:          -0.278
REMARK INTER:                  -0.035
REMARK INTRA:                  -0.243
REMARK UNBOUND:                -0.209
REMARK  Name = Nicotine.pdb
REMARK  2 active torsions:
REMARK  status: ('A' for Active; 'I' for Inactive)
REMARK    1  A    between atoms: C_3  and  C_6
REMARK    2  A    between atoms: N_4  and  C_12
REMARK                            x       y       z     vdW  Elec       q    Type
REMARK                         _______ _______ _______ _____ _____    ______ ____
ROOT
ATOM      1  C   UNL     1       3.755   5.532   5.897  0.00  0.00    +0.017 C 
ATOM      2  C   UNL     1       2.996   4.221   6.231  0.00  0.00    +0.025 C 
ATOM      3  C   UNL     1       4.120   3.163   6.244  0.00  0.00    +0.088 C 
ATOM      4  N   UNL     1       5.234   3.699   5.442  0.00  0.00    -0.298 NA
ATOM      5  C   UNL     1       4.841   5.024   4.916  0.00  0.00    +0.085 C 
ATOM      6  C   UNL     1       6.462   3.793   6.242  0.00  0.00    +0.105 C 
ENDROOT
BRANCH   3   7
ATOM      7  C   UNL     1       3.621   1.878   5.636  0.00  0.00    -0.012 A 
ATOM      8  C   UNL     1       3.897   0.665   6.240  0.00  0.00    +0.115 A 
ATOM      9  N   UNL     1       3.464  -0.464   5.714  0.00  0.00    -0.263 NA
ATOM     10  C   UNL     1       2.757  -0.485   4.602  0.00  0.00    +0.111 A 
ATOM     11  C   UNL     1       2.440   0.689   3.943  0.00  0.00    +0.020 A 
ATOM     12  C   UNL     1       2.874   1.896   4.468  0.00  0.00    +0.008 A 
ENDBRANCH   3   7
TORSDOF 1
ENDMDL
MODEL 3
REMARK VINA RESULT:     0.802      1.692      2.625
REMARK INTER + INTRA:           0.639
REMARK INTER:                   0.835
REMARK INTRA:                  -0.196
REMARK UNBOUND:                -0.209
REMARK  Name = Nicotine.pdb
REMARK  2 active torsions:
REMARK  status: ('A' for Active; 'I' for Inactive)
REMARK    1  A    between atoms: C_3  and  C_6
REMARK    2  A    between atoms: N_4  and  C_12
REMARK                            x       y       z     vdW  Elec       q    Type
REMARK                         _______ _______ _______ _____ _____    ______ ____
ROOT
ATOM      1  C   UNL     1       2.220  -0.361   4.949  0.00  0.00    +0.017 C 
ATOM      2  C   UNL     1       2.101   1.168   4.716  0.00  0.00    +0.025 C 
ATOM      3  C   UNL     1       3.559   1.590   4.433  0.00  0.00    +0.088 C 
ATOM      4  N   UNL     1       4.434   0.559   5.020  0.00  0.00    -0.298 NA
ATOM      5  C   UNL     1       3.587  -0.462   5.671  0.00  0.00    +0.085 C 
ATOM      6  C   UNL     1       5.296  -0.045   3.996  0.00  0.00    +0.105 C 
ENDROOT
BRANCH   3   7
ATOM      7  C   UNL     1       3.839   2.926   5.071  0.00  0.00    -0.012 A 
ATOM      8  C   UNL     1       2.820   3.639   5.675  0.00  0.00    +0.115 A 
ATOM      9  N   UNL     1       3.057   4.809   6.236  0.00  0.00    -0.263 NA
ATOM     10  C   UNL     1       4.262   5.343   6.244  0.00  0.00    +0.111 A 
ATOM     11  C   UNL     1       5.330   4.688   5.660  0.00  0.00    +0.020 A 
ATOM     12  C   UNL     1       5.121   3.453   5.065  0.00  0.00    +0.008 A 
ENDBRANCH   3   7
TORSDOF 1
ENDMDL
