MODEL 1
REMARK VINA RESULT:     9.400      0.000      0.000
REMARK INTER + INTRA:           9.735
REMARK INTER:                   9.950
REMARK INTRA:                  -0.215
REMARK UNBOUND:                -0.215
REMARK  Name = Nicotine.pdb
REMARK  2 active torsions:
REMARK  status: ('A' for Active; 'I' for Inactive)
REMARK    1  A    between atoms: C_3  and  C_6
REMARK    2  A    between atoms: N_4  and  C_12
REMARK                            x       y       z     vdW  Elec       q    Type
REMARK                         _______ _______ _______ _____ _____    ______ ____
ROOT
ATOM      1  C   UNL     1      -5.170  -3.846  -3.632  0.00  0.00    +0.017 C 
ATOM      2  C   UNL     1      -4.620  -4.751  -4.766  0.00  0.00    +0.025 C 
ATOM      3  C   UNL     1      -3.523  -5.571  -4.054  0.00  0.00    +0.088 C 
ATOM      4  N   UNL     1      -3.113  -4.809  -2.861  0.00  0.00    -0.298 NA
ATOM      5  C   UNL     1      -3.886  -3.549  -2.818  0.00  0.00    +0.085 C 
ATOM      6  C   UNL     1      -3.318  -5.595  -1.637  0.00  0.00    +0.105 C 
ENDROOT
BRANCH   3   7
ATOM      7  C   UNL     1      -2.344  -5.758  -4.974  0.00  0.00    -0.012 A 
ATOM      8  C   UNL     1      -1.065  -5.853  -4.460  0.00  0.00    +0.115 A 
ATOM      9  N   UNL     1      -0.028  -6.018  -5.258  0.00  0.00    -0.263 NA
ATOM     10  C   UNL     1      -0.166  -6.097  -6.567  0.00  0.00    +0.111 A 
ATOM     11  C   UNL     1      -1.415  -6.011  -7.153  0.00  0.00    +0.020 A 
ATOM     12  C   UNL     1      -2.530  -5.843  -6.345  0.00  0.00    +0.008 A 
ENDBRANCH   3   7
TORSDOF 1
ENDMDL
MODEL 2
REMARK VINA RESULT:    11.861      1.184      1.632
REMARK INTER + INTRA:          12.340
REMARK INTER:                  12.541
REMARK INTRA:                  -0.202
REMARK UNBOUND:                -0.215
REMARK  Name = Nicotine.pdb
REMARK  2 active torsions:
REMARK  status: ('A' for Active; 'I' for Inactive)
REMARK    1  A    between atoms: C_3  and  C_6
REMARK    2  A    between atoms: N_4  and  C_12
REMARK                            x       y       z     vdW  Elec       q    Type
REMARK                         _______ _______ _______ _____ _____    ______ ____
ROOT
ATOM      1  C   UNL     1      -4.931  -3.173  -2.661  0.00  0.00    +0.017 C 
ATOM      2  C   UNL     1      -4.824  -3.959  -3.994  0.00  0.00    +0.025 C 
ATOM      3  C   UNL     1      -3.956  -5.176  -3.610  0.00  0.00    +0.088 C 
ATOM      4  N   UNL     1      -3.193  -4.806  -2.404  0.00  0.00    -0.298 NA
ATOM      5  C   UNL     1      -3.531  -3.413  -2.043  0.00  0.00    +0.085 C 
ATOM      6  C   UNL     1      -3.483  -5.724  -1.295  0.00  0.00    +0.105 C 
ENDROOT
BRANCH   3   7
ATOM      7  C   UNL     1      -3.010  -5.507  -4.735  0.00  0.00    -0.012 A 
ATOM      8  C   UNL     1      -3.471  -5.582  -6.036  0.00  0.00    +0.115 A 
ATOM      9  N   UNL     1      -2.650  -5.870  -7.027  0.00  0.00    -0.263 NA
ATOM     10  C   UNL     1      -1.367  -6.097  -6.821  0.00  0.00    +0.111 A 
ATOM     11  C   UNL     1      -0.835  -6.039  -5.547  0.00  0.00    +0.020 A 
ATOM     12  C   UNL     1      -1.666  -5.733  -4.481  0.00  0.00    +0.008 A 
ENDBRANCH   3   7
TORSDOF 1
ENDMDL
