MODEL 1
REMARK VINA RESULT:    -3.524      0.000      0.000
REMARK INTER + INTRA:          -3.973
REMARK INTER:                  -3.730
REMARK INTRA:                  -0.243
REMARK UNBOUND:                -0.243
REMARK  Name = Nicotine.pdb
REMARK  2 active torsions:
REMARK  status: ('A' for Active; 'I' for Inactive)
REMARK    1  A    between atoms: C_3  and  C_6
REMARK    2  A    between atoms: N_4  and  C_12
REMARK                            x       y       z     vdW  Elec       q    Type
REMARK                         _______ _______ _______ _____ _____    ______ ____
ROOT
ATOM      1  C   UNL     1       6.458  -4.200  -0.399  0.00  0.00    +0.017 C 
ATOM      2  C   UNL     1       6.500  -2.999  -1.380  0.00  0.00    +0.025 C 
ATOM      3  C   UNL     1       6.903  -3.656  -2.717  0.00  0.00    +0.088 C 
ATOM      4  N   UNL     1       7.574  -4.928  -2.394  0.00  0.00    -0.298 NA
ATOM      5  C   UNL     1       7.626  -5.072  -0.923  0.00  0.00    +0.085 C 
ATOM      6  C   UNL     1       6.877  -6.064  -3.011  0.00  0.00    +0.105 C 
ENDROOT
BRANCH   3   7
ATOM      7  C   UNL     1       7.847  -2.753  -3.468  0.00  0.00    -0.012 A 
ATOM      8  C   UNL     1       8.301  -3.107  -4.725  0.00  0.00    +0.115 A 
ATOM      9  N   UNL     1       9.127  -2.322  -5.389  0.00  0.00    -0.263 NA
ATOM     10  C   UNL     1       9.551  -1.179  -4.888  0.00  0.00    +0.111 A 
ATOM     11  C   UNL     1       9.139  -0.759  -3.637  0.00  0.00    +0.020 A 
ATOM     12  C   UNL     1       8.266  -1.555  -2.911  0.00  0.00    +0.008 A 
ENDBRANCH   3   7
TORSDOF 1
ENDMDL
MODEL 2
REMARK VINA RESULT:    -3.497      3.272      6.062
REMARK INTER + INTRA:          -3.944
REMARK INTER:                  -3.748
REMARK INTRA:                  -0.196
REMARK UNBOUND:                -0.243
REMARK  Name = Nicotine.pdb
REMARK  2 active torsions:
REMARK  status: ('A' for Active; 'I' for Inactive)
REMARK    1  A    between atoms: C_3  and  C_6
REMARK    2  A    between atoms: N_4  and  C_12
REMARK                            x       y       z     vdW  Elec       q    Type
REMARK                         _______ _______ _______ _____ _____    ______ ____
ROOT
ATOM      1  C   UNL     1       7.118  -2.364  -1.041  0.00  0.00    +0.017 C 
ATOM      2  C   UNL     1       7.989  -2.682   0.203  0.00  0.00    +0.025 C 
ATOM      3  C   UNL     1       7.954  -4.224   0.265  0.00  0.00    +0.088 C 
ATOM      4  N   UNL     1       6.753  -4.664  -0.467  0.00  0.00    -0.298 NA
ATOM      5  C   UNL     1       6.034  -3.468  -0.955  0.00  0.00    +0.085 C 
ATOM      6  C   UNL     1       7.111  -5.554  -1.579  0.00  0.00    +0.105 C 
ENDROOT
BRANCH   3   7
ATOM      7  C   UNL     1       7.877  -4.678   1.700  0.00  0.00    -0.012 A 
ATOM      8  C   UNL     1       8.652  -4.069   2.668  0.00  0.00    +0.115 A 
ATOM      9  N   UNL     1       8.590  -4.460   3.927  0.00  0.00    -0.263 NA
ATOM     10  C   UNL     1       7.794  -5.438   4.310  0.00  0.00    +0.111 A 
ATOM     11  C   UNL     1       6.988  -6.093   3.398  0.00  0.00    +0.020 A 
ATOM     12  C   UNL     1       7.022  -5.706   2.067  0.00  0.00    +0.008 A 
ENDBRANCH   3   7
TORSDOF 1
ENDMDL
MODEL 3
REMARK VINA RESULT:    -3.464      1.913      3.452
REMARK INTER + INTRA:          -3.910
REMARK INTER:                  -3.707
REMARK INTRA:                  -0.203
REMARK UNBOUND:                -0.243
REMARK  Name = Nicotine.pdb
REMARK  2 active torsions:
REMARK  status: ('A' for Active; 'I' for Inactive)
REMARK    1  A    between atoms: C_3  and  C_6
REMARK    2  A    between atoms: N_4  and  C_12
REMARK                            x       y       z     vdW  Elec       q    Type
REMARK                         _______ _______ _______ _____ _____    ______ ____
ROOT
ATOM      1  C   UNL     1       6.693  -4.111  -0.463  0.00  0.00    +0.017 C 
ATOM      2  C   UNL     1       7.050  -5.093  -1.611  0.00  0.00    +0.025 C 
ATOM      3  C   UNL     1       7.663  -4.166  -2.682  0.00  0.00    +0.088 C 
ATOM      4  N   UNL     1       7.166  -2.804  -2.418  0.00  0.00    -0.298 NA
ATOM      5  C   UNL     1       6.257  -2.852  -1.253  0.00  0.00    +0.085 C 
ATOM      6  C   UNL     1       8.277  -1.873  -2.182  0.00  0.00    +0.105 C 
ENDROOT
BRANCH   3   7
ATOM      7  C   UNL     1       7.233  -4.614  -4.054  0.00  0.00    -0.012 A 
ATOM      8  C   UNL     1       6.389  -5.698  -4.203  0.00  0.00    +0.115 A 
ATOM      9  N   UNL     1       6.007  -6.097  -5.401  0.00  0.00    -0.263 NA
ATOM     10  C   UNL     1       6.410  -5.484  -6.496  0.00  0.00    +0.111 A 
ATOM     11  C   UNL     1       7.255  -4.392  -6.426  0.00  0.00    +0.020 A 
ATOM     12  C   UNL     1       7.673  -3.941  -5.184  0.00  0.00    +0.008 A 
ENDBRANCH   3   7
TORSDOF 1
ENDMDL
MODEL 4
REMARK VINA RESULT:    -3.342      2.176      3.152
REMARK INTER + INTRA:          -3.781
REMARK INTER:                  -3.545
REMARK INTRA:                  -0.235
REMARK UNBOUND:                -0.243
REMARK  Name = Nicotine.pdb
REMARK  2 active torsions:
REMARK  status: ('A' for Active; 'I' for Inactive)
REMARK    1  A    between atoms: C_3  and  C_6
REMARK    2  A    between atoms: N_4  and  C_12
REMARK                            x       y       z     vdW  Elec       q    Type
REMARK                         _______ _______ _______ _____ _____    ______ ____
ROOT
ATOM      1  C   UNL     1       8.245  -2.296   0.618  0.00  0.00    +0.017 C 
ATOM      2  C   UNL     1       7.447  -2.316  -0.712  0.00  0.00    +0.025 C 
ATOM      3  C   UNL     1       6.984  -3.784  -0.818  0.00  0.00    +0.088 C 
ATOM      4  N   UNL     1       7.897  -4.591   0.012  0.00  0.00    -0.298 NA
ATOM      5  C   UNL     1       8.913  -3.694   0.603  0.00  0.00    +0.085 C 
ATOM      6  C   UNL     1       7.159  -5.313   1.057  0.00  0.00    +0.105 C 
ENDROOT
BRANCH   3   7
ATOM      7  C   UNL     1       7.054  -4.242  -2.252  0.00  0.00    -0.012 A 
ATOM      8  C   UNL     1       6.756  -5.550  -2.583  0.00  0.00    +0.115 A 
ATOM      9  N   UNL     1       6.815  -5.959  -3.836  0.00  0.00    -0.263 NA
ATOM     10  C   UNL     1       7.157  -5.145  -4.815  0.00  0.00    +0.111 A 
ATOM     11  C   UNL     1       7.468  -3.822  -4.560  0.00  0.00    +0.020 A 
ATOM     12  C   UNL     1       7.412  -3.355  -3.256  0.00  0.00    +0.008 A 
ENDBRANCH   3   7
TORSDOF 1
ENDMDL
MODEL 5
REMARK VINA RESULT:    -3.218      1.666      2.002
REMARK INTER + INTRA:          -3.650
REMARK INTER:                  -3.409
REMARK INTRA:                  -0.241
REMARK UNBOUND:                -0.243
REMARK  Name = Nicotine.pdb
REMARK  2 active torsions:
REMARK  status: ('A' for Active; 'I' for Inactive)
REMARK    1  A    between atoms: C_3  and  C_6
REMARK    2  A    between atoms: N_4  and  C_12
REMARK                            x       y       z     vdW  Elec       q    Type
REMARK                         _______ _______ _______ _____ _____    ______ ____
ROOT
ATOM      1  C   UNL     1       6.447  -4.211  -0.514  0.00  0.00    +0.017 C 
ATOM      2  C   UNL     1       6.562  -2.729  -0.958  0.00  0.00    +0.025 C 
ATOM      3  C   UNL     1       7.499  -2.805  -2.183  0.00  0.00    +0.088 C 
ATOM      4  N   UNL     1       8.270  -4.055  -2.066  0.00  0.00    -0.298 NA
ATOM      5  C   UNL     1       7.872  -4.740  -0.817  0.00  0.00    +0.085 C 
ATOM      6  C   UNL     1       8.052  -4.920  -3.233  0.00  0.00    +0.105 C 
ENDROOT
BRANCH   3   7
ATOM      7  C   UNL     1       8.433  -1.623  -2.187  0.00  0.00    -0.012 A 
ATOM      8  C   UNL     1       8.658  -0.914  -3.352  0.00  0.00    +0.115 A 
ATOM      9  N   UNL     1       9.475   0.121  -3.365  0.00  0.00    -0.263 NA
ATOM     10  C   UNL     1      10.105   0.520  -2.277  0.00  0.00    +0.111 A 
ATOM     11  C   UNL     1       9.929  -0.139  -1.075  0.00  0.00    +0.020 A 
ATOM     12  C   UNL     1       9.074  -1.229  -1.022  0.00  0.00    +0.008 A 
ENDBRANCH   3   7
TORSDOF 1
ENDMDL
MODEL 6
REMARK VINA RESULT:    -3.184      3.781      5.321
REMARK INTER + INTRA:          -3.614
REMARK INTER:                  -3.395
REMARK INTRA:                  -0.219
REMARK UNBOUND:                -0.243
REMARK  Name = Nicotine.pdb
REMARK  2 active torsions:
REMARK  status: ('A' for Active; 'I' for Inactive)
REMARK    1  A    between atoms: C_3  and  C_6
REMARK    2  A    between atoms: N_4  and  C_12
REMARK                            x       y       z     vdW  Elec       q    Type
REMARK                         _______ _______ _______ _____ _____    ______ ____
ROOT
ATOM      1  C   UNL     1       9.061  -3.145   4.109  0.00  0.00    +0.017 C 
ATOM      2  C   UNL     1       8.727  -3.932   2.814  0.00  0.00    +0.025 C 
ATOM      3  C   UNL     1       9.133  -2.950   1.695  0.00  0.00    +0.088 C 
ATOM      4  N   UNL     1       9.123  -1.596   2.278  0.00  0.00    -0.298 NA
ATOM      5  C   UNL     1       8.707  -1.695   3.693  0.00  0.00    +0.085 C 
ATOM      6  C   UNL     1      10.443  -0.962   2.160  0.00  0.00    +0.105 C 
ENDROOT
BRANCH   3   7
ATOM      7  C   UNL     1       8.145  -3.029   0.561  0.00  0.00    -0.012 A 
ATOM      8  C   UNL     1       8.056  -2.003  -0.361  0.00  0.00    +0.115 A 
ATOM      9  N   UNL     1       7.194  -2.064  -1.357  0.00  0.00    -0.263 NA
ATOM     10  C   UNL     1       6.389  -3.095  -1.515  0.00  0.00    +0.111 A 
ATOM     11  C   UNL     1       6.421  -4.159  -0.633  0.00  0.00    +0.020 A 
ATOM     12  C   UNL     1       7.318  -4.133   0.424  0.00  0.00    +0.008 A 
ENDBRANCH   3   7
TORSDOF 1
ENDMDL
MODEL 7
REMARK VINA RESULT:    -3.107      2.656      3.190
REMARK INTER + INTRA:          -3.532
REMARK INTER:                  -3.282
REMARK INTRA:                  -0.250
REMARK UNBOUND:                -0.243
REMARK  Name = Nicotine.pdb
REMARK  2 active torsions:
REMARK  status: ('A' for Active; 'I' for Inactive)
REMARK    1  A    between atoms: C_3  and  C_6
REMARK    2  A    between atoms: N_4  and  C_12
REMARK                            x       y       z     vdW  Elec       q    Type
REMARK                         _______ _______ _______ _____ _____    ______ ____
ROOT
ATOM      1  C   UNL     1       9.251  -3.144   2.657  0.00  0.00    +0.017 C 
ATOM      2  C   UNL     1       8.837  -1.988   1.708  0.00  0.00    +0.025 C 
ATOM      3  C   UNL     1       7.990  -2.706   0.636  0.00  0.00    +0.088 C 
ATOM      4  N   UNL     1       8.380  -4.127   0.650  0.00  0.00    -0.298 NA
ATOM      5  C   UNL     1       9.443  -4.314   1.660  0.00  0.00    +0.085 C 
ATOM      6  C   UNL     1       7.225  -4.988   0.935  0.00  0.00    +0.105 C 
ENDROOT
BRANCH   3   7
ATOM      7  C   UNL     1       8.266  -2.110  -0.720  0.00  0.00    -0.012 A 
ATOM      8  C   UNL     1       7.504  -2.476  -1.813  0.00  0.00    +0.115 A 
ATOM      9  N   UNL     1       7.739  -1.959  -3.004  0.00  0.00    -0.263 NA
ATOM     10  C   UNL     1       8.703  -1.081  -3.199  0.00  0.00    +0.111 A 
ATOM     11  C   UNL     1       9.507  -0.667  -2.153  0.00  0.00    +0.020 A 
ATOM     12  C   UNL     1       9.285  -1.184  -0.887  0.00  0.00    +0.008 A 
ENDBRANCH   3   7
TORSDOF 1
ENDMDL
MODEL 8
REMARK VINA RESULT:    -3.087      1.203      4.470
REMARK INTER + INTRA:          -3.511
REMARK INTER:                  -3.321
REMARK INTRA:                  -0.190
REMARK UNBOUND:                -0.243
REMARK  Name = Nicotine.pdb
REMARK  2 active torsions:
REMARK  status: ('A' for Active; 'I' for Inactive)
REMARK    1  A    between atoms: C_3  and  C_6
REMARK    2  A    between atoms: N_4  and  C_12
REMARK                            x       y       z     vdW  Elec       q    Type
REMARK                         _______ _______ _______ _____ _____    ______ ____
ROOT
ATOM      1  C   UNL     1       9.332  -2.972  -5.678  0.00  0.00    +0.017 C 
ATOM      2  C   UNL     1       8.112  -3.461  -4.853  0.00  0.00    +0.025 C 
ATOM      3  C   UNL     1       7.981  -2.383  -3.756  0.00  0.00    +0.088 C 
ATOM      4  N   UNL     1       9.295  -1.728  -3.628  0.00  0.00    -0.298 NA
ATOM      5  C   UNL     1      10.234  -2.367  -4.573  0.00  0.00    +0.085 C 
ATOM      6  C   UNL     1       9.192  -0.285  -3.881  0.00  0.00    +0.105 C 
ENDROOT
BRANCH   3   7
ATOM      7  C   UNL     1       7.597  -3.026  -2.449  0.00  0.00    -0.012 A 
ATOM      8  C   UNL     1       7.191  -4.347  -2.412  0.00  0.00    +0.115 A 
ATOM      9  N   UNL     1       6.853  -4.917  -1.272  0.00  0.00    -0.263 NA
ATOM     10  C   UNL     1       6.887  -4.258  -0.131  0.00  0.00    +0.111 A 
ATOM     11  C   UNL     1       7.283  -2.934  -0.089  0.00  0.00    +0.020 A 
ATOM     12  C   UNL     1       7.650  -2.302  -1.267  0.00  0.00    +0.008 A 
ENDBRANCH   3   7
TORSDOF 1
ENDMDL
MODEL 9
REMARK VINA RESULT:    -2.991      1.843      3.766
REMARK INTER + INTRA:          -3.409
REMARK INTER:                  -3.181
REMARK INTRA:                  -0.228
REMARK UNBOUND:                -0.243
REMARK  Name = Nicotine.pdb
REMARK  2 active torsions:
REMARK  status: ('A' for Active; 'I' for Inactive)
REMARK    1  A    between atoms: C_3  and  C_6
REMARK    2  A    between atoms: N_4  and  C_12
REMARK                            x       y       z     vdW  Elec       q    Type
REMARK                         _______ _______ _______ _____ _____    ______ ____
ROOT
ATOM      1  C   UNL     1       9.596  -0.590  -2.345  0.00  0.00    +0.017 C 
ATOM      2  C   UNL     1       8.645  -1.188  -3.415  0.00  0.00    +0.025 C 
ATOM      3  C   UNL     1       7.823  -2.218  -2.611  0.00  0.00    +0.088 C 
ATOM      4  N   UNL     1       8.611  -2.570  -1.416  0.00  0.00    -0.298 NA
ATOM      5  C   UNL     1       9.889  -1.826  -1.459  0.00  0.00    +0.085 C 
ATOM      6  C   UNL     1       7.867  -2.268  -0.186  0.00  0.00    +0.105 C 
ENDROOT
BRANCH   3   7
ATOM      7  C   UNL     1       7.582  -3.447  -3.448  0.00  0.00    -0.012 A 
ATOM      8  C   UNL     1       7.016  -4.576  -2.885  0.00  0.00    +0.115 A 
ATOM      9  N   UNL     1       6.801  -5.656  -3.610  0.00  0.00    -0.263 NA
ATOM     10  C   UNL     1       7.114  -5.705  -4.890  0.00  0.00    +0.111 A 
ATOM     11  C   UNL     1       7.683  -4.615  -5.522  0.00  0.00    +0.020 A 
ATOM     12  C   UNL     1       7.918  -3.459  -4.793  0.00  0.00    +0.008 A 
ENDBRANCH   3   7
TORSDOF 1
ENDMDL
MODEL 10
REMARK VINA RESULT:    -2.969      2.962      5.732
REMARK INTER + INTRA:          -3.386
REMARK INTER:                  -3.131
REMARK INTRA:                  -0.254
REMARK UNBOUND:                -0.243
REMARK  Name = Nicotine.pdb
REMARK  2 active torsions:
REMARK  status: ('A' for Active; 'I' for Inactive)
REMARK    1  A    between atoms: C_3  and  C_6
REMARK    2  A    between atoms: N_4  and  C_12
REMARK                            x       y       z     vdW  Elec       q    Type
REMARK                         _______ _______ _______ _____ _____    ______ ____
ROOT
ATOM      1  C   UNL     1       7.483  -2.643  -2.349  0.00  0.00    +0.017 C 
ATOM      2  C   UNL     1       6.839  -2.980  -0.978  0.00  0.00    +0.025 C 
ATOM      3  C   UNL     1       7.997  -2.746   0.016  0.00  0.00    +0.088 C 
ATOM      4  N   UNL     1       9.255  -2.852  -0.746  0.00  0.00    -0.298 NA
ATOM      5  C   UNL     1       8.928  -3.166  -2.153  0.00  0.00    +0.085 C 
ATOM      6  C   UNL     1      10.036  -1.612  -0.649  0.00  0.00    +0.105 C 
ENDROOT
BRANCH   3   7
ATOM      7  C   UNL     1       7.962  -3.792   1.100  0.00  0.00    -0.012 A 
ATOM      8  C   UNL     1       8.709  -3.631   2.251  0.00  0.00    +0.115 A 
ATOM      9  N   UNL     1       8.684  -4.541   3.205  0.00  0.00    -0.263 NA
ATOM     10  C   UNL     1       7.953  -5.634   3.101  0.00  0.00    +0.111 A 
ATOM     11  C   UNL     1       7.180  -5.863   1.978  0.00  0.00    +0.020 A 
ATOM     12  C   UNL     1       7.176  -4.925   0.958  0.00  0.00    +0.008 A 
ENDBRANCH   3   7
TORSDOF 1
ENDMDL
