MODEL 1
REMARK VINA RESULT:    -2.686      0.000      0.000
REMARK INTER + INTRA:          -3.056
REMARK INTER:                  -2.843
REMARK INTRA:                  -0.213
REMARK UNBOUND:                -0.213
REMARK  Name = Nicotine.pdb
REMARK  2 active torsions:
REMARK  status: ('A' for Active; 'I' for Inactive)
REMARK    1  A    between atoms: C_3  and  C_6
REMARK    2  A    between atoms: N_4  and  C_12
REMARK                            x       y       z     vdW  Elec       q    Type
REMARK                         _______ _______ _______ _____ _____    ______ ____
ROOT
ATOM      1  C   UNL     1       4.954   5.810  -4.256  0.00  0.00    +0.017 C 
ATOM      2  C   UNL     1       6.195   6.604  -4.745  0.00  0.00    +0.025 C 
ATOM      3  C   UNL     1       6.448   6.019  -6.151  0.00  0.00    +0.088 C 
ATOM      4  N   UNL     1       5.820   4.686  -6.189  0.00  0.00    -0.298 NA
ATOM      5  C   UNL     1       5.216   4.412  -4.868  0.00  0.00    +0.085 C 
ATOM      6  C   UNL     1       4.814   4.608  -7.256  0.00  0.00    +0.105 C 
ENDROOT
BRANCH   3   7
ATOM      7  C   UNL     1       7.930   5.897  -6.396  0.00  0.00    -0.012 A 
ATOM      8  C   UNL     1       8.718   7.028  -6.495  0.00  0.00    +0.115 A 
ATOM      9  N   UNL     1      10.015   6.930  -6.709  0.00  0.00    -0.263 NA
ATOM     10  C   UNL     1      10.610   5.760  -6.837  0.00  0.00    +0.111 A 
ATOM     11  C   UNL     1       9.887   4.585  -6.749  0.00  0.00    +0.020 A 
ATOM     12  C   UNL     1       8.521   4.649  -6.519  0.00  0.00    +0.008 A 
ENDBRANCH   3   7
TORSDOF 1
ENDMDL
MODEL 2
REMARK VINA RESULT:    -1.766      1.015      2.064
REMARK INTER + INTRA:          -2.082
REMARK INTER:                  -1.875
REMARK INTRA:                  -0.207
REMARK UNBOUND:                -0.213
REMARK  Name = Nicotine.pdb
REMARK  2 active torsions:
REMARK  status: ('A' for Active; 'I' for Inactive)
REMARK    1  A    between atoms: C_3  and  C_6
REMARK    2  A    between atoms: N_4  and  C_12
REMARK                            x       y       z     vdW  Elec       q    Type
REMARK                         _______ _______ _______ _____ _____    ______ ____
ROOT
ATOM      1  C   UNL     1       5.141   3.633  -7.255  0.00  0.00    +0.017 C 
ATOM      2  C   UNL     1       6.681   3.457  -7.169  0.00  0.00    +0.025 C 
ATOM      3  C   UNL     1       7.089   4.490  -6.098  0.00  0.00    +0.088 C 
ATOM      4  N   UNL     1       6.020   5.504  -6.039  0.00  0.00    -0.298 NA
ATOM      5  C   UNL     1       4.988   5.159  -7.039  0.00  0.00    +0.085 C 
ATOM      6  C   UNL     1       5.442   5.583  -4.691  0.00  0.00    +0.105 C 
ENDROOT
BRANCH   3   7
ATOM      7  C   UNL     1       8.393   5.140  -6.482  0.00  0.00    -0.012 A 
ATOM      8  C   UNL     1       8.419   6.452  -6.915  0.00  0.00    +0.115 A 
ATOM      9  N   UNL     1       9.557   7.028  -7.253  0.00  0.00    -0.263 NA
ATOM     10  C   UNL     1      10.705   6.383  -7.193  0.00  0.00    +0.111 A 
ATOM     11  C   UNL     1      10.757   5.068  -6.769  0.00  0.00    +0.020 A 
ATOM     12  C   UNL     1       9.582   4.431  -6.400  0.00  0.00    +0.008 A 
ENDBRANCH   3   7
TORSDOF 1
ENDMDL
MODEL 3
REMARK VINA RESULT:    -0.991     10.856     11.608
REMARK INTER + INTRA:          -1.262
REMARK INTER:                  -1.031
REMARK INTRA:                  -0.232
REMARK UNBOUND:                -0.213
REMARK  Name = Nicotine.pdb
REMARK  2 active torsions:
REMARK  status: ('A' for Active; 'I' for Inactive)
REMARK    1  A    between atoms: C_3  and  C_6
REMARK    2  A    between atoms: N_4  and  C_12
REMARK                            x       y       z     vdW  Elec       q    Type
REMARK                         _______ _______ _______ _____ _____    ______ ____
ROOT
ATOM      1  C   UNL     1       9.875   0.389   0.439  0.00  0.00    +0.017 C 
ATOM      2  C   UNL     1      10.676   1.317   1.390  0.00  0.00    +0.025 C 
ATOM      3  C   UNL     1      10.954   0.410   2.607  0.00  0.00    +0.088 C 
ATOM      4  N   UNL     1       9.941  -0.661   2.594  0.00  0.00    -0.298 NA
ATOM      5  C   UNL     1       9.038  -0.442   1.444  0.00  0.00    +0.085 C 
ATOM      6  C   UNL     1      10.573  -1.984   2.524  0.00  0.00    +0.105 C 
ENDROOT
BRANCH   3   7
ATOM      7  C   UNL     1      10.840   1.210   3.879  0.00  0.00    -0.012 A 
ATOM      8  C   UNL     1      10.913   0.582   5.108  0.00  0.00    +0.115 A 
ATOM      9  N   UNL     1      10.815   1.275   6.226  0.00  0.00    -0.263 NA
ATOM     10  C   UNL     1      10.645   2.582   6.219  0.00  0.00    +0.111 A 
ATOM     11  C   UNL     1      10.564   3.279   5.027  0.00  0.00    +0.020 A 
ATOM     12  C   UNL     1      10.668   2.585   3.831  0.00  0.00    +0.008 A 
ENDBRANCH   3   7
TORSDOF 1
ENDMDL
