MODEL 1
REMARK VINA RESULT:    22.322      0.000      0.000
REMARK INTER + INTRA:          23.434
REMARK INTER:                  23.627
REMARK INTRA:                  -0.194
REMARK UNBOUND:                -0.194
REMARK  Name = Nicotine.pdb
REMARK  2 active torsions:
REMARK  status: ('A' for Active; 'I' for Inactive)
REMARK    1  A    between atoms: C_3  and  C_6
REMARK    2  A    between atoms: N_4  and  C_12
REMARK                            x       y       z     vdW  Elec       q    Type
REMARK                         _______ _______ _______ _____ _____    ______ ____
ROOT
ATOM      1  C   UNL     1       9.834  -6.081   5.817  0.00  0.00    +0.017 C 
ATOM      2  C   UNL     1       8.359  -6.095   5.338  0.00  0.00    +0.025 C 
ATOM      3  C   UNL     1       8.488  -5.899   3.812  0.00  0.00    +0.088 C 
ATOM      4  N   UNL     1       9.794  -5.265   3.562  0.00  0.00    -0.298 NA
ATOM      5  C   UNL     1      10.464  -5.038   4.861  0.00  0.00    +0.085 C 
ATOM      6  C   UNL     1      10.623  -6.096   2.679  0.00  0.00    +0.105 C 
ENDROOT
BRANCH   3   7
ATOM      7  C   UNL     1       7.380  -5.008   3.315  0.00  0.00    -0.012 A 
ATOM      8  C   UNL     1       7.122  -3.800   3.935  0.00  0.00    +0.115 A 
ATOM      9  N   UNL     1       6.155  -3.013   3.506  0.00  0.00    -0.263 NA
ATOM     10  C   UNL     1       5.399  -3.343   2.477  0.00  0.00    +0.111 A 
ATOM     11  C   UNL     1       5.597  -4.535   1.806  0.00  0.00    +0.020 A 
ATOM     12  C   UNL     1       6.609  -5.385   2.226  0.00  0.00    +0.008 A 
ENDBRANCH   3   7
TORSDOF 1
ENDMDL
MODEL 2
REMARK VINA RESULT:    22.838      2.155      3.278
REMARK INTER + INTRA:          23.980
REMARK INTER:                  24.231
REMARK INTRA:                  -0.251
REMARK UNBOUND:                -0.194
REMARK  Name = Nicotine.pdb
REMARK  2 active torsions:
REMARK  status: ('A' for Active; 'I' for Inactive)
REMARK    1  A    between atoms: C_3  and  C_6
REMARK    2  A    between atoms: N_4  and  C_12
REMARK                            x       y       z     vdW  Elec       q    Type
REMARK                         _______ _______ _______ _____ _____    ______ ____
ROOT
ATOM      1  C   UNL     1       7.121  -5.300   6.002  0.00  0.00    +0.017 C 
ATOM      2  C   UNL     1       7.207  -5.833   4.548  0.00  0.00    +0.025 C 
ATOM      3  C   UNL     1       8.716  -6.097   4.363  0.00  0.00    +0.088 C 
ATOM      4  N   UNL     1       9.429  -5.265   5.350  0.00  0.00    -0.298 NA
ATOM      5  C   UNL     1       8.434  -4.484   6.115  0.00  0.00    +0.085 C 
ATOM      6  C   UNL     1      10.248  -6.094   6.244  0.00  0.00    +0.105 C 
ENDROOT
BRANCH   3   7
ATOM      7  C   UNL     1       9.137  -5.713   2.968  0.00  0.00    -0.012 A 
ATOM      8  C   UNL     1      10.397  -6.039   2.504  0.00  0.00    +0.115 A 
ATOM      9  N   UNL     1      10.774  -5.707   1.284  0.00  0.00    -0.263 NA
ATOM     10  C   UNL     1       9.972  -5.057   0.464  0.00  0.00    +0.111 A 
ATOM     11  C   UNL     1       8.696  -4.698   0.859  0.00  0.00    +0.020 A 
ATOM     12  C   UNL     1       8.264  -5.034   2.132  0.00  0.00    +0.008 A 
ENDBRANCH   3   7
TORSDOF 1
ENDMDL
