MODEL 1
REMARK VINA RESULT:     5.049      0.000      0.000
REMARK INTER + INTRA:           5.139
REMARK INTER:                   5.345
REMARK INTRA:                  -0.206
REMARK UNBOUND:                -0.206
REMARK  Name = Nicotine.pdb
REMARK  2 active torsions:
REMARK  status: ('A' for Active; 'I' for Inactive)
REMARK    1  A    between atoms: C_3  and  C_6
REMARK    2  A    between atoms: N_4  and  C_12
REMARK                            x       y       z     vdW  Elec       q    Type
REMARK                         _______ _______ _______ _____ _____    ______ ____
ROOT
ATOM      1  C   UNL     1       9.358  -0.526   6.243  0.00  0.00    +0.017 C 
ATOM      2  C   UNL     1      10.463  -1.588   5.999  0.00  0.00    +0.025 C 
ATOM      3  C   UNL     1      10.343  -1.872   4.486  0.00  0.00    +0.088 C 
ATOM      4  N   UNL     1       8.983  -1.481   4.075  0.00  0.00    -0.298 NA
ATOM      5  C   UNL     1       8.252  -0.995   5.265  0.00  0.00    +0.085 C 
ATOM      6  C   UNL     1       9.024  -0.455   3.025  0.00  0.00    +0.105 C 
ENDROOT
BRANCH   3   7
ATOM      7  C   UNL     1      10.558  -3.340   4.222  0.00  0.00    -0.012 A 
ATOM      8  C   UNL     1      10.759  -4.217   5.271  0.00  0.00    +0.115 A 
ATOM      9  N   UNL     1      10.948  -5.503   5.048  0.00  0.00    -0.263 NA
ATOM     10  C   UNL     1      10.953  -6.002   3.828  0.00  0.00    +0.111 A 
ATOM     11  C   UNL     1      10.758  -5.186   2.729  0.00  0.00    +0.020 A 
ATOM     12  C   UNL     1      10.551  -3.829   2.924  0.00  0.00    +0.008 A 
ENDBRANCH   3   7
TORSDOF 1
ENDMDL
