MODEL 1
REMARK VINA RESULT:    -3.259      0.000      0.000
REMARK INTER + INTRA:          -3.663
REMARK INTER:                  -3.449
REMARK INTRA:                  -0.214
REMARK UNBOUND:                -0.214
REMARK  Name = Nicotine.pdb
REMARK  2 active torsions:
REMARK  status: ('A' for Active; 'I' for Inactive)
REMARK    1  A    between atoms: C_3  and  C_6
REMARK    2  A    between atoms: N_4  and  C_12
REMARK                            x       y       z     vdW  Elec       q    Type
REMARK                         _______ _______ _______ _____ _____    ______ ____
ROOT
ATOM      1  C   UNL     1       9.608   6.376  -2.274  0.00  0.00    +0.017 C 
ATOM      2  C   UNL     1       8.216   5.885  -2.751  0.00  0.00    +0.025 C 
ATOM      3  C   UNL     1       8.481   5.452  -4.209  0.00  0.00    +0.088 C 
ATOM      4  N   UNL     1       9.692   6.161  -4.662  0.00  0.00    -0.298 NA
ATOM      5  C   UNL     1      10.169   7.028  -3.563  0.00  0.00    +0.085 C 
ATOM      6  C   UNL     1      10.734   5.213  -5.076  0.00  0.00    +0.105 C 
ENDROOT
BRANCH   3   7
ATOM      7  C   UNL     1       7.309   5.829  -5.077  0.00  0.00    -0.012 A 
ATOM      8  C   UNL     1       6.338   6.692  -4.605  0.00  0.00    +0.115 A 
ATOM      9  N   UNL     1       5.309   7.028  -5.358  0.00  0.00    -0.263 NA
ATOM     10  C   UNL     1       5.164   6.559  -6.581  0.00  0.00    +0.111 A 
ATOM     11  C   UNL     1       6.095   5.692  -7.122  0.00  0.00    +0.020 A 
ATOM     12  C   UNL     1       7.193   5.320  -6.361  0.00  0.00    +0.008 A 
ENDBRANCH   3   7
TORSDOF 1
ENDMDL
MODEL 2
REMARK VINA RESULT:    -3.084      1.436      4.509
REMARK INTER + INTRA:          -3.479
REMARK INTER:                  -3.230
REMARK INTRA:                  -0.249
REMARK UNBOUND:                -0.214
REMARK  Name = Nicotine.pdb
REMARK  2 active torsions:
REMARK  status: ('A' for Active; 'I' for Inactive)
REMARK    1  A    between atoms: C_3  and  C_6
REMARK    2  A    between atoms: N_4  and  C_12
REMARK                            x       y       z     vdW  Elec       q    Type
REMARK                         _______ _______ _______ _____ _____    ______ ____
ROOT
ATOM      1  C   UNL     1       7.480   5.538  -7.234  0.00  0.00    +0.017 C 
ATOM      2  C   UNL     1       8.198   4.870  -6.031  0.00  0.00    +0.025 C 
ATOM      3  C   UNL     1       7.597   5.608  -4.815  0.00  0.00    +0.088 C 
ATOM      4  N   UNL     1       7.080   6.900  -5.300  0.00  0.00    -0.298 NA
ATOM      5  C   UNL     1       7.355   7.004  -6.749  0.00  0.00    +0.085 C 
ATOM      6  C   UNL     1       5.642   7.028  -5.026  0.00  0.00    +0.105 C 
ENDROOT
BRANCH   3   7
ATOM      7  C   UNL     1       8.665   5.838  -3.777  0.00  0.00    -0.012 A 
ATOM      8  C   UNL     1       8.333   6.345  -2.535  0.00  0.00    +0.115 A 
ATOM      9  N   UNL     1       9.262   6.550  -1.620  0.00  0.00    -0.263 NA
ATOM     10  C   UNL     1      10.532   6.283  -1.851  0.00  0.00    +0.111 A 
ATOM     11  C   UNL     1      10.938   5.774  -3.070  0.00  0.00    +0.020 A 
ATOM     12  C   UNL     1       9.990   5.540  -4.054  0.00  0.00    +0.008 A 
ENDBRANCH   3   7
TORSDOF 1
ENDMDL
MODEL 3
REMARK VINA RESULT:    -2.858      1.622      4.359
REMARK INTER + INTRA:          -3.240
REMARK INTER:                  -3.055
REMARK INTRA:                  -0.184
REMARK UNBOUND:                -0.214
REMARK  Name = Nicotine.pdb
REMARK  2 active torsions:
REMARK  status: ('A' for Active; 'I' for Inactive)
REMARK    1  A    between atoms: C_3  and  C_6
REMARK    2  A    between atoms: N_4  and  C_12
REMARK                            x       y       z     vdW  Elec       q    Type
REMARK                         _______ _______ _______ _____ _____    ______ ____
ROOT
ATOM      1  C   UNL     1       6.083   6.238  -5.841  0.00  0.00    +0.017 C 
ATOM      2  C   UNL     1       6.675   6.927  -4.583  0.00  0.00    +0.025 C 
ATOM      3  C   UNL     1       8.184   6.993  -4.901  0.00  0.00    +0.088 C 
ATOM      4  N   UNL     1       8.464   5.954  -5.907  0.00  0.00    -0.298 NA
ATOM      5  C   UNL     1       7.207   5.235  -6.205  0.00  0.00    +0.085 C 
ATOM      6  C   UNL     1       9.038   6.541  -7.125  0.00  0.00    +0.105 C 
ENDROOT
BRANCH   3   7
ATOM      7  C   UNL     1       8.982   6.728  -3.651  0.00  0.00    -0.012 A 
ATOM      8  C   UNL     1       8.454   7.021  -2.408  0.00  0.00    +0.115 A 
ATOM      9  N   UNL     1       9.146   6.791  -1.309  0.00  0.00    -0.263 NA
ATOM     10  C   UNL     1      10.360   6.278  -1.349  0.00  0.00    +0.111 A 
ATOM     11  C   UNL     1      10.954   5.959  -2.556  0.00  0.00    +0.020 A 
ATOM     12  C   UNL     1      10.254   6.181  -3.732  0.00  0.00    +0.008 A 
ENDBRANCH   3   7
TORSDOF 1
ENDMDL
MODEL 4
REMARK VINA RESULT:    -2.639      1.129      1.494
REMARK INTER + INTRA:          -3.007
REMARK INTER:                  -2.787
REMARK INTRA:                  -0.220
REMARK UNBOUND:                -0.214
REMARK  Name = Nicotine.pdb
REMARK  2 active torsions:
REMARK  status: ('A' for Active; 'I' for Inactive)
REMARK    1  A    between atoms: C_3  and  C_6
REMARK    2  A    between atoms: N_4  and  C_12
REMARK                            x       y       z     vdW  Elec       q    Type
REMARK                         _______ _______ _______ _____ _____    ______ ____
ROOT
ATOM      1  C   UNL     1       9.200   6.303  -1.674  0.00  0.00    +0.017 C 
ATOM      2  C   UNL     1       7.957   5.925  -2.521  0.00  0.00    +0.025 C 
ATOM      3  C   UNL     1       8.564   5.599  -3.902  0.00  0.00    +0.088 C 
ATOM      4  N   UNL     1       9.869   6.279  -3.977  0.00  0.00    -0.298 NA
ATOM      5  C   UNL     1      10.083   7.028  -2.720  0.00  0.00    +0.085 C 
ATOM      6  C   UNL     1      10.954   5.316  -4.207  0.00  0.00    +0.105 C 
ENDROOT
BRANCH   3   7
ATOM      7  C   UNL     1       7.657   6.106  -4.993  0.00  0.00    -0.012 A 
ATOM      8  C   UNL     1       8.120   6.218  -6.291  0.00  0.00    +0.115 A 
ATOM      9  N   UNL     1       7.332   6.661  -7.252  0.00  0.00    -0.263 NA
ATOM     10  C   UNL     1       6.083   7.011  -7.018  0.00  0.00    +0.111 A 
ATOM     11  C   UNL     1       5.550   6.925  -5.745  0.00  0.00    +0.020 A 
ATOM     12  C   UNL     1       6.347   6.460  -4.710  0.00  0.00    +0.008 A 
ENDBRANCH   3   7
TORSDOF 1
ENDMDL
MODEL 5
REMARK VINA RESULT:    -2.182      1.218      2.156
REMARK INTER + INTRA:          -2.523
REMARK INTER:                  -2.309
REMARK INTRA:                  -0.215
REMARK UNBOUND:                -0.214
REMARK  Name = Nicotine.pdb
REMARK  2 active torsions:
REMARK  status: ('A' for Active; 'I' for Inactive)
REMARK    1  A    between atoms: C_3  and  C_6
REMARK    2  A    between atoms: N_4  and  C_12
REMARK                            x       y       z     vdW  Elec       q    Type
REMARK                         _______ _______ _______ _____ _____    ______ ____
ROOT
ATOM      1  C   UNL     1      10.879   5.028  -5.796  0.00  0.00    +0.017 C 
ATOM      2  C   UNL     1       9.804   5.795  -6.610  0.00  0.00    +0.025 C 
ATOM      3  C   UNL     1       9.152   6.708  -5.550  0.00  0.00    +0.088 C 
ATOM      4  N   UNL     1       9.412   6.102  -4.232  0.00  0.00    -0.298 NA
ATOM      5  C   UNL     1      10.169   4.847  -4.431  0.00  0.00    +0.085 C 
ATOM      6  C   UNL     1      10.146   7.028  -3.361  0.00  0.00    +0.105 C 
ENDROOT
BRANCH   3   7
ATOM      7  C   UNL     1       7.668   6.796  -5.792  0.00  0.00    -0.012 A 
ATOM      8  C   UNL     1       6.794   6.948  -4.732  0.00  0.00    +0.115 A 
ATOM      9  N   UNL     1       5.494   7.027  -4.935  0.00  0.00    -0.263 NA
ATOM     10  C   UNL     1       4.976   6.963  -6.146  0.00  0.00    +0.111 A 
ATOM     11  C   UNL     1       5.788   6.812  -7.255  0.00  0.00    +0.020 A 
ATOM     12  C   UNL     1       7.161   6.732  -7.081  0.00  0.00    +0.008 A 
ENDBRANCH   3   7
TORSDOF 1
ENDMDL
MODEL 6
REMARK VINA RESULT:    -1.969      1.709      4.546
REMARK INTER + INTRA:          -2.298
REMARK INTER:                  -2.049
REMARK INTRA:                  -0.250
REMARK UNBOUND:                -0.214
REMARK  Name = Nicotine.pdb
REMARK  2 active torsions:
REMARK  status: ('A' for Active; 'I' for Inactive)
REMARK    1  A    between atoms: C_3  and  C_6
REMARK    2  A    between atoms: N_4  and  C_12
REMARK                            x       y       z     vdW  Elec       q    Type
REMARK                         _______ _______ _______ _____ _____    ______ ____
ROOT
ATOM      1  C   UNL     1      10.527   5.545  -6.994  0.00  0.00    +0.017 C 
ATOM      2  C   UNL     1      10.620   5.005  -5.543  0.00  0.00    +0.025 C 
ATOM      3  C   UNL     1       9.316   5.518  -4.897  0.00  0.00    +0.088 C 
ATOM      4  N   UNL     1       8.862   6.675  -5.690  0.00  0.00    -0.298 NA
ATOM      5  C   UNL     1       9.836   6.914  -6.775  0.00  0.00    +0.085 C 
ATOM      6  C   UNL     1       7.515   6.448  -6.230  0.00  0.00    +0.105 C 
ENDROOT
BRANCH   3   7
ATOM      7  C   UNL     1       9.580   5.941  -3.475  0.00  0.00    -0.012 A 
ATOM      8  C   UNL     1       8.653   5.678  -2.484  0.00  0.00    +0.115 A 
ATOM      9  N   UNL     1       8.876   6.045  -1.237  0.00  0.00    -0.263 NA
ATOM     10  C   UNL     1       9.981   6.672  -0.886  0.00  0.00    +0.111 A 
ATOM     11  C   UNL     1      10.954   6.968  -1.822  0.00  0.00    +0.020 A 
ATOM     12  C   UNL     1      10.757   6.594  -3.143  0.00  0.00    +0.008 A 
ENDBRANCH   3   7
TORSDOF 1
ENDMDL
