MODEL 1
REMARK VINA RESULT:    -3.440      0.000      0.000
REMARK INTER + INTRA:          -3.854
REMARK INTER:                  -3.641
REMARK INTRA:                  -0.213
REMARK UNBOUND:                -0.213
REMARK  Name = Nicotine.pdb
REMARK  2 active torsions:
REMARK  status: ('A' for Active; 'I' for Inactive)
REMARK    1  A    between atoms: C_3  and  C_6
REMARK    2  A    between atoms: N_4  and  C_12
REMARK                            x       y       z     vdW  Elec       q    Type
REMARK                         _______ _______ _______ _____ _____    ______ ____
ROOT
ATOM      1  C   UNL     1      -3.616  -5.892   3.157  0.00  0.00    +0.017 C 
ATOM      2  C   UNL     1      -3.330  -4.374   3.013  0.00  0.00    +0.025 C 
ATOM      3  C   UNL     1      -3.018  -3.941   4.462  0.00  0.00    +0.088 C 
ATOM      4  N   UNL     1      -3.632  -4.938   5.358  0.00  0.00    -0.298 NA
ATOM      5  C   UNL     1      -4.328  -5.948   4.532  0.00  0.00    +0.085 C 
ATOM      6  C   UNL     1      -2.622  -5.566   6.219  0.00  0.00    +0.105 C 
ENDROOT
BRANCH   3   7
ATOM      7  C   UNL     1      -3.606  -2.580   4.728  0.00  0.00    -0.012 A 
ATOM      8  C   UNL     1      -3.098  -1.463   4.092  0.00  0.00    +0.115 A 
ATOM      9  N   UNL     1      -3.607  -0.267   4.319  0.00  0.00    -0.263 NA
ATOM     10  C   UNL     1      -4.611  -0.089   5.155  0.00  0.00    +0.111 A 
ATOM     11  C   UNL     1      -5.171  -1.159   5.827  0.00  0.00    +0.020 A 
ATOM     12  C   UNL     1      -4.666  -2.432   5.609  0.00  0.00    +0.008 A 
ENDBRANCH   3   7
TORSDOF 1
ENDMDL
MODEL 2
REMARK VINA RESULT:    -2.503      1.231      4.518
REMARK INTER + INTRA:          -2.862
REMARK INTER:                  -2.628
REMARK INTRA:                  -0.234
REMARK UNBOUND:                -0.213
REMARK  Name = Nicotine.pdb
REMARK  2 active torsions:
REMARK  status: ('A' for Active; 'I' for Inactive)
REMARK    1  A    between atoms: C_3  and  C_6
REMARK    2  A    between atoms: N_4  and  C_12
REMARK                            x       y       z     vdW  Elec       q    Type
REMARK                         _______ _______ _______ _____ _____    ______ ____
ROOT
ATOM      1  C   UNL     1      -4.881  -0.517   5.169  0.00  0.00    +0.017 C 
ATOM      2  C   UNL     1      -5.072  -2.056   5.146  0.00  0.00    +0.025 C 
ATOM      3  C   UNL     1      -3.654  -2.586   5.446  0.00  0.00    +0.088 C 
ATOM      4  N   UNL     1      -2.704  -1.519   5.086  0.00  0.00    -0.298 NA
ATOM      5  C   UNL     1      -3.466  -0.368   4.556  0.00  0.00    +0.085 C 
ATOM      6  C   UNL     1      -1.891  -1.124   6.244  0.00  0.00    +0.105 C 
ENDROOT
BRANCH   3   7
ATOM      7  C   UNL     1      -3.382  -3.817   4.620  0.00  0.00    -0.012 A 
ATOM      8  C   UNL     1      -2.894  -4.965   5.216  0.00  0.00    +0.115 A 
ATOM      9  N   UNL     1      -2.653  -6.046   4.500  0.00  0.00    -0.263 NA
ATOM     10  C   UNL     1      -2.864  -6.078   3.199  0.00  0.00    +0.111 A 
ATOM     11  C   UNL     1      -3.352  -4.968   2.534  0.00  0.00    +0.020 A 
ATOM     12  C   UNL     1      -3.622  -3.815   3.254  0.00  0.00    +0.008 A 
ENDBRANCH   3   7
TORSDOF 1
ENDMDL
MODEL 3
REMARK VINA RESULT:    -1.454      2.759      4.376
REMARK INTER + INTRA:          -1.752
REMARK INTER:                  -1.547
REMARK INTRA:                  -0.205
REMARK UNBOUND:                -0.213
REMARK  Name = Nicotine.pdb
REMARK  2 active torsions:
REMARK  status: ('A' for Active; 'I' for Inactive)
REMARK    1  A    between atoms: C_3  and  C_6
REMARK    2  A    between atoms: N_4  and  C_12
REMARK                            x       y       z     vdW  Elec       q    Type
REMARK                         _______ _______ _______ _____ _____    ______ ____
ROOT
ATOM      1  C   UNL     1      -4.916  -3.409   5.276  0.00  0.00    +0.017 C 
ATOM      2  C   UNL     1      -3.706  -3.565   6.234  0.00  0.00    +0.025 C 
ATOM      3  C   UNL     1      -3.023  -2.183   6.159  0.00  0.00    +0.088 C 
ATOM      4  N   UNL     1      -3.440  -1.558   4.891  0.00  0.00    -0.298 NA
ATOM      5  C   UNL     1      -4.324  -2.498   4.171  0.00  0.00    +0.085 C 
ATOM      6  C   UNL     1      -4.116  -0.277   5.132  0.00  0.00    +0.105 C 
ENDROOT
BRANCH   3   7
ATOM      7  C   UNL     1      -1.526  -2.349   6.183  0.00  0.00    -0.012 A 
ATOM      8  C   UNL     1      -0.963  -3.610   6.222  0.00  0.00    +0.115 A 
ATOM      9  N   UNL     1       0.347  -3.764   6.243  0.00  0.00    -0.263 NA
ATOM     10  C   UNL     1       1.166  -2.732   6.229  0.00  0.00    +0.111 A 
ATOM     11  C   UNL     1       0.676  -1.440   6.190  0.00  0.00    +0.020 A 
ATOM     12  C   UNL     1      -0.695  -1.239   6.161  0.00  0.00    +0.008 A 
ENDBRANCH   3   7
TORSDOF 1
ENDMDL
MODEL 4
REMARK VINA RESULT:    -1.010      1.502      4.312
REMARK INTER + INTRA:          -1.281
REMARK INTER:                  -1.113
REMARK INTRA:                  -0.168
REMARK UNBOUND:                -0.213
REMARK  Name = Nicotine.pdb
REMARK  2 active torsions:
REMARK  status: ('A' for Active; 'I' for Inactive)
REMARK    1  A    between atoms: C_3  and  C_6
REMARK    2  A    between atoms: N_4  and  C_12
REMARK                            x       y       z     vdW  Elec       q    Type
REMARK                         _______ _______ _______ _____ _____    ______ ____
ROOT
ATOM      1  C   UNL     1      -3.666  -0.688   3.323  0.00  0.00    +0.017 C 
ATOM      2  C   UNL     1      -3.624  -2.239   3.323  0.00  0.00    +0.025 C 
ATOM      3  C   UNL     1      -4.124  -2.600   4.738  0.00  0.00    +0.088 C 
ATOM      4  N   UNL     1      -3.897  -1.423   5.595  0.00  0.00    -0.298 NA
ATOM      5  C   UNL     1      -3.259  -0.365   4.782  0.00  0.00    +0.085 C 
ATOM      6  C   UNL     1      -5.156  -0.948   6.183  0.00  0.00    +0.105 C 
ENDROOT
BRANCH   3   7
ATOM      7  C   UNL     1      -3.351  -3.779   5.269  0.00  0.00    -0.012 A 
ATOM      8  C   UNL     1      -2.062  -3.615   5.740  0.00  0.00    +0.115 A 
ATOM      9  N   UNL     1      -1.378  -4.642   6.207  0.00  0.00    -0.263 NA
ATOM     10  C   UNL     1      -1.890  -5.856   6.243  0.00  0.00    +0.111 A 
ATOM     11  C   UNL     1      -3.173  -6.097   5.790  0.00  0.00    +0.020 A 
ATOM     12  C   UNL     1      -3.924  -5.041   5.297  0.00  0.00    +0.008 A 
ENDBRANCH   3   7
TORSDOF 1
ENDMDL
MODEL 5
REMARK VINA RESULT:    -0.973      2.505      4.369
REMARK INTER + INTRA:          -1.243
REMARK INTER:                  -0.987
REMARK INTRA:                  -0.256
REMARK UNBOUND:                -0.213
REMARK  Name = Nicotine.pdb
REMARK  2 active torsions:
REMARK  status: ('A' for Active; 'I' for Inactive)
REMARK    1  A    between atoms: C_3  and  C_6
REMARK    2  A    between atoms: N_4  and  C_12
REMARK                            x       y       z     vdW  Elec       q    Type
REMARK                         _______ _______ _______ _____ _____    ______ ____
ROOT
ATOM      1  C   UNL     1      -4.661  -0.453   4.698  0.00  0.00    +0.017 C 
ATOM      2  C   UNL     1      -3.293  -1.010   4.223  0.00  0.00    +0.025 C 
ATOM      3  C   UNL     1      -3.159  -2.327   5.016  0.00  0.00    +0.088 C 
ATOM      4  N   UNL     1      -4.031  -2.215   6.199  0.00  0.00    -0.298 NA
ATOM      5  C   UNL     1      -4.674  -0.883   6.186  0.00  0.00    +0.085 C 
ATOM      6  C   UNL     1      -5.036  -3.285   6.217  0.00  0.00    +0.105 C 
ENDROOT
BRANCH   3   7
ATOM      7  C   UNL     1      -1.729  -2.523   5.448  0.00  0.00    -0.012 A 
ATOM      8  C   UNL     1      -1.288  -3.766   5.862  0.00  0.00    +0.115 A 
ATOM      9  N   UNL     1      -0.038  -3.946   6.242  0.00  0.00    -0.263 NA
ATOM     10  C   UNL     1       0.835  -2.958   6.242  0.00  0.00    +0.111 A 
ATOM     11  C   UNL     1       0.467  -1.688   5.840  0.00  0.00    +0.020 A 
ATOM     12  C   UNL     1      -0.838  -1.461   5.430  0.00  0.00    +0.008 A 
ENDBRANCH   3   7
TORSDOF 1
ENDMDL
