MODEL 1
REMARK VINA RESULT:     6.192      0.000      0.000
REMARK INTER + INTRA:           6.386
REMARK INTER:                   6.554
REMARK INTRA:                  -0.169
REMARK UNBOUND:                -0.169
REMARK  Name = Nicotine.pdb
REMARK  2 active torsions:
REMARK  status: ('A' for Active; 'I' for Inactive)
REMARK    1  A    between atoms: C_3  and  C_6
REMARK    2  A    between atoms: N_4  and  C_12
REMARK                            x       y       z     vdW  Elec       q    Type
REMARK                         _______ _______ _______ _____ _____    ______ ____
ROOT
ATOM      1  C   UNL     1       2.466   7.028  -1.573  0.00  0.00    +0.017 C 
ATOM      2  C   UNL     1       2.018   6.884  -3.052  0.00  0.00    +0.025 C 
ATOM      3  C   UNL     1       2.242   5.384  -3.338  0.00  0.00    +0.088 C 
ATOM      4  N   UNL     1       3.233   4.896  -2.362  0.00  0.00    -0.298 NA
ATOM      5  C   UNL     1       3.648   6.028  -1.506  0.00  0.00    +0.085 C 
ATOM      6  C   UNL     1       2.682   3.799  -1.555  0.00  0.00    +0.105 C 
ENDROOT
BRANCH   3   7
ATOM      7  C   UNL     1       2.767   5.202  -4.738  0.00  0.00    -0.012 A 
ATOM      8  C   UNL     1       4.090   5.478  -5.030  0.00  0.00    +0.115 A 
ATOM      9  N   UNL     1       4.558   5.321  -6.253  0.00  0.00    -0.263 NA
ATOM     10  C   UNL     1       3.791   4.900  -7.240  0.00  0.00    +0.111 A 
ATOM     11  C   UNL     1       2.458   4.604  -7.023  0.00  0.00    +0.020 A 
ATOM     12  C   UNL     1       1.932   4.751  -5.749  0.00  0.00    +0.008 A 
ENDBRANCH   3   7
TORSDOF 1
ENDMDL
MODEL 2
REMARK VINA RESULT:     7.263      1.391      4.632
REMARK INTER + INTRA:           7.519
REMARK INTER:                   7.734
REMARK INTRA:                  -0.215
REMARK UNBOUND:                -0.169
REMARK  Name = Nicotine.pdb
REMARK  2 active torsions:
REMARK  status: ('A' for Active; 'I' for Inactive)
REMARK    1  A    between atoms: C_3  and  C_6
REMARK    2  A    between atoms: N_4  and  C_12
REMARK                            x       y       z     vdW  Elec       q    Type
REMARK                         _______ _______ _______ _____ _____    ______ ____
ROOT
ATOM      1  C   UNL     1       5.519   4.796  -6.665  0.00  0.00    +0.017 C 
ATOM      2  C   UNL     1       5.167   4.664  -5.160  0.00  0.00    +0.025 C 
ATOM      3  C   UNL     1       3.627   4.767  -5.153  0.00  0.00    +0.088 C 
ATOM      4  N   UNL     1       3.230   5.459  -6.392  0.00  0.00    -0.298 NA
ATOM      5  C   UNL     1       4.451   5.809  -7.148  0.00  0.00    +0.085 C 
ATOM      6  C   UNL     1       2.333   4.621  -7.199  0.00  0.00    +0.105 C 
ENDROOT
BRANCH   3   7
ATOM      7  C   UNL     1       3.171   5.557  -3.954  0.00  0.00    -0.012 A 
ATOM      8  C   UNL     1       2.022   6.322  -4.017  0.00  0.00    +0.115 A 
ATOM      9  N   UNL     1       1.616   7.017  -2.972  0.00  0.00    -0.263 NA
ATOM     10  C   UNL     1       2.283   7.012  -1.835  0.00  0.00    +0.111 A 
ATOM     11  C   UNL     1       3.441   6.270  -1.697  0.00  0.00    +0.020 A 
ATOM     12  C   UNL     1       3.896   5.523  -2.772  0.00  0.00    +0.008 A 
ENDBRANCH   3   7
TORSDOF 1
ENDMDL
MODEL 3
REMARK VINA RESULT:     8.650      1.422      1.966
REMARK INTER + INTRA:           8.987
REMARK INTER:                   9.201
REMARK INTRA:                  -0.214
REMARK UNBOUND:                -0.169
REMARK  Name = Nicotine.pdb
REMARK  2 active torsions:
REMARK  status: ('A' for Active; 'I' for Inactive)
REMARK    1  A    between atoms: C_3  and  C_6
REMARK    2  A    between atoms: N_4  and  C_12
REMARK                            x       y       z     vdW  Elec       q    Type
REMARK                         _______ _______ _______ _____ _____    ______ ____
ROOT
ATOM      1  C   UNL     1       3.783   7.028  -1.531  0.00  0.00    +0.017 C 
ATOM      2  C   UNL     1       4.605   7.027  -2.847  0.00  0.00    +0.025 C 
ATOM      3  C   UNL     1       3.531   6.774  -3.926  0.00  0.00    +0.088 C 
ATOM      4  N   UNL     1       2.386   6.128  -3.260  0.00  0.00    -0.298 NA
ATOM      5  C   UNL     1       2.713   5.949  -1.830  0.00  0.00    +0.085 C 
ATOM      6  C   UNL     1       1.163   6.924  -3.426  0.00  0.00    +0.105 C 
ENDROOT
BRANCH   3   7
ATOM      7  C   UNL     1       4.083   5.866  -4.995  0.00  0.00    -0.012 A 
ATOM      8  C   UNL     1       5.270   5.189  -4.792  0.00  0.00    +0.115 A 
ATOM      9  N   UNL     1       5.760   4.392  -5.723  0.00  0.00    -0.263 NA
ATOM     10  C   UNL     1       5.144   4.211  -6.874  0.00  0.00    +0.111 A 
ATOM     11  C   UNL     1       3.952   4.855  -7.148  0.00  0.00    +0.020 A 
ATOM     12  C   UNL     1       3.404   5.696  -6.192  0.00  0.00    +0.008 A 
ENDBRANCH   3   7
TORSDOF 1
ENDMDL
