MODEL 1
REMARK VINA RESULT:    -4.735      0.000      0.000
REMARK INTER + INTRA:          -5.199
REMARK INTER:                  -5.012
REMARK INTRA:                  -0.187
REMARK UNBOUND:                -0.187
REMARK  Name = Nicotine.pdb
REMARK  2 active torsions:
REMARK  status: ('A' for Active; 'I' for Inactive)
REMARK    1  A    between atoms: C_3  and  C_6
REMARK    2  A    between atoms: N_4  and  C_12
REMARK                            x       y       z     vdW  Elec       q    Type
REMARK                         _______ _______ _______ _____ _____    ______ ____
ROOT
ATOM      1  C   UNL     1       3.004   5.606  -1.075  0.00  0.00    +0.017 C 
ATOM      2  C   UNL     1       2.822   4.997   0.341  0.00  0.00    +0.025 C 
ATOM      3  C   UNL     1       2.424   3.536   0.042  0.00  0.00    +0.088 C 
ATOM      4  N   UNL     1       1.875   3.504  -1.326  0.00  0.00    -0.298 NA
ATOM      5  C   UNL     1       1.894   4.877  -1.873  0.00  0.00    +0.085 C 
ATOM      6  C   UNL     1       2.641   2.586  -2.179  0.00  0.00    +0.105 C 
ENDROOT
BRANCH   3   7
ATOM      7  C   UNL     1       1.378   3.079   1.026  0.00  0.00    -0.012 A 
ATOM      8  C   UNL     1       1.155   3.789   2.190  0.00  0.00    +0.115 A 
ATOM      9  N   UNL     1       0.242   3.395   3.056  0.00  0.00    -0.263 NA
ATOM     10  C   UNL     1      -0.489   2.318   2.851  0.00  0.00    +0.111 A 
ATOM     11  C   UNL     1      -0.323   1.557   1.708  0.00  0.00    +0.020 A 
ATOM     12  C   UNL     1       0.624   1.943   0.772  0.00  0.00    +0.008 A 
ENDBRANCH   3   7
TORSDOF 1
ENDMDL
MODEL 2
REMARK VINA RESULT:    -4.638      1.108      1.854
REMARK INTER + INTRA:          -5.096
REMARK INTER:                  -4.841
REMARK INTRA:                  -0.256
REMARK UNBOUND:                -0.187
REMARK  Name = Nicotine.pdb
REMARK  2 active torsions:
REMARK  status: ('A' for Active; 'I' for Inactive)
REMARK    1  A    between atoms: C_3  and  C_6
REMARK    2  A    between atoms: N_4  and  C_12
REMARK                            x       y       z     vdW  Elec       q    Type
REMARK                         _______ _______ _______ _____ _____    ______ ____
ROOT
ATOM      1  C   UNL     1       3.098   3.569  -2.352  0.00  0.00    +0.017 C 
ATOM      2  C   UNL     1       1.777   3.672  -1.545  0.00  0.00    +0.025 C 
ATOM      3  C   UNL     1       2.264   4.048  -0.129  0.00  0.00    +0.088 C 
ATOM      4  N   UNL     1       3.670   3.622  -0.023  0.00  0.00    -0.298 NA
ATOM      5  C   UNL     1       4.065   2.979  -1.295  0.00  0.00    +0.085 C 
ATOM      6  C   UNL     1       4.545   4.761   0.285  0.00  0.00    +0.105 C 
ENDROOT
BRANCH   3   7
ATOM      7  C   UNL     1       1.431   3.336   0.905  0.00  0.00    -0.012 A 
ATOM      8  C   UNL     1       1.299   3.859   2.177  0.00  0.00    +0.115 A 
ATOM      9  N   UNL     1       0.572   3.242   3.088  0.00  0.00    -0.263 NA
ATOM     10  C   UNL     1      -0.053   2.111   2.827  0.00  0.00    +0.111 A 
ATOM     11  C   UNL     1       0.033   1.528   1.576  0.00  0.00    +0.020 A 
ATOM     12  C   UNL     1       0.783   2.150   0.591  0.00  0.00    +0.008 A 
ENDBRANCH   3   7
TORSDOF 1
ENDMDL
MODEL 3
REMARK VINA RESULT:    -4.361      1.675      4.385
REMARK INTER + INTRA:          -4.803
REMARK INTER:                  -4.588
REMARK INTRA:                  -0.215
REMARK UNBOUND:                -0.187
REMARK  Name = Nicotine.pdb
REMARK  2 active torsions:
REMARK  status: ('A' for Active; 'I' for Inactive)
REMARK    1  A    between atoms: C_3  and  C_6
REMARK    2  A    between atoms: N_4  and  C_12
REMARK                            x       y       z     vdW  Elec       q    Type
REMARK                         _______ _______ _______ _____ _____    ______ ____
ROOT
ATOM      1  C   UNL     1       1.358   4.067   2.759  0.00  0.00    +0.017 C 
ATOM      2  C   UNL     1       1.985   4.574   1.434  0.00  0.00    +0.025 C 
ATOM      3  C   UNL     1       1.572   3.490   0.416  0.00  0.00    +0.088 C 
ATOM      4  N   UNL     1       1.281   2.263   1.179  0.00  0.00    -0.298 NA
ATOM      5  C   UNL     1       1.519   2.533   2.613  0.00  0.00    +0.085 C 
ATOM      6  C   UNL     1      -0.099   1.814   0.949  0.00  0.00    +0.105 C 
ENDROOT
BRANCH   3   7
ATOM      7  C   UNL     1       2.700   3.238  -0.551  0.00  0.00    -0.012 A 
ATOM      8  C   UNL     1       3.981   3.663  -0.256  0.00  0.00    +0.115 A 
ATOM      9  N   UNL     1       4.974   3.447  -1.097  0.00  0.00    -0.263 NA
ATOM     10  C   UNL     1       4.788   2.822  -2.243  0.00  0.00    +0.111 A 
ATOM     11  C   UNL     1       3.534   2.367  -2.605  0.00  0.00    +0.020 A 
ATOM     12  C   UNL     1       2.467   2.572  -1.744  0.00  0.00    +0.008 A 
ENDBRANCH   3   7
TORSDOF 1
ENDMDL
MODEL 4
REMARK VINA RESULT:    -4.333      1.457      2.493
REMARK INTER + INTRA:          -4.773
REMARK INTER:                  -4.565
REMARK INTRA:                  -0.208
REMARK UNBOUND:                -0.187
REMARK  Name = Nicotine.pdb
REMARK  2 active torsions:
REMARK  status: ('A' for Active; 'I' for Inactive)
REMARK    1  A    between atoms: C_3  and  C_6
REMARK    2  A    between atoms: N_4  and  C_12
REMARK                            x       y       z     vdW  Elec       q    Type
REMARK                         _______ _______ _______ _____ _____    ______ ____
ROOT
ATOM      1  C   UNL     1       4.059   2.764  -2.231  0.00  0.00    +0.017 C 
ATOM      2  C   UNL     1       2.621   2.556  -1.688  0.00  0.00    +0.025 C 
ATOM      3  C   UNL     1       2.486   3.669  -0.627  0.00  0.00    +0.088 C 
ATOM      4  N   UNL     1       3.849   4.049  -0.216  0.00  0.00    -0.298 NA
ATOM      5  C   UNL     1       4.815   3.206  -0.953  0.00  0.00    +0.085 C 
ATOM      6  C   UNL     1       4.097   5.475  -0.465  0.00  0.00    +0.105 C 
ENDROOT
BRANCH   3   7
ATOM      7  C   UNL     1       1.715   3.155   0.561  0.00  0.00    -0.012 A 
ATOM      8  C   UNL     1       0.483   2.554   0.388  0.00  0.00    +0.115 A 
ATOM      9  N   UNL     1      -0.198   2.101   1.423  0.00  0.00    -0.263 NA
ATOM     10  C   UNL     1       0.263   2.201   2.654  0.00  0.00    +0.111 A 
ATOM     11  C   UNL     1       1.489   2.790   2.904  0.00  0.00    +0.020 A 
ATOM     12  C   UNL     1       2.236   3.273   1.841  0.00  0.00    +0.008 A 
ENDBRANCH   3   7
TORSDOF 1
ENDMDL
MODEL 5
REMARK VINA RESULT:    -4.195      1.239      4.451
REMARK INTER + INTRA:          -4.627
REMARK INTER:                  -4.409
REMARK INTRA:                  -0.218
REMARK UNBOUND:                -0.187
REMARK  Name = Nicotine.pdb
REMARK  2 active torsions:
REMARK  status: ('A' for Active; 'I' for Inactive)
REMARK    1  A    between atoms: C_3  and  C_6
REMARK    2  A    between atoms: N_4  and  C_12
REMARK                            x       y       z     vdW  Elec       q    Type
REMARK                         _______ _______ _______ _____ _____    ______ ____
ROOT
ATOM      1  C   UNL     1      -0.591   1.699   1.983  0.00  0.00    +0.017 C 
ATOM      2  C   UNL     1       0.033   2.035   0.603  0.00  0.00    +0.025 C 
ATOM      3  C   UNL     1       1.418   2.604   0.977  0.00  0.00    +0.088 C 
ATOM      4  N   UNL     1       1.334   3.076   2.371  0.00  0.00    -0.298 NA
ATOM      5  C   UNL     1      -0.041   2.849   2.863  0.00  0.00    +0.085 C 
ATOM      6  C   UNL     1       2.318   2.391   3.220  0.00  0.00    +0.105 C 
ENDROOT
BRANCH   3   7
ATOM      7  C   UNL     1       1.765   3.752   0.066  0.00  0.00    -0.012 A 
ATOM      8  C   UNL     1       2.326   4.907   0.578  0.00  0.00    +0.115 A 
ATOM      9  N   UNL     1       2.632   5.917  -0.214  0.00  0.00    -0.263 NA
ATOM     10  C   UNL     1       2.418   5.868  -1.513  0.00  0.00    +0.111 A 
ATOM     11  C   UNL     1       1.860   4.746  -2.097  0.00  0.00    +0.020 A 
ATOM     12  C   UNL     1       1.530   3.663  -1.298  0.00  0.00    +0.008 A 
ENDBRANCH   3   7
TORSDOF 1
ENDMDL
MODEL 6
REMARK VINA RESULT:    -3.525      3.407      4.956
REMARK INTER + INTRA:          -3.918
REMARK INTER:                  -3.705
REMARK INTRA:                  -0.213
REMARK UNBOUND:                -0.187
REMARK  Name = Nicotine.pdb
REMARK  2 active torsions:
REMARK  status: ('A' for Active; 'I' for Inactive)
REMARK    1  A    between atoms: C_3  and  C_6
REMARK    2  A    between atoms: N_4  and  C_12
REMARK                            x       y       z     vdW  Elec       q    Type
REMARK                         _______ _______ _______ _____ _____    ______ ____
ROOT
ATOM      1  C   UNL     1       8.065   2.213  -1.174  0.00  0.00    +0.017 C 
ATOM      2  C   UNL     1       6.648   1.776  -1.631  0.00  0.00    +0.025 C 
ATOM      3  C   UNL     1       5.939   3.121  -1.897  0.00  0.00    +0.088 C 
ATOM      4  N   UNL     1       6.654   4.153  -1.124  0.00  0.00    -0.298 NA
ATOM      5  C   UNL     1       7.752   3.504  -0.376  0.00  0.00    +0.085 C 
ATOM      6  C   UNL     1       7.168   5.209  -2.005  0.00  0.00    +0.105 C 
ENDROOT
BRANCH   3   7
ATOM      7  C   UNL     1       4.504   3.043  -1.445  0.00  0.00    -0.012 A 
ATOM      8  C   UNL     1       3.604   2.231  -2.110  0.00  0.00    +0.115 A 
ATOM      9  N   UNL     1       2.347   2.157  -1.720  0.00  0.00    -0.263 NA
ATOM     10  C   UNL     1       1.898   2.846  -0.690  0.00  0.00    +0.111 A 
ATOM     11  C   UNL     1       2.740   3.678   0.025  0.00  0.00    +0.020 A 
ATOM     12  C   UNL     1       4.070   3.778  -0.352  0.00  0.00    +0.008 A 
ENDBRANCH   3   7
TORSDOF 1
ENDMDL
MODEL 7
REMARK VINA RESULT:    -3.474      3.974      5.710
REMARK INTER + INTRA:          -3.864
REMARK INTER:                  -3.657
REMARK INTRA:                  -0.207
REMARK UNBOUND:                -0.187
REMARK  Name = Nicotine.pdb
REMARK  2 active torsions:
REMARK  status: ('A' for Active; 'I' for Inactive)
REMARK    1  A    between atoms: C_3  and  C_6
REMARK    2  A    between atoms: N_4  and  C_12
REMARK                            x       y       z     vdW  Elec       q    Type
REMARK                         _______ _______ _______ _____ _____    ______ ____
ROOT
ATOM      1  C   UNL     1       2.581   2.990  -1.721  0.00  0.00    +0.017 C 
ATOM      2  C   UNL     1       3.741   3.273  -0.732  0.00  0.00    +0.025 C 
ATOM      3  C   UNL     1       4.922   3.607  -1.668  0.00  0.00    +0.088 C 
ATOM      4  N   UNL     1       4.622   3.007  -2.980  0.00  0.00    -0.298 NA
ATOM      5  C   UNL     1       3.327   2.299  -2.890  0.00  0.00    +0.085 C 
ATOM      6  C   UNL     1       4.591   4.030  -4.033  0.00  0.00    +0.105 C 
ENDROOT
BRANCH   3   7
ATOM      7  C   UNL     1       6.196   3.023  -1.115  0.00  0.00    -0.012 A 
ATOM      8  C   UNL     1       6.826   3.616  -0.037  0.00  0.00    +0.115 A 
ATOM      9  N   UNL     1       7.942   3.111   0.454  0.00  0.00    -0.263 NA
ATOM     10  C   UNL     1       8.498   2.031  -0.059  0.00  0.00    +0.111 A 
ATOM     11  C   UNL     1       7.924   1.383  -1.137  0.00  0.00    +0.020 A 
ATOM     12  C   UNL     1       6.748   1.882  -1.676  0.00  0.00    +0.008 A 
ENDBRANCH   3   7
TORSDOF 1
ENDMDL
MODEL 8
REMARK VINA RESULT:    -3.411      1.787      2.208
REMARK INTER + INTRA:          -3.797
REMARK INTER:                  -3.583
REMARK INTRA:                  -0.214
REMARK UNBOUND:                -0.187
REMARK  Name = Nicotine.pdb
REMARK  2 active torsions:
REMARK  status: ('A' for Active; 'I' for Inactive)
REMARK    1  A    between atoms: C_3  and  C_6
REMARK    2  A    between atoms: N_4  and  C_12
REMARK                            x       y       z     vdW  Elec       q    Type
REMARK                         _______ _______ _______ _____ _____    ______ ____
ROOT
ATOM      1  C   UNL     1       4.972   4.720  -2.116  0.00  0.00    +0.017 C 
ATOM      2  C   UNL     1       4.817   4.706  -0.572  0.00  0.00    +0.025 C 
ATOM      3  C   UNL     1       3.705   3.660  -0.345  0.00  0.00    +0.088 C 
ATOM      4  N   UNL     1       2.939   3.557  -1.599  0.00  0.00    -0.298 NA
ATOM      5  C   UNL     1       3.510   4.506  -2.579  0.00  0.00    +0.085 C 
ATOM      6  C   UNL     1       2.963   2.184  -2.120  0.00  0.00    +0.105 C 
ENDROOT
BRANCH   3   7
ATOM      7  C   UNL     1       2.801   4.108   0.774  0.00  0.00    -0.012 A 
ATOM      8  C   UNL     1       2.611   5.455   1.023  0.00  0.00    +0.115 A 
ATOM      9  N   UNL     1       1.821   5.856   2.000  0.00  0.00    -0.263 NA
ATOM     10  C   UNL     1       1.186   4.998   2.774  0.00  0.00    +0.111 A 
ATOM     11  C   UNL     1       1.327   3.635   2.585  0.00  0.00    +0.020 A 
ATOM     12  C   UNL     1       2.145   3.177   1.564  0.00  0.00    +0.008 A 
ENDBRANCH   3   7
TORSDOF 1
ENDMDL
MODEL 9
REMARK VINA RESULT:    -3.403      3.537      5.299
REMARK INTER + INTRA:          -3.789
REMARK INTER:                  -3.585
REMARK INTRA:                  -0.204
REMARK UNBOUND:                -0.187
REMARK  Name = Nicotine.pdb
REMARK  2 active torsions:
REMARK  status: ('A' for Active; 'I' for Inactive)
REMARK    1  A    between atoms: C_3  and  C_6
REMARK    2  A    between atoms: N_4  and  C_12
REMARK                            x       y       z     vdW  Elec       q    Type
REMARK                         _______ _______ _______ _____ _____    ______ ____
ROOT
ATOM      1  C   UNL     1       2.763   5.077  -0.185  0.00  0.00    +0.017 C 
ATOM      2  C   UNL     1       4.286   5.146  -0.474  0.00  0.00    +0.025 C 
ATOM      3  C   UNL     1       4.525   3.913  -1.371  0.00  0.00    +0.088 C 
ATOM      4  N   UNL     1       3.423   2.968  -1.118  0.00  0.00    -0.298 NA
ATOM      5  C   UNL     1       2.531   3.548  -0.091  0.00  0.00    +0.085 C 
ATOM      6  C   UNL     1       2.684   2.677  -2.354  0.00  0.00    +0.105 C 
ENDROOT
BRANCH   3   7
ATOM      7  C   UNL     1       5.843   3.272  -1.020  0.00  0.00    -0.012 A 
ATOM      8  C   UNL     1       6.621   3.786   0.000  0.00  0.00    +0.115 A 
ATOM      9  N   UNL     1       7.775   3.231   0.314  0.00  0.00    -0.263 NA
ATOM     10  C   UNL     1       8.232   2.173  -0.326  0.00  0.00    +0.111 A 
ATOM     11  C   UNL     1       7.509   1.603  -1.358  0.00  0.00    +0.020 A 
ATOM     12  C   UNL     1       6.288   2.156  -1.712  0.00  0.00    +0.008 A 
ENDBRANCH   3   7
TORSDOF 1
ENDMDL
MODEL 10
REMARK VINA RESULT:    -3.385      2.837      5.046
REMARK INTER + INTRA:          -3.770
REMARK INTER:                  -3.555
REMARK INTRA:                  -0.216
REMARK UNBOUND:                -0.187
REMARK  Name = Nicotine.pdb
REMARK  2 active torsions:
REMARK  status: ('A' for Active; 'I' for Inactive)
REMARK    1  A    between atoms: C_3  and  C_6
REMARK    2  A    between atoms: N_4  and  C_12
REMARK                            x       y       z     vdW  Elec       q    Type
REMARK                         _______ _______ _______ _____ _____    ______ ____
ROOT
ATOM      1  C   UNL     1       1.969   4.553   1.766  0.00  0.00    +0.017 C 
ATOM      2  C   UNL     1       3.419   4.944   1.377  0.00  0.00    +0.025 C 
ATOM      3  C   UNL     1       3.533   4.449  -0.081  0.00  0.00    +0.088 C 
ATOM      4  N   UNL     1       2.512   3.402  -0.267  0.00  0.00    -0.298 NA
ATOM      5  C   UNL     1       1.794   3.212   1.010  0.00  0.00    +0.085 C 
ATOM      6  C   UNL     1       1.583   3.759  -1.347  0.00  0.00    +0.105 C 
ENDROOT
BRANCH   3   7
ATOM      7  C   UNL     1       4.906   3.877  -0.322  0.00  0.00    -0.012 A 
ATOM      8  C   UNL     1       5.097   2.897  -1.278  0.00  0.00    +0.115 A 
ATOM      9  N   UNL     1       6.295   2.391  -1.495  0.00  0.00    -0.263 NA
ATOM     10  C   UNL     1       7.351   2.794  -0.817  0.00  0.00    +0.111 A 
ATOM     11  C   UNL     1       7.238   3.771   0.155  0.00  0.00    +0.020 A 
ATOM     12  C   UNL     1       5.995   4.330   0.408  0.00  0.00    +0.008 A 
ENDBRANCH   3   7
TORSDOF 1
ENDMDL
