MODEL 1
REMARK VINA RESULT:    -4.154      0.000      0.000
REMARK INTER + INTRA:          -4.612
REMARK INTER:                  -4.397
REMARK INTRA:                  -0.215
REMARK UNBOUND:                -0.215
REMARK  Name = Nicotine.pdb
REMARK  2 active torsions:
REMARK  status: ('A' for Active; 'I' for Inactive)
REMARK    1  A    between atoms: C_3  and  C_6
REMARK    2  A    between atoms: N_4  and  C_12
REMARK                            x       y       z     vdW  Elec       q    Type
REMARK                         _______ _______ _______ _____ _____    ______ ____
ROOT
ATOM      1  C   UNL     1       4.552  -2.305  -0.950  0.00  0.00    +0.017 C 
ATOM      2  C   UNL     1       3.102  -2.031  -0.471  0.00  0.00    +0.025 C 
ATOM      3  C   UNL     1       2.751  -0.700  -1.169  0.00  0.00    +0.088 C 
ATOM      4  N   UNL     1       4.023  -0.030  -1.496  0.00  0.00    -0.298 NA
ATOM      5  C   UNL     1       5.137  -0.871  -1.011  0.00  0.00    +0.085 C 
ATOM      6  C   UNL     1       4.135   0.211  -2.941  0.00  0.00    +0.105 C 
ENDROOT
BRANCH   3   7
ATOM      7  C   UNL     1       1.938   0.166  -0.243  0.00  0.00    -0.012 A 
ATOM      8  C   UNL     1       2.026   0.001   1.127  0.00  0.00    +0.115 A 
ATOM      9  N   UNL     1       1.317   0.755   1.944  0.00  0.00    -0.263 NA
ATOM     10  C   UNL     1       0.502   1.688   1.495  0.00  0.00    +0.111 A 
ATOM     11  C   UNL     1       0.362   1.912   0.138  0.00  0.00    +0.020 A 
ATOM     12  C   UNL     1       1.095   1.142  -0.752  0.00  0.00    +0.008 A 
ENDBRANCH   3   7
TORSDOF 1
ENDMDL
MODEL 2
REMARK VINA RESULT:    -3.981      1.255      4.443
REMARK INTER + INTRA:          -4.429
REMARK INTER:                  -4.186
REMARK INTRA:                  -0.242
REMARK UNBOUND:                -0.215
REMARK  Name = Nicotine.pdb
REMARK  2 active torsions:
REMARK  status: ('A' for Active; 'I' for Inactive)
REMARK    1  A    between atoms: C_3  and  C_6
REMARK    2  A    between atoms: N_4  and  C_12
REMARK                            x       y       z     vdW  Elec       q    Type
REMARK                         _______ _______ _______ _____ _____    ______ ____
ROOT
ATOM      1  C   UNL     1       0.876   1.524   0.778  0.00  0.00    +0.017 C 
ATOM      2  C   UNL     1       1.088   1.003  -0.668  0.00  0.00    +0.025 C 
ATOM      3  C   UNL     1       2.066  -0.175  -0.473  0.00  0.00    +0.088 C 
ATOM      4  N   UNL     1       2.763   0.044   0.807  0.00  0.00    -0.298 NA
ATOM      5  C   UNL     1       2.281   1.311   1.396  0.00  0.00    +0.085 C 
ATOM      6  C   UNL     1       2.544  -1.081   1.725  0.00  0.00    +0.105 C 
ENDROOT
BRANCH   3   7
ATOM      7  C   UNL     1       3.063  -0.207  -1.602  0.00  0.00    -0.012 A 
ATOM      8  C   UNL     1       4.024  -1.198  -1.659  0.00  0.00    +0.115 A 
ATOM      9  N   UNL     1       4.900  -1.233  -2.644  0.00  0.00    -0.263 NA
ATOM     10  C   UNL     1       4.896  -0.333  -3.607  0.00  0.00    +0.111 A 
ATOM     11  C   UNL     1       3.965   0.689  -3.617  0.00  0.00    +0.020 A 
ATOM     12  C   UNL     1       3.024   0.755  -2.601  0.00  0.00    +0.008 A 
ENDBRANCH   3   7
TORSDOF 1
ENDMDL
MODEL 3
REMARK VINA RESULT:    -3.962      1.983      4.652
REMARK INTER + INTRA:          -4.408
REMARK INTER:                  -4.178
REMARK INTRA:                  -0.230
REMARK UNBOUND:                -0.215
REMARK  Name = Nicotine.pdb
REMARK  2 active torsions:
REMARK  status: ('A' for Active; 'I' for Inactive)
REMARK    1  A    between atoms: C_3  and  C_6
REMARK    2  A    between atoms: N_4  and  C_12
REMARK                            x       y       z     vdW  Elec       q    Type
REMARK                         _______ _______ _______ _____ _____    ______ ____
ROOT
ATOM      1  C   UNL     1      -1.098   3.219  -0.786  0.00  0.00    +0.017 C 
ATOM      2  C   UNL     1      -0.854   1.807  -0.190  0.00  0.00    +0.025 C 
ATOM      3  C   UNL     1       0.294   2.047   0.814  0.00  0.00    +0.088 C 
ATOM      4  N   UNL     1       0.989   3.279   0.396  0.00  0.00    -0.298 NA
ATOM      5  C   UNL     1       0.341   3.793  -0.829  0.00  0.00    +0.085 C 
ATOM      6  C   UNL     1       0.967   4.284   1.466  0.00  0.00    +0.105 C 
ENDROOT
BRANCH   3   7
ATOM      7  C   UNL     1       1.250   0.883   0.787  0.00  0.00    -0.012 A 
ATOM      8  C   UNL     1       1.603   0.242   1.959  0.00  0.00    +0.115 A 
ATOM      9  N   UNL     1       2.439  -0.778   1.945  0.00  0.00    -0.263 NA
ATOM     10  C   UNL     1       2.969  -1.224   0.823  0.00  0.00    +0.111 A 
ATOM     11  C   UNL     1       2.662  -0.633  -0.388  0.00  0.00    +0.020 A 
ATOM     12  C   UNL     1       1.782   0.438  -0.413  0.00  0.00    +0.008 A 
ENDBRANCH   3   7
TORSDOF 1
ENDMDL
MODEL 4
REMARK VINA RESULT:    -3.959      1.645      2.288
REMARK INTER + INTRA:          -4.406
REMARK INTER:                  -4.189
REMARK INTRA:                  -0.217
REMARK UNBOUND:                -0.215
REMARK  Name = Nicotine.pdb
REMARK  2 active torsions:
REMARK  status: ('A' for Active; 'I' for Inactive)
REMARK    1  A    between atoms: C_3  and  C_6
REMARK    2  A    between atoms: N_4  and  C_12
REMARK                            x       y       z     vdW  Elec       q    Type
REMARK                         _______ _______ _______ _____ _____    ______ ____
ROOT
ATOM      1  C   UNL     1       4.927  -1.183   1.917  0.00  0.00    +0.017 C 
ATOM      2  C   UNL     1       3.499  -0.624   2.152  0.00  0.00    +0.025 C 
ATOM      3  C   UNL     1       2.799  -0.881   0.801  0.00  0.00    +0.088 C 
ATOM      4  N   UNL     1       3.854  -1.007  -0.221  0.00  0.00    -0.298 NA
ATOM      5  C   UNL     1       5.167  -0.815   0.431  0.00  0.00    +0.085 C 
ATOM      6  C   UNL     1       3.785  -2.312  -0.892  0.00  0.00    +0.105 C 
ENDROOT
BRANCH   3   7
ATOM      7  C   UNL     1       1.893   0.275   0.464  0.00  0.00    -0.012 A 
ATOM      8  C   UNL     1       1.780   0.718  -0.840  0.00  0.00    +0.115 A 
ATOM      9  N   UNL     1       0.989   1.729  -1.143  0.00  0.00    -0.263 NA
ATOM     10  C   UNL     1       0.281   2.354  -0.224  0.00  0.00    +0.111 A 
ATOM     11  C   UNL     1       0.343   1.967   1.102  0.00  0.00    +0.020 A 
ATOM     12  C   UNL     1       1.159   0.905   1.457  0.00  0.00    +0.008 A 
ENDBRANCH   3   7
TORSDOF 1
ENDMDL
MODEL 5
REMARK VINA RESULT:    -3.926      1.457      4.479
REMARK INTER + INTRA:          -4.370
REMARK INTER:                  -4.129
REMARK INTRA:                  -0.241
REMARK UNBOUND:                -0.215
REMARK  Name = Nicotine.pdb
REMARK  2 active torsions:
REMARK  status: ('A' for Active; 'I' for Inactive)
REMARK    1  A    between atoms: C_3  and  C_6
REMARK    2  A    between atoms: N_4  and  C_12
REMARK                            x       y       z     vdW  Elec       q    Type
REMARK                         _______ _______ _______ _____ _____    ______ ____
ROOT
ATOM      1  C   UNL     1       0.124   1.769   1.060  0.00  0.00    +0.017 C 
ATOM      2  C   UNL     1       1.429   0.935   1.163  0.00  0.00    +0.025 C 
ATOM      3  C   UNL     1       2.219   1.371  -0.090  0.00  0.00    +0.088 C 
ATOM      4  N   UNL     1       1.243   1.905  -1.058  0.00  0.00    -0.298 NA
ATOM      5  C   UNL     1      -0.110   1.796  -0.472  0.00  0.00    +0.085 C 
ATOM      6  C   UNL     1       1.556   3.297  -1.407  0.00  0.00    +0.105 C 
ENDROOT
BRANCH   3   7
ATOM      7  C   UNL     1       2.934   0.184  -0.683  0.00  0.00    -0.012 A 
ATOM      8  C   UNL     1       3.728   0.336  -1.804  0.00  0.00    +0.115 A 
ATOM      9  N   UNL     1       4.358  -0.697  -2.329  0.00  0.00    -0.263 NA
ATOM     10  C   UNL     1       4.257  -1.906  -1.813  0.00  0.00    +0.111 A 
ATOM     11  C   UNL     1       3.481  -2.134  -0.691  0.00  0.00    +0.020 A 
ATOM     12  C   UNL     1       2.809  -1.071  -0.108  0.00  0.00    +0.008 A 
ENDBRANCH   3   7
TORSDOF 1
ENDMDL
MODEL 6
REMARK VINA RESULT:    -3.925      2.159      4.788
REMARK INTER + INTRA:          -4.369
REMARK INTER:                  -4.185
REMARK INTRA:                  -0.185
REMARK UNBOUND:                -0.215
REMARK  Name = Nicotine.pdb
REMARK  2 active torsions:
REMARK  status: ('A' for Active; 'I' for Inactive)
REMARK    1  A    between atoms: C_3  and  C_6
REMARK    2  A    between atoms: N_4  and  C_12
REMARK                            x       y       z     vdW  Elec       q    Type
REMARK                         _______ _______ _______ _____ _____    ______ ____
ROOT
ATOM      1  C   UNL     1       0.366   4.482  -0.624  0.00  0.00    +0.017 C 
ATOM      2  C   UNL     1       1.377   3.310  -0.735  0.00  0.00    +0.025 C 
ATOM      3  C   UNL     1       0.488   2.065  -0.533  0.00  0.00    +0.088 C 
ATOM      4  N   UNL     1      -0.723   2.504   0.185  0.00  0.00    -0.298 NA
ATOM      5  C   UNL     1      -0.610   3.953   0.457  0.00  0.00    +0.085 C 
ATOM      6  C   UNL     1      -1.933   2.206  -0.592  0.00  0.00    +0.105 C 
ENDROOT
BRANCH   3   7
ATOM      7  C   UNL     1       1.225   1.036   0.284  0.00  0.00    -0.012 A 
ATOM      8  C   UNL     1       1.046   0.970   1.652  0.00  0.00    +0.115 A 
ATOM      9  N   UNL     1       1.687   0.072   2.375  0.00  0.00    -0.263 NA
ATOM     10  C   UNL     1       2.518  -0.793   1.827  0.00  0.00    +0.111 A 
ATOM     11  C   UNL     1       2.747  -0.788   0.464  0.00  0.00    +0.020 A 
ATOM     12  C   UNL     1       2.087   0.138  -0.329  0.00  0.00    +0.008 A 
ENDBRANCH   3   7
TORSDOF 1
ENDMDL
MODEL 7
REMARK VINA RESULT:    -3.633      1.807      3.532
REMARK INTER + INTRA:          -4.061
REMARK INTER:                  -3.866
REMARK INTRA:                  -0.195
REMARK UNBOUND:                -0.215
REMARK  Name = Nicotine.pdb
REMARK  2 active torsions:
REMARK  status: ('A' for Active; 'I' for Inactive)
REMARK    1  A    between atoms: C_3  and  C_6
REMARK    2  A    between atoms: N_4  and  C_12
REMARK                            x       y       z     vdW  Elec       q    Type
REMARK                         _______ _______ _______ _____ _____    ______ ____
ROOT
ATOM      1  C   UNL     1       2.654  -0.667   1.483  0.00  0.00    +0.017 C 
ATOM      2  C   UNL     1       1.938   0.195   0.410  0.00  0.00    +0.025 C 
ATOM      3  C   UNL     1       2.512  -0.351  -0.914  0.00  0.00    +0.088 C 
ATOM      4  N   UNL     1       3.799  -0.997  -0.599  0.00  0.00    -0.298 NA
ATOM      5  C   UNL     1       4.055  -0.853   0.850  0.00  0.00    +0.085 C 
ATOM      6  C   UNL     1       3.789  -2.412  -0.994  0.00  0.00    +0.105 C 
ENDROOT
BRANCH   3   7
ATOM      7  C   UNL     1       2.730   0.781  -1.884  0.00  0.00    -0.012 A 
ATOM      8  C   UNL     1       2.287   2.055  -1.583  0.00  0.00    +0.115 A 
ATOM      9  N   UNL     1       2.473   3.052  -2.426  0.00  0.00    -0.263 NA
ATOM     10  C   UNL     1       3.084   2.877  -3.581  0.00  0.00    +0.111 A 
ATOM     11  C   UNL     1       3.555   1.631  -3.951  0.00  0.00    +0.020 A 
ATOM     12  C   UNL     1       3.382   0.560  -3.088  0.00  0.00    +0.008 A 
ENDBRANCH   3   7
TORSDOF 1
ENDMDL
MODEL 8
REMARK VINA RESULT:    -3.539      1.737      2.578
REMARK INTER + INTRA:          -3.961
REMARK INTER:                  -3.774
REMARK INTRA:                  -0.187
REMARK UNBOUND:                -0.215
REMARK  Name = Nicotine.pdb
REMARK  2 active torsions:
REMARK  status: ('A' for Active; 'I' for Inactive)
REMARK    1  A    between atoms: C_3  and  C_6
REMARK    2  A    between atoms: N_4  and  C_12
REMARK                            x       y       z     vdW  Elec       q    Type
REMARK                         _______ _______ _______ _____ _____    ______ ____
ROOT
ATOM      1  C   UNL     1       4.281  -1.305  -1.387  0.00  0.00    +0.017 C 
ATOM      2  C   UNL     1       3.757   0.151  -1.499  0.00  0.00    +0.025 C 
ATOM      3  C   UNL     1       3.258   0.451  -0.069  0.00  0.00    +0.088 C 
ATOM      4  N   UNL     1       2.988  -0.845   0.580  0.00  0.00    -0.298 NA
ATOM      5  C   UNL     1       3.273  -1.925  -0.388  0.00  0.00    +0.085 C 
ATOM      6  C   UNL     1       3.794  -1.002   1.797  0.00  0.00    +0.105 C 
ENDROOT
BRANCH   3   7
ATOM      7  C   UNL     1       1.994   1.269  -0.129  0.00  0.00    -0.012 A 
ATOM      8  C   UNL     1       1.781   2.152  -1.170  0.00  0.00    +0.115 A 
ATOM      9  N   UNL     1       0.678   2.872  -1.230  0.00  0.00    -0.263 NA
ATOM     10  C   UNL     1      -0.260   2.781  -0.308  0.00  0.00    +0.111 A 
ATOM     11  C   UNL     1      -0.117   1.919   0.763  0.00  0.00    +0.020 A 
ATOM     12  C   UNL     1       1.027   1.142   0.857  0.00  0.00    +0.008 A 
ENDBRANCH   3   7
TORSDOF 1
ENDMDL
MODEL 9
REMARK VINA RESULT:    -3.455      1.424      2.004
REMARK INTER + INTRA:          -3.873
REMARK INTER:                  -3.657
REMARK INTRA:                  -0.215
REMARK UNBOUND:                -0.215
REMARK  Name = Nicotine.pdb
REMARK  2 active torsions:
REMARK  status: ('A' for Active; 'I' for Inactive)
REMARK    1  A    between atoms: C_3  and  C_6
REMARK    2  A    between atoms: N_4  and  C_12
REMARK                            x       y       z     vdW  Elec       q    Type
REMARK                         _______ _______ _______ _____ _____    ______ ____
ROOT
ATOM      1  C   UNL     1       6.349  -0.224   0.029  0.00  0.00    +0.017 C 
ATOM      2  C   UNL     1       4.993  -0.378   0.767  0.00  0.00    +0.025 C 
ATOM      3  C   UNL     1       3.989  -0.573  -0.388  0.00  0.00    +0.088 C 
ATOM      4  N   UNL     1       4.603  -0.005  -1.602  0.00  0.00    -0.298 NA
ATOM      5  C   UNL     1       5.925   0.552  -1.244  0.00  0.00    +0.085 C 
ATOM      6  C   UNL     1       4.727  -1.021  -2.655  0.00  0.00    +0.105 C 
ENDROOT
BRANCH   3   7
ATOM      7  C   UNL     1       2.703   0.149  -0.077  0.00  0.00    -0.012 A 
ATOM      8  C   UNL     1       1.895   0.610  -1.099  0.00  0.00    +0.115 A 
ATOM      9  N   UNL     1       0.768   1.242  -0.835  0.00  0.00    -0.263 NA
ATOM     10  C   UNL     1       0.369   1.460   0.402  0.00  0.00    +0.111 A 
ATOM     11  C   UNL     1       1.125   1.028   1.476  0.00  0.00    +0.020 A 
ATOM     12  C   UNL     1       2.313   0.354   1.238  0.00  0.00    +0.008 A 
ENDBRANCH   3   7
TORSDOF 1
ENDMDL
MODEL 10
REMARK VINA RESULT:    -3.400      2.647      4.297
REMARK INTER + INTRA:          -3.814
REMARK INTER:                  -3.617
REMARK INTRA:                  -0.197
REMARK UNBOUND:                -0.215
REMARK  Name = Nicotine.pdb
REMARK  2 active torsions:
REMARK  status: ('A' for Active; 'I' for Inactive)
REMARK    1  A    between atoms: C_3  and  C_6
REMARK    2  A    between atoms: N_4  and  C_12
REMARK                            x       y       z     vdW  Elec       q    Type
REMARK                         _______ _______ _______ _____ _____    ______ ____
ROOT
ATOM      1  C   UNL     1       5.834   1.948  -4.829  0.00  0.00    +0.017 C 
ATOM      2  C   UNL     1       5.233   0.547  -4.539  0.00  0.00    +0.025 C 
ATOM      3  C   UNL     1       4.005   0.871  -3.663  0.00  0.00    +0.088 C 
ATOM      4  N   UNL     1       4.237   2.194  -3.056  0.00  0.00    -0.298 NA
ATOM      5  C   UNL     1       5.559   2.689  -3.496  0.00  0.00    +0.085 C 
ATOM      6  C   UNL     1       3.173   3.137  -3.424  0.00  0.00    +0.105 C 
ENDROOT
BRANCH   3   7
ATOM      7  C   UNL     1       3.856  -0.170  -2.584  0.00  0.00    -0.012 A 
ATOM      8  C   UNL     1       4.696  -1.266  -2.550  0.00  0.00    +0.115 A 
ATOM      9  N   UNL     1       4.573  -2.182  -1.609  0.00  0.00    -0.263 NA
ATOM     10  C   UNL     1       3.652  -2.091  -0.670  0.00  0.00    +0.111 A 
ATOM     11  C   UNL     1       2.776  -1.022  -0.639  0.00  0.00    +0.020 A 
ATOM     12  C   UNL     1       2.879  -0.037  -1.609  0.00  0.00    +0.008 A 
ENDBRANCH   3   7
TORSDOF 1
ENDMDL
