MODEL 1
REMARK VINA RESULT:    15.790      0.000      0.000
REMARK INTER + INTRA:          16.529
REMARK INTER:                  16.713
REMARK INTRA:                  -0.184
REMARK UNBOUND:                -0.184
REMARK  Name = Nicotine.pdb
REMARK  2 active torsions:
REMARK  status: ('A' for Active; 'I' for Inactive)
REMARK    1  A    between atoms: C_3  and  C_6
REMARK    2  A    between atoms: N_4  and  C_12
REMARK                            x       y       z     vdW  Elec       q    Type
REMARK                         _______ _______ _______ _____ _____    ______ ____
ROOT
ATOM      1  C   UNL     1       2.492  -6.097  -7.255  0.00  0.00    +0.017 C 
ATOM      2  C   UNL     1       3.193  -5.660  -5.943  0.00  0.00    +0.025 C 
ATOM      3  C   UNL     1       2.009  -5.375  -4.994  0.00  0.00    +0.088 C 
ATOM      4  N   UNL     1       0.829  -5.108  -5.837  0.00  0.00    -0.298 NA
ATOM      5  C   UNL     1       1.236  -5.190  -7.256  0.00  0.00    +0.085 C 
ATOM      6  C   UNL     1      -0.253  -6.056  -5.543  0.00  0.00    +0.105 C 
ENDROOT
BRANCH   3   7
ATOM      7  C   UNL     1       2.314  -4.171  -4.141  0.00  0.00    -0.012 A 
ATOM      8  C   UNL     1       3.621  -3.841  -3.839  0.00  0.00    +0.115 A 
ATOM      9  N   UNL     1       3.897  -2.790  -3.092  0.00  0.00    -0.263 NA
ATOM     10  C   UNL     1       2.946  -2.016  -2.607  0.00  0.00    +0.111 A 
ATOM     11  C   UNL     1       1.615  -2.283  -2.867  0.00  0.00    +0.020 A 
ATOM     12  C   UNL     1       1.287  -3.378  -3.653  0.00  0.00    +0.008 A 
ENDBRANCH   3   7
TORSDOF 1
ENDMDL
MODEL 2
REMARK VINA RESULT:    15.892      1.510      2.270
REMARK INTER + INTRA:          16.636
REMARK INTER:                  16.811
REMARK INTRA:                  -0.174
REMARK UNBOUND:                -0.184
REMARK  Name = Nicotine.pdb
REMARK  2 active torsions:
REMARK  status: ('A' for Active; 'I' for Inactive)
REMARK    1  A    between atoms: C_3  and  C_6
REMARK    2  A    between atoms: N_4  and  C_12
REMARK                            x       y       z     vdW  Elec       q    Type
REMARK                         _______ _______ _______ _____ _____    ______ ____
ROOT
ATOM      1  C   UNL     1       1.951  -6.082  -7.251  0.00  0.00    +0.017 C 
ATOM      2  C   UNL     1       1.083  -5.073  -6.454  0.00  0.00    +0.025 C 
ATOM      3  C   UNL     1       2.071  -3.926  -6.155  0.00  0.00    +0.088 C 
ATOM      4  N   UNL     1       3.431  -4.486  -6.242  0.00  0.00    -0.298 NA
ATOM      5  C   UNL     1       3.327  -5.928  -6.556  0.00  0.00    +0.085 C 
ATOM      6  C   UNL     1       4.227  -3.783  -7.256  0.00  0.00    +0.105 C 
ENDROOT
BRANCH   3   7
ATOM      7  C   UNL     1       1.825  -3.386  -4.769  0.00  0.00    -0.012 A 
ATOM      8  C   UNL     1       2.442  -3.963  -3.675  0.00  0.00    +0.115 A 
ATOM      9  N   UNL     1       2.233  -3.497  -2.459  0.00  0.00    -0.263 NA
ATOM     10  C   UNL     1       1.434  -2.472  -2.238  0.00  0.00    +0.111 A 
ATOM     11  C   UNL     1       0.783  -1.843  -3.284  0.00  0.00    +0.020 A 
ATOM     12  C   UNL     1       0.983  -2.302  -4.576  0.00  0.00    +0.008 A 
ENDBRANCH   3   7
TORSDOF 1
ENDMDL
