MODEL 1
REMARK VINA RESULT:    -4.134      0.000      0.000
REMARK INTER + INTRA:          -4.592
REMARK INTER:                  -4.376
REMARK INTRA:                  -0.216
REMARK UNBOUND:                -0.216
REMARK  Name = Nicotine.pdb
REMARK  2 active torsions:
REMARK  status: ('A' for Active; 'I' for Inactive)
REMARK    1  A    between atoms: C_3  and  C_6
REMARK    2  A    between atoms: N_4  and  C_12
REMARK                            x       y       z     vdW  Elec       q    Type
REMARK                         _______ _______ _______ _____ _____    ______ ____
ROOT
ATOM      1  C   UNL     1       7.338  -0.251  -4.118  0.00  0.00    +0.017 C 
ATOM      2  C   UNL     1       6.444  -1.072  -5.085  0.00  0.00    +0.025 C 
ATOM      3  C   UNL     1       5.704   0.020  -5.885  0.00  0.00    +0.088 C 
ATOM      4  N   UNL     1       5.729   1.250  -5.073  0.00  0.00    -0.298 NA
ATOM      5  C   UNL     1       6.425   0.960  -3.801  0.00  0.00    +0.085 C 
ATOM      6  C   UNL     1       6.386   2.346  -5.796  0.00  0.00    +0.105 C 
ENDROOT
BRANCH   3   7
ATOM      7  C   UNL     1       4.280  -0.403  -6.135  0.00  0.00    -0.012 A 
ATOM      8  C   UNL     1       3.262   0.532  -6.129  0.00  0.00    +0.115 A 
ATOM      9  N   UNL     1       2.012   0.170  -6.347  0.00  0.00    -0.263 NA
ATOM     10  C   UNL     1       1.685  -1.086  -6.575  0.00  0.00    +0.111 A 
ATOM     11  C   UNL     1       2.649  -2.077  -6.596  0.00  0.00    +0.020 A 
ATOM     12  C   UNL     1       3.974  -1.733  -6.377  0.00  0.00    +0.008 A 
ENDBRANCH   3   7
TORSDOF 1
ENDMDL
MODEL 2
REMARK VINA RESULT:    -3.665      1.291      4.677
REMARK INTER + INTRA:          -4.096
REMARK INTER:                  -3.841
REMARK INTRA:                  -0.255
REMARK UNBOUND:                -0.216
REMARK  Name = Nicotine.pdb
REMARK  2 active torsions:
REMARK  status: ('A' for Active; 'I' for Inactive)
REMARK    1  A    between atoms: C_3  and  C_6
REMARK    2  A    between atoms: N_4  and  C_12
REMARK                            x       y       z     vdW  Elec       q    Type
REMARK                         _______ _______ _______ _____ _____    ______ ____
ROOT
ATOM      1  C   UNL     1       1.618   1.054  -6.925  0.00  0.00    +0.017 C 
ATOM      2  C   UNL     1       3.152   1.288  -6.921  0.00  0.00    +0.025 C 
ATOM      3  C   UNL     1       3.719  -0.132  -6.707  0.00  0.00    +0.088 C 
ATOM      4  N   UNL     1       2.655  -0.937  -6.081  0.00  0.00    -0.298 NA
ATOM      5  C   UNL     1       1.471  -0.076  -5.876  0.00  0.00    +0.085 C 
ATOM      6  C   UNL     1       2.321  -2.104  -6.908  0.00  0.00    +0.105 C 
ENDROOT
BRANCH   3   7
ATOM      7  C   UNL     1       4.921  -0.073  -5.801  0.00  0.00    -0.012 A 
ATOM      8  C   UNL     1       5.773  -1.156  -5.698  0.00  0.00    +0.115 A 
ATOM      9  N   UNL     1       6.827  -1.112  -4.907  0.00  0.00    -0.263 NA
ATOM     10  C   UNL     1       7.110  -0.045  -4.187  0.00  0.00    +0.111 A 
ATOM     11  C   UNL     1       6.303   1.077  -4.238  0.00  0.00    +0.020 A 
ATOM     12  C   UNL     1       5.189   1.070  -5.063  0.00  0.00    +0.008 A 
ENDBRANCH   3   7
TORSDOF 1
ENDMDL
MODEL 3
REMARK VINA RESULT:    -3.611      3.734      5.543
REMARK INTER + INTRA:          -4.039
REMARK INTER:                  -3.811
REMARK INTRA:                  -0.228
REMARK UNBOUND:                -0.216
REMARK  Name = Nicotine.pdb
REMARK  2 active torsions:
REMARK  status: ('A' for Active; 'I' for Inactive)
REMARK    1  A    between atoms: C_3  and  C_6
REMARK    2  A    between atoms: N_4  and  C_12
REMARK                            x       y       z     vdW  Elec       q    Type
REMARK                         _______ _______ _______ _____ _____    ______ ____
ROOT
ATOM      1  C   UNL     1       7.206  -0.479  -3.975  0.00  0.00    +0.017 C 
ATOM      2  C   UNL     1       6.672   0.975  -3.893  0.00  0.00    +0.025 C 
ATOM      3  C   UNL     1       7.077   1.571  -5.258  0.00  0.00    +0.088 C 
ATOM      4  N   UNL     1       8.196   0.761  -5.774  0.00  0.00    -0.298 NA
ATOM      5  C   UNL     1       8.515  -0.287  -4.781  0.00  0.00    +0.085 C 
ATOM      6  C   UNL     1       7.863   0.170  -7.076  0.00  0.00    +0.105 C 
ENDROOT
BRANCH   3   7
ATOM      7  C   UNL     1       7.516   3.001  -5.083  0.00  0.00    -0.012 A 
ATOM      8  C   UNL     1       6.943   4.006  -5.840  0.00  0.00    +0.115 A 
ATOM      9  N   UNL     1       7.321   5.261  -5.693  0.00  0.00    -0.263 NA
ATOM     10  C   UNL     1       8.253   5.607  -4.827  0.00  0.00    +0.111 A 
ATOM     11  C   UNL     1       8.870   4.657  -4.035  0.00  0.00    +0.020 A 
ATOM     12  C   UNL     1       8.495   3.328  -4.158  0.00  0.00    +0.008 A 
ENDBRANCH   3   7
TORSDOF 1
ENDMDL
MODEL 4
REMARK VINA RESULT:    -3.546      2.914      5.946
REMARK INTER + INTRA:          -3.969
REMARK INTER:                  -3.742
REMARK INTRA:                  -0.228
REMARK UNBOUND:                -0.216
REMARK  Name = Nicotine.pdb
REMARK  2 active torsions:
REMARK  status: ('A' for Active; 'I' for Inactive)
REMARK    1  A    between atoms: C_3  and  C_6
REMARK    2  A    between atoms: N_4  and  C_12
REMARK                            x       y       z     vdW  Elec       q    Type
REMARK                         _______ _______ _______ _____ _____    ______ ____
ROOT
ATOM      1  C   UNL     1       6.450  -0.841  -4.892  0.00  0.00    +0.017 C 
ATOM      2  C   UNL     1       7.309  -0.025  -3.891  0.00  0.00    +0.025 C 
ATOM      3  C   UNL     1       7.236   1.409  -4.459  0.00  0.00    +0.088 C 
ATOM      4  N   UNL     1       6.895   1.295  -5.889  0.00  0.00    -0.298 NA
ATOM      5  C   UNL     1       6.780  -0.138  -6.233  0.00  0.00    +0.085 C 
ATOM      6  C   UNL     1       5.650   2.011  -6.192  0.00  0.00    +0.105 C 
ENDROOT
BRANCH   3   7
ATOM      7  C   UNL     1       8.570   2.091  -4.302  0.00  0.00    -0.012 A 
ATOM      8  C   UNL     1       8.658   3.317  -3.670  0.00  0.00    +0.115 A 
ATOM      9  N   UNL     1       9.821   3.921  -3.528  0.00  0.00    -0.263 NA
ATOM     10  C   UNL     1      10.939   3.387  -3.978  0.00  0.00    +0.111 A 
ATOM     11  C   UNL     1      10.930   2.163  -4.620  0.00  0.00    +0.020 A 
ATOM     12  C   UNL     1       9.726   1.496  -4.784  0.00  0.00    +0.008 A 
ENDBRANCH   3   7
TORSDOF 1
ENDMDL
MODEL 5
REMARK VINA RESULT:    -3.534      1.723      4.767
REMARK INTER + INTRA:          -3.957
REMARK INTER:                  -3.737
REMARK INTRA:                  -0.220
REMARK UNBOUND:                -0.216
REMARK  Name = Nicotine.pdb
REMARK  2 active torsions:
REMARK  status: ('A' for Active; 'I' for Inactive)
REMARK    1  A    between atoms: C_3  and  C_6
REMARK    2  A    between atoms: N_4  and  C_12
REMARK                            x       y       z     vdW  Elec       q    Type
REMARK                         _______ _______ _______ _____ _____    ______ ____
ROOT
ATOM      1  C   UNL     1       5.741  -1.774  -5.778  0.00  0.00    +0.017 C 
ATOM      2  C   UNL     1       6.485  -0.829  -4.798  0.00  0.00    +0.025 C 
ATOM      3  C   UNL     1       5.698   0.492  -4.923  0.00  0.00    +0.088 C 
ATOM      4  N   UNL     1       5.003   0.465  -6.223  0.00  0.00    -0.298 NA
ATOM      5  C   UNL     1       5.346  -0.797  -6.914  0.00  0.00    +0.085 C 
ATOM      6  C   UNL     1       3.551   0.592  -6.048  0.00  0.00    +0.105 C 
ENDROOT
BRANCH   3   7
ATOM      7  C   UNL     1       6.646   1.662  -4.872  0.00  0.00    -0.012 A 
ATOM      8  C   UNL     1       6.533   2.694  -5.784  0.00  0.00    +0.115 A 
ATOM      9  N   UNL     1       7.360   3.721  -5.745  0.00  0.00    -0.263 NA
ATOM     10  C   UNL     1       8.319   3.806  -4.845  0.00  0.00    +0.111 A 
ATOM     11  C   UNL     1       8.493   2.811  -3.900  0.00  0.00    +0.020 A 
ATOM     12  C   UNL     1       7.640   1.719  -3.906  0.00  0.00    +0.008 A 
ENDBRANCH   3   7
TORSDOF 1
ENDMDL
MODEL 6
REMARK VINA RESULT:    -3.483      1.876      2.861
REMARK INTER + INTRA:          -3.903
REMARK INTER:                  -3.688
REMARK INTRA:                  -0.215
REMARK UNBOUND:                -0.216
REMARK  Name = Nicotine.pdb
REMARK  2 active torsions:
REMARK  status: ('A' for Active; 'I' for Inactive)
REMARK    1  A    between atoms: C_3  and  C_6
REMARK    2  A    between atoms: N_4  and  C_12
REMARK                            x       y       z     vdW  Elec       q    Type
REMARK                         _______ _______ _______ _____ _____    ______ ____
ROOT
ATOM      1  C   UNL     1       8.725   2.440  -4.243  0.00  0.00    +0.017 C 
ATOM      2  C   UNL     1       7.366   1.750  -3.953  0.00  0.00    +0.025 C 
ATOM      3  C   UNL     1       7.587   0.314  -4.474  0.00  0.00    +0.088 C 
ATOM      4  N   UNL     1       8.687   0.370  -5.454  0.00  0.00    -0.298 NA
ATOM      5  C   UNL     1       9.135   1.773  -5.580  0.00  0.00    +0.085 C 
ATOM      6  C   UNL     1       9.796  -0.504  -5.051  0.00  0.00    +0.105 C 
ENDROOT
BRANCH   3   7
ATOM      7  C   UNL     1       6.332  -0.190  -5.137  0.00  0.00    -0.012 A 
ATOM      8  C   UNL     1       5.317   0.687  -5.472  0.00  0.00    +0.115 A 
ATOM      9  N   UNL     1       4.215   0.254  -6.053  0.00  0.00    -0.263 NA
ATOM     10  C   UNL     1       4.036  -1.020  -6.336  0.00  0.00    +0.111 A 
ATOM     11  C   UNL     1       5.007  -1.956  -6.032  0.00  0.00    +0.020 A 
ATOM     12  C   UNL     1       6.182  -1.538  -5.426  0.00  0.00    +0.008 A 
ENDBRANCH   3   7
TORSDOF 1
ENDMDL
MODEL 7
REMARK VINA RESULT:    -3.400      1.905      2.929
REMARK INTER + INTRA:          -3.816
REMARK INTER:                  -3.559
REMARK INTRA:                  -0.256
REMARK UNBOUND:                -0.216
REMARK  Name = Nicotine.pdb
REMARK  2 active torsions:
REMARK  status: ('A' for Active; 'I' for Inactive)
REMARK    1  A    between atoms: C_3  and  C_6
REMARK    2  A    between atoms: N_4  and  C_12
REMARK                            x       y       z     vdW  Elec       q    Type
REMARK                         _______ _______ _______ _____ _____    ______ ____
ROOT
ATOM      1  C   UNL     1       8.429   2.195  -3.997  0.00  0.00    +0.017 C 
ATOM      2  C   UNL     1       7.118   1.391  -3.789  0.00  0.00    +0.025 C 
ATOM      3  C   UNL     1       7.370   0.102  -4.598  0.00  0.00    +0.088 C 
ATOM      4  N   UNL     1       8.410   0.409  -5.597  0.00  0.00    -0.298 NA
ATOM      5  C   UNL     1       8.791   1.830  -5.458  0.00  0.00    +0.085 C 
ATOM      6  C   UNL     1       9.576  -0.468  -5.431  0.00  0.00    +0.105 C 
ENDROOT
BRANCH   3   7
ATOM      7  C   UNL     1       6.102  -0.325  -5.291  0.00  0.00    -0.012 A 
ATOM      8  C   UNL     1       5.924  -1.640  -5.676  0.00  0.00    +0.115 A 
ATOM      9  N   UNL     1       4.817  -2.022  -6.282  0.00  0.00    -0.263 NA
ATOM     10  C   UNL     1       3.843  -1.173  -6.546  0.00  0.00    +0.111 A 
ATOM     11  C   UNL     1       3.950   0.159  -6.191  0.00  0.00    +0.020 A 
ATOM     12  C   UNL     1       5.097   0.595  -5.546  0.00  0.00    +0.008 A 
ENDBRANCH   3   7
TORSDOF 1
ENDMDL
MODEL 8
REMARK VINA RESULT:    -3.325      1.547      2.320
REMARK INTER + INTRA:          -3.735
REMARK INTER:                  -3.493
REMARK INTRA:                  -0.242
REMARK UNBOUND:                -0.216
REMARK  Name = Nicotine.pdb
REMARK  2 active torsions:
REMARK  status: ('A' for Active; 'I' for Inactive)
REMARK    1  A    between atoms: C_3  and  C_6
REMARK    2  A    between atoms: N_4  and  C_12
REMARK                            x       y       z     vdW  Elec       q    Type
REMARK                         _______ _______ _______ _____ _____    ______ ____
ROOT
ATOM      1  C   UNL     1       5.716  -2.002  -5.768  0.00  0.00    +0.017 C 
ATOM      2  C   UNL     1       4.321  -1.679  -6.365  0.00  0.00    +0.025 C 
ATOM      3  C   UNL     1       4.466  -0.207  -6.806  0.00  0.00    +0.088 C 
ATOM      4  N   UNL     1       5.568   0.378  -6.022  0.00  0.00    -0.298 NA
ATOM      5  C   UNL     1       6.092  -0.655  -5.103  0.00  0.00    +0.085 C 
ATOM      6  C   UNL     1       6.628   0.887  -6.901  0.00  0.00    +0.105 C 
ENDROOT
BRANCH   3   7
ATOM      7  C   UNL     1       3.186   0.539  -6.529  0.00  0.00    -0.012 A 
ATOM      8  C   UNL     1       3.064   1.871  -6.878  0.00  0.00    +0.115 A 
ATOM      9  N   UNL     1       1.947   2.531  -6.639  0.00  0.00    -0.263 NA
ATOM     10  C   UNL     1       0.911   1.955  -6.063  0.00  0.00    +0.111 A 
ATOM     11  C   UNL     1       0.959   0.625  -5.687  0.00  0.00    +0.020 A 
ATOM     12  C   UNL     1       2.115  -0.103  -5.927  0.00  0.00    +0.008 A 
ENDBRANCH   3   7
TORSDOF 1
ENDMDL
MODEL 9
REMARK VINA RESULT:    -3.291      2.727      5.522
REMARK INTER + INTRA:          -3.699
REMARK INTER:                  -3.485
REMARK INTRA:                  -0.214
REMARK UNBOUND:                -0.216
REMARK  Name = Nicotine.pdb
REMARK  2 active torsions:
REMARK  status: ('A' for Active; 'I' for Inactive)
REMARK    1  A    between atoms: C_3  and  C_6
REMARK    2  A    between atoms: N_4  and  C_12
REMARK                            x       y       z     vdW  Elec       q    Type
REMARK                         _______ _______ _______ _____ _____    ______ ____
ROOT
ATOM      1  C   UNL     1       4.798   1.110  -5.358  0.00  0.00    +0.017 C 
ATOM      2  C   UNL     1       6.027   0.806  -4.462  0.00  0.00    +0.025 C 
ATOM      3  C   UNL     1       7.073   1.831  -4.948  0.00  0.00    +0.088 C 
ATOM      4  N   UNL     1       6.690   2.232  -6.314  0.00  0.00    -0.298 NA
ATOM      5  C   UNL     1       5.474   1.485  -6.701  0.00  0.00    +0.085 C 
ATOM      6  C   UNL     1       6.466   3.681  -6.395  0.00  0.00    +0.105 C 
ENDROOT
BRANCH   3   7
ATOM      7  C   UNL     1       8.441   1.200  -4.963  0.00  0.00    -0.012 A 
ATOM      8  C   UNL     1       8.583  -0.156  -5.189  0.00  0.00    +0.115 A 
ATOM      9  N   UNL     1       9.777  -0.717  -5.203  0.00  0.00    -0.263 NA
ATOM     10  C   UNL     1      10.875  -0.014  -5.004  0.00  0.00    +0.111 A 
ATOM     11  C   UNL     1      10.812   1.347  -4.772  0.00  0.00    +0.020 A 
ATOM     12  C   UNL     1       9.574   1.972  -4.755  0.00  0.00    +0.008 A 
ENDBRANCH   3   7
TORSDOF 1
ENDMDL
MODEL 10
REMARK VINA RESULT:    -3.270      3.109      6.251
REMARK INTER + INTRA:          -3.678
REMARK INTER:                  -3.462
REMARK INTRA:                  -0.216
REMARK UNBOUND:                -0.216
REMARK  Name = Nicotine.pdb
REMARK  2 active torsions:
REMARK  status: ('A' for Active; 'I' for Inactive)
REMARK    1  A    between atoms: C_3  and  C_6
REMARK    2  A    between atoms: N_4  and  C_12
REMARK                            x       y       z     vdW  Elec       q    Type
REMARK                         _______ _______ _______ _____ _____    ______ ____
ROOT
ATOM      1  C   UNL     1       5.595   0.871  -5.044  0.00  0.00    +0.017 C 
ATOM      2  C   UNL     1       6.151   2.173  -5.680  0.00  0.00    +0.025 C 
ATOM      3  C   UNL     1       7.667   2.070  -5.412  0.00  0.00    +0.088 C 
ATOM      4  N   UNL     1       7.849   1.154  -4.272  0.00  0.00    -0.298 NA
ATOM      5  C   UNL     1       6.517   0.709  -3.809  0.00  0.00    +0.085 C 
ATOM      6  C   UNL     1       8.688   0.009  -4.644  0.00  0.00    +0.105 C 
ENDROOT
BRANCH   3   7
ATOM      7  C   UNL     1       8.221   3.430  -5.073  0.00  0.00    -0.012 A 
ATOM      8  C   UNL     1       9.364   3.548  -4.306  0.00  0.00    +0.115 A 
ATOM      9  N   UNL     1       9.855   4.734  -4.004  0.00  0.00    -0.263 NA
ATOM     10  C   UNL     1       9.282   5.847  -4.417  0.00  0.00    +0.111 A 
ATOM     11  C   UNL     1       8.135   5.808  -5.188  0.00  0.00    +0.020 A 
ATOM     12  C   UNL     1       7.593   4.579  -5.530  0.00  0.00    +0.008 A 
ENDBRANCH   3   7
TORSDOF 1
ENDMDL
