MODEL 1
REMARK VINA RESULT:    -3.077      0.000      0.000
REMARK INTER + INTRA:          -3.481
REMARK INTER:                  -3.257
REMARK INTRA:                  -0.223
REMARK UNBOUND:                -0.223
REMARK  Name = Nicotine.pdb
REMARK  2 active torsions:
REMARK  status: ('A' for Active; 'I' for Inactive)
REMARK    1  A    between atoms: C_3  and  C_6
REMARK    2  A    between atoms: N_4  and  C_12
REMARK                            x       y       z     vdW  Elec       q    Type
REMARK                         _______ _______ _______ _____ _____    ______ ____
ROOT
ATOM      1  C   UNL     1       7.367  -0.455  -7.255  0.00  0.00    +0.017 C 
ATOM      2  C   UNL     1       8.199   0.851  -7.171  0.00  0.00    +0.025 C 
ATOM      3  C   UNL     1       9.519   0.381  -6.523  0.00  0.00    +0.088 C 
ATOM      4  N   UNL     1       9.230  -0.872  -5.803  0.00  0.00    -0.298 NA
ATOM      5  C   UNL     1       7.793  -1.182  -5.955  0.00  0.00    +0.085 C 
ATOM      6  C   UNL     1      10.063  -1.973  -6.306  0.00  0.00    +0.105 C 
ENDROOT
BRANCH   3   7
ATOM      7  C   UNL     1      10.017   1.425  -5.558  0.00  0.00    -0.012 A 
ATOM      8  C   UNL     1      10.225   1.107  -4.229  0.00  0.00    +0.115 A 
ATOM      9  N   UNL     1      10.661   2.015  -3.378  0.00  0.00    -0.263 NA
ATOM     10  C   UNL     1      10.914   3.253  -3.755  0.00  0.00    +0.111 A 
ATOM     11  C   UNL     1      10.730   3.645  -5.067  0.00  0.00    +0.020 A 
ATOM     12  C   UNL     1      10.278   2.716  -5.992  0.00  0.00    +0.008 A 
ENDBRANCH   3   7
TORSDOF 1
ENDMDL
MODEL 2
REMARK VINA RESULT:    -2.949      0.817      1.389
REMARK INTER + INTRA:          -3.345
REMARK INTER:                  -3.134
REMARK INTRA:                  -0.210
REMARK UNBOUND:                -0.223
REMARK  Name = Nicotine.pdb
REMARK  2 active torsions:
REMARK  status: ('A' for Active; 'I' for Inactive)
REMARK    1  A    between atoms: C_3  and  C_6
REMARK    2  A    between atoms: N_4  and  C_12
REMARK                            x       y       z     vdW  Elec       q    Type
REMARK                         _______ _______ _______ _____ _____    ______ ____
ROOT
ATOM      1  C   UNL     1       7.530  -0.269  -7.255  0.00  0.00    +0.017 C 
ATOM      2  C   UNL     1       8.355   1.040  -7.141  0.00  0.00    +0.025 C 
ATOM      3  C   UNL     1       9.653   0.572  -6.450  0.00  0.00    +0.088 C 
ATOM      4  N   UNL     1       9.344  -0.682  -5.741  0.00  0.00    -0.298 NA
ATOM      5  C   UNL     1       7.913  -0.996  -5.942  0.00  0.00    +0.085 C 
ATOM      6  C   UNL     1      10.195  -1.780  -6.217  0.00  0.00    +0.105 C 
ENDROOT
BRANCH   3   7
ATOM      7  C   UNL     1      10.116   1.617  -5.468  0.00  0.00    -0.012 A 
ATOM      8  C   UNL     1      10.324   2.920  -5.879  0.00  0.00    +0.115 A 
ATOM      9  N   UNL     1      10.728   3.840  -5.025  0.00  0.00    -0.263 NA
ATOM     10  C   UNL     1      10.951   3.559  -3.757  0.00  0.00    +0.111 A 
ATOM     11  C   UNL     1      10.764   2.278  -3.273  0.00  0.00    +0.020 A 
ATOM     12  C   UNL     1      10.334   1.285  -4.139  0.00  0.00    +0.008 A 
ENDBRANCH   3   7
TORSDOF 1
ENDMDL
MODEL 3
REMARK VINA RESULT:    -2.674      1.345      2.266
REMARK INTER + INTRA:          -3.054
REMARK INTER:                  -2.846
REMARK INTRA:                  -0.208
REMARK UNBOUND:                -0.223
REMARK  Name = Nicotine.pdb
REMARK  2 active torsions:
REMARK  status: ('A' for Active; 'I' for Inactive)
REMARK    1  A    between atoms: C_3  and  C_6
REMARK    2  A    between atoms: N_4  and  C_12
REMARK                            x       y       z     vdW  Elec       q    Type
REMARK                         _______ _______ _______ _____ _____    ______ ____
ROOT
ATOM      1  C   UNL     1      10.475  -1.811  -6.271  0.00  0.00    +0.017 C 
ATOM      2  C   UNL     1      10.952  -0.505  -5.583  0.00  0.00    +0.025 C 
ATOM      3  C   UNL     1       9.653   0.320  -5.467  0.00  0.00    +0.088 C 
ATOM      4  N   UNL     1       8.716  -0.195  -6.481  0.00  0.00    -0.298 NA
ATOM      5  C   UNL     1       9.384  -1.278  -7.233  0.00  0.00    +0.085 C 
ATOM      6  C   UNL     1       7.475  -0.673  -5.859  0.00  0.00    +0.105 C 
ENDROOT
BRANCH   3   7
ATOM      7  C   UNL     1       9.944   1.775  -5.727  0.00  0.00    -0.012 A 
ATOM      8  C   UNL     1      10.613   2.533  -4.784  0.00  0.00    +0.115 A 
ATOM      9  N   UNL     1      10.872   3.807  -5.004  0.00  0.00    -0.263 NA
ATOM     10  C   UNL     1      10.508   4.406  -6.121  0.00  0.00    +0.111 A 
ATOM     11  C   UNL     1       9.835   3.712  -7.109  0.00  0.00    +0.020 A 
ATOM     12  C   UNL     1       9.550   2.369  -6.916  0.00  0.00    +0.008 A 
ENDBRANCH   3   7
TORSDOF 1
ENDMDL
MODEL 4
REMARK VINA RESULT:    -2.457      1.352      4.455
REMARK INTER + INTRA:          -2.824
REMARK INTER:                  -2.610
REMARK INTRA:                  -0.214
REMARK UNBOUND:                -0.223
REMARK  Name = Nicotine.pdb
REMARK  2 active torsions:
REMARK  status: ('A' for Active; 'I' for Inactive)
REMARK    1  A    between atoms: C_3  and  C_6
REMARK    2  A    between atoms: N_4  and  C_12
REMARK                            x       y       z     vdW  Elec       q    Type
REMARK                         _______ _______ _______ _____ _____    ______ ____
ROOT
ATOM      1  C   UNL     1       9.684   3.103  -6.744  0.00  0.00    +0.017 C 
ATOM      2  C   UNL     1       8.962   1.769  -7.065  0.00  0.00    +0.025 C 
ATOM      3  C   UNL     1       9.281   0.896  -5.833  0.00  0.00    +0.088 C 
ATOM      4  N   UNL     1      10.496   1.449  -5.208  0.00  0.00    -0.298 NA
ATOM      5  C   UNL     1      10.954   2.603  -6.010  0.00  0.00    +0.085 C 
ATOM      6  C   UNL     1      10.241   1.842  -3.816  0.00  0.00    +0.105 C 
ENDROOT
BRANCH   3   7
ATOM      7  C   UNL     1       9.526  -0.527  -6.262  0.00  0.00    -0.012 A 
ATOM      8  C   UNL     1       8.514  -1.266  -6.845  0.00  0.00    +0.115 A 
ATOM      9  N   UNL     1       8.720  -2.512  -7.224  0.00  0.00    -0.263 NA
ATOM     10  C   UNL     1       9.889  -3.101  -7.064  0.00  0.00    +0.111 A 
ATOM     11  C   UNL     1      10.949  -2.425  -6.489  0.00  0.00    +0.020 A 
ATOM     12  C   UNL     1      10.771  -1.111  -6.083  0.00  0.00    +0.008 A 
ENDBRANCH   3   7
TORSDOF 1
ENDMDL
MODEL 5
REMARK VINA RESULT:    -2.091      2.055      4.938
REMARK INTER + INTRA:          -2.437
REMARK INTER:                  -2.186
REMARK INTRA:                  -0.251
REMARK UNBOUND:                -0.223
REMARK  Name = Nicotine.pdb
REMARK  2 active torsions:
REMARK  status: ('A' for Active; 'I' for Inactive)
REMARK    1  A    between atoms: C_3  and  C_6
REMARK    2  A    between atoms: N_4  and  C_12
REMARK                            x       y       z     vdW  Elec       q    Type
REMARK                         _______ _______ _______ _____ _____    ______ ____
ROOT
ATOM      1  C   UNL     1       9.410   1.137  -5.136  0.00  0.00    +0.017 C 
ATOM      2  C   UNL     1      10.468   0.095  -5.585  0.00  0.00    +0.025 C 
ATOM      3  C   UNL     1       9.646  -0.885  -6.448  0.00  0.00    +0.088 C 
ATOM      4  N   UNL     1       8.236  -0.749  -6.041  0.00  0.00    -0.298 NA
ATOM      5  C   UNL     1       8.154   0.248  -4.952  0.00  0.00    +0.085 C 
ATOM      6  C   UNL     1       7.394  -0.358  -7.179  0.00  0.00    +0.105 C 
ENDROOT
BRANCH   3   7
ATOM      7  C   UNL     1      10.116  -2.297  -6.210  0.00  0.00    -0.012 A 
ATOM      8  C   UNL     1      10.183  -3.197  -7.256  0.00  0.00    +0.115 A 
ATOM      9  N   UNL     1      10.594  -4.435  -7.056  0.00  0.00    -0.263 NA
ATOM     10  C   UNL     1      10.954  -4.861  -5.861  0.00  0.00    +0.111 A 
ATOM     11  C   UNL     1      10.914  -4.017  -4.767  0.00  0.00    +0.020 A 
ATOM     12  C   UNL     1      10.492  -2.707  -4.940  0.00  0.00    +0.008 A 
ENDBRANCH   3   7
TORSDOF 1
ENDMDL
MODEL 6
REMARK VINA RESULT:    -1.013      1.881      4.498
REMARK INTER + INTRA:          -1.296
REMARK INTER:                  -1.103
REMARK INTRA:                  -0.193
REMARK UNBOUND:                -0.223
REMARK  Name = Nicotine.pdb
REMARK  2 active torsions:
REMARK  status: ('A' for Active; 'I' for Inactive)
REMARK    1  A    between atoms: C_3  and  C_6
REMARK    2  A    between atoms: N_4  and  C_12
REMARK                            x       y       z     vdW  Elec       q    Type
REMARK                         _______ _______ _______ _____ _____    ______ ____
ROOT
ATOM      1  C   UNL     1      10.082   2.102  -4.222  0.00  0.00    +0.017 C 
ATOM      2  C   UNL     1      10.954   0.859  -4.543  0.00  0.00    +0.025 C 
ATOM      3  C   UNL     1      10.435   0.419  -5.928  0.00  0.00    +0.088 C 
ATOM      4  N   UNL     1       9.074   0.966  -6.079  0.00  0.00    -0.298 NA
ATOM      5  C   UNL     1       8.722   1.699  -4.844  0.00  0.00    +0.085 C 
ATOM      6  C   UNL     1       8.985   1.841  -7.255  0.00  0.00    +0.105 C 
ENDROOT
BRANCH   3   7
ATOM      7  C   UNL     1      10.396  -1.085  -6.007  0.00  0.00    -0.012 A 
ATOM      8  C   UNL     1      10.945  -1.853  -4.997  0.00  0.00    +0.115 A 
ATOM      9  N   UNL     1      10.915  -3.170  -5.058  0.00  0.00    -0.263 NA
ATOM     10  C   UNL     1      10.366  -3.804  -6.075  0.00  0.00    +0.111 A 
ATOM     11  C   UNL     1       9.797  -3.103  -7.122  0.00  0.00    +0.020 A 
ATOM     12  C   UNL     1       9.805  -1.717  -7.090  0.00  0.00    +0.008 A 
ENDBRANCH   3   7
TORSDOF 1
ENDMDL
MODEL 7
REMARK VINA RESULT:    -0.753      1.723      4.614
REMARK INTER + INTRA:          -1.021
REMARK INTER:                  -0.765
REMARK INTRA:                  -0.256
REMARK UNBOUND:                -0.223
REMARK  Name = Nicotine.pdb
REMARK  2 active torsions:
REMARK  status: ('A' for Active; 'I' for Inactive)
REMARK    1  A    between atoms: C_3  and  C_6
REMARK    2  A    between atoms: N_4  and  C_12
REMARK                            x       y       z     vdW  Elec       q    Type
REMARK                         _______ _______ _______ _____ _____    ______ ____
ROOT
ATOM      1  C   UNL     1       9.109   1.420  -7.254  0.00  0.00    +0.017 C 
ATOM      2  C   UNL     1       8.719  -0.076  -7.121  0.00  0.00    +0.025 C 
ATOM      3  C   UNL     1       9.401  -0.498  -5.803  0.00  0.00    +0.088 C 
ATOM      4  N   UNL     1      10.502   0.452  -5.557  0.00  0.00    -0.298 NA
ATOM      5  C   UNL     1      10.546   1.421  -6.673  0.00  0.00    +0.085 C 
ATOM      6  C   UNL     1      10.330   1.137  -4.270  0.00  0.00    +0.105 C 
ENDROOT
BRANCH   3   7
ATOM      7  C   UNL     1       9.948  -1.896  -5.933  0.00  0.00    -0.012 A 
ATOM      8  C   UNL     1      10.233  -2.642  -4.805  0.00  0.00    +0.115 A 
ATOM      9  N   UNL     1      10.712  -3.867  -4.910  0.00  0.00    -0.263 NA
ATOM     10  C   UNL     1      10.936  -4.425  -6.083  0.00  0.00    +0.111 A 
ATOM     11  C   UNL     1      10.674  -3.740  -7.255  0.00  0.00    +0.020 A 
ATOM     12  C   UNL     1      10.165  -2.452  -7.184  0.00  0.00    +0.008 A 
ENDBRANCH   3   7
TORSDOF 1
ENDMDL
MODEL 8
REMARK VINA RESULT:    -0.618     10.197     11.347
REMARK INTER + INTRA:          -0.878
REMARK INTER:                  -0.658
REMARK INTRA:                  -0.220
REMARK UNBOUND:                -0.223
REMARK  Name = Nicotine.pdb
REMARK  2 active torsions:
REMARK  status: ('A' for Active; 'I' for Inactive)
REMARK    1  A    between atoms: C_3  and  C_6
REMARK    2  A    between atoms: N_4  and  C_12
REMARK                            x       y       z     vdW  Elec       q    Type
REMARK                         _______ _______ _______ _____ _____    ______ ____
ROOT
ATOM      1  C   UNL     1       7.824  -4.845   5.396  0.00  0.00    +0.017 C 
ATOM      2  C   UNL     1       7.955  -3.436   4.759  0.00  0.00    +0.025 C 
ATOM      3  C   UNL     1       9.470  -3.315   4.492  0.00  0.00    +0.088 C 
ATOM      4  N   UNL     1      10.150  -4.258   5.397  0.00  0.00    -0.298 NA
ATOM      5  C   UNL     1       9.129  -4.935   6.225  0.00  0.00    +0.085 C 
ATOM      6  C   UNL     1      10.947  -5.233   4.641  0.00  0.00    +0.105 C 
ENDROOT
BRANCH   3   7
ATOM      7  C   UNL     1       9.930  -1.908   4.775  0.00  0.00    -0.012 A 
ATOM      8  C   UNL     1      10.549  -1.163   3.790  0.00  0.00    +0.115 A 
ATOM      9  N   UNL     1      10.954   0.069   4.029  0.00  0.00    -0.263 NA
ATOM     10  C   UNL     1      10.787   0.636   5.208  0.00  0.00    +0.111 A 
ATOM     11  C   UNL     1      10.176  -0.047   6.242  0.00  0.00    +0.020 A 
ATOM     12  C   UNL     1       9.732  -1.343   6.026  0.00  0.00    +0.008 A 
ENDBRANCH   3   7
TORSDOF 1
ENDMDL
