MODEL 1
REMARK VINA RESULT:     2.639      0.000      0.000
REMARK INTER + INTRA:           2.596
REMARK INTER:                   2.794
REMARK INTRA:                  -0.197
REMARK UNBOUND:                -0.197
REMARK  Name = Nicotine.pdb
REMARK  2 active torsions:
REMARK  status: ('A' for Active; 'I' for Inactive)
REMARK    1  A    between atoms: C_3  and  C_6
REMARK    2  A    between atoms: N_4  and  C_12
REMARK                            x       y       z     vdW  Elec       q    Type
REMARK                         _______ _______ _______ _____ _____    ______ ____
ROOT
ATOM      1  C   UNL     1       0.087   1.026   4.003  0.00  0.00    +0.017 C 
ATOM      2  C   UNL     1      -0.579   0.099   5.054  0.00  0.00    +0.025 C 
ATOM      3  C   UNL     1      -0.827  -1.203   4.262  0.00  0.00    +0.088 C 
ATOM      4  N   UNL     1      -0.851  -0.846   2.832  0.00  0.00    -0.298 NA
ATOM      5  C   UNL     1      -0.656   0.615   2.708  0.00  0.00    +0.085 C 
ATOM      6  C   UNL     1       0.180  -1.580   2.087  0.00  0.00    +0.105 C 
ENDROOT
BRANCH   3   7
ATOM      7  C   UNL     1      -2.148  -1.805   4.664  0.00  0.00    -0.012 A 
ATOM      8  C   UNL     1      -2.232  -2.632   5.768  0.00  0.00    +0.115 A 
ATOM      9  N   UNL     1      -3.385  -3.163   6.127  0.00  0.00    -0.263 NA
ATOM     10  C   UNL     1      -4.494  -2.929   5.455  0.00  0.00    +0.111 A 
ATOM     11  C   UNL     1      -4.488  -2.112   4.340  0.00  0.00    +0.020 A 
ATOM     12  C   UNL     1      -3.296  -1.531   3.936  0.00  0.00    +0.008 A 
ENDBRANCH   3   7
TORSDOF 1
ENDMDL
MODEL 2
REMARK VINA RESULT:     3.489      1.191      1.939
REMARK INTER + INTRA:           3.495
REMARK INTER:                   3.678
REMARK INTRA:                  -0.182
REMARK UNBOUND:                -0.197
REMARK  Name = Nicotine.pdb
REMARK  2 active torsions:
REMARK  status: ('A' for Active; 'I' for Inactive)
REMARK    1  A    between atoms: C_3  and  C_6
REMARK    2  A    between atoms: N_4  and  C_12
REMARK                            x       y       z     vdW  Elec       q    Type
REMARK                         _______ _______ _______ _____ _____    ______ ____
ROOT
ATOM      1  C   UNL     1       0.402   0.087   2.652  0.00  0.00    +0.017 C 
ATOM      2  C   UNL     1      -0.948  -0.673   2.563  0.00  0.00    +0.025 C 
ATOM      3  C   UNL     1      -1.720  -0.154   3.794  0.00  0.00    +0.088 C 
ATOM      4  N   UNL     1      -0.723   0.354   4.754  0.00  0.00    -0.298 NA
ATOM      5  C   UNL     1       0.626   0.148   4.183  0.00  0.00    +0.085 C 
ATOM      6  C   UNL     1      -0.957   1.771   5.057  0.00  0.00    +0.105 C 
ENDROOT
BRANCH   3   7
ATOM      7  C   UNL     1      -2.508  -1.277   4.417  0.00  0.00    -0.012 A 
ATOM      8  C   UNL     1      -1.969  -2.018   5.453  0.00  0.00    +0.115 A 
ATOM      9  N   UNL     1      -2.652  -3.003   6.003  0.00  0.00    -0.263 NA
ATOM     10  C   UNL     1      -3.864  -3.320   5.593  0.00  0.00    +0.111 A 
ATOM     11  C   UNL     1      -4.467  -2.624   4.563  0.00  0.00    +0.020 A 
ATOM     12  C   UNL     1      -3.783  -1.578   3.963  0.00  0.00    +0.008 A 
ENDBRANCH   3   7
TORSDOF 1
ENDMDL
MODEL 3
REMARK VINA RESULT:     4.141      1.087      4.595
REMARK INTER + INTRA:           4.186
REMARK INTER:                   4.393
REMARK INTRA:                  -0.207
REMARK UNBOUND:                -0.197
REMARK  Name = Nicotine.pdb
REMARK  2 active torsions:
REMARK  status: ('A' for Active; 'I' for Inactive)
REMARK    1  A    between atoms: C_3  and  C_6
REMARK    2  A    between atoms: N_4  and  C_12
REMARK                            x       y       z     vdW  Elec       q    Type
REMARK                         _______ _______ _______ _____ _____    ______ ____
ROOT
ATOM      1  C   UNL     1      -4.423  -2.768   3.389  0.00  0.00    +0.017 C 
ATOM      2  C   UNL     1      -3.043  -2.341   2.825  0.00  0.00    +0.025 C 
ATOM      3  C   UNL     1      -2.176  -2.204   4.095  0.00  0.00    +0.088 C 
ATOM      4  N   UNL     1      -3.093  -1.994   5.229  0.00  0.00    -0.298 NA
ATOM      5  C   UNL     1      -4.480  -1.970   4.716  0.00  0.00    +0.085 C 
ATOM      6  C   UNL     1      -2.926  -3.042   6.244  0.00  0.00    +0.105 C 
ENDROOT
BRANCH   3   7
ATOM      7  C   UNL     1      -1.249  -1.024   3.958  0.00  0.00    -0.012 A 
ATOM      8  C   UNL     1      -0.438  -0.898   2.846  0.00  0.00    +0.115 A 
ATOM      9  N   UNL     1       0.376   0.132   2.719  0.00  0.00    -0.263 NA
ATOM     10  C   UNL     1       0.450   1.075   3.637  0.00  0.00    +0.111 A 
ATOM     11  C   UNL     1      -0.331   1.016   4.776  0.00  0.00    +0.020 A 
ATOM     12  C   UNL     1      -1.203  -0.049   4.942  0.00  0.00    +0.008 A 
ENDBRANCH   3   7
TORSDOF 1
ENDMDL
MODEL 4
REMARK VINA RESULT:     4.998      1.290      4.527
REMARK INTER + INTRA:           5.093
REMARK INTER:                   5.302
REMARK INTRA:                  -0.209
REMARK UNBOUND:                -0.197
REMARK  Name = Nicotine.pdb
REMARK  2 active torsions:
REMARK  status: ('A' for Active; 'I' for Inactive)
REMARK    1  A    between atoms: C_3  and  C_6
REMARK    2  A    between atoms: N_4  and  C_12
REMARK                            x       y       z     vdW  Elec       q    Type
REMARK                         _______ _______ _______ _____ _____    ______ ____
ROOT
ATOM      1  C   UNL     1      -3.655  -3.609   5.845  0.00  0.00    +0.017 C 
ATOM      2  C   UNL     1      -2.312  -2.832   5.860  0.00  0.00    +0.025 C 
ATOM      3  C   UNL     1      -2.713  -1.436   5.339  0.00  0.00    +0.088 C 
ATOM      4  N   UNL     1      -3.965  -1.596   4.578  0.00  0.00    -0.298 NA
ATOM      5  C   UNL     1      -4.339  -3.026   4.583  0.00  0.00    +0.085 C 
ATOM      6  C   UNL     1      -5.037  -0.768   5.146  0.00  0.00    +0.105 C 
ENDROOT
BRANCH   3   7
ATOM      7  C   UNL     1      -1.631  -0.893   4.442  0.00  0.00    -0.012 A 
ATOM      8  C   UNL     1      -0.935   0.248   4.797  0.00  0.00    +0.115 A 
ATOM      9  N   UNL     1       0.013   0.729   4.017  0.00  0.00    -0.263 NA
ATOM     10  C   UNL     1       0.334   0.149   2.877  0.00  0.00    +0.111 A 
ATOM     11  C   UNL     1      -0.318  -0.995   2.457  0.00  0.00    +0.020 A 
ATOM     12  C   UNL     1      -1.317  -1.534   3.253  0.00  0.00    +0.008 A 
ENDBRANCH   3   7
TORSDOF 1
ENDMDL
