MODEL 1
REMARK VINA RESULT:    -3.769      0.000      0.000
REMARK INTER + INTRA:          -4.198
REMARK INTER:                  -3.989
REMARK INTRA:                  -0.209
REMARK UNBOUND:                -0.209
REMARK  Name = Nicotine.pdb
REMARK  2 active torsions:
REMARK  status: ('A' for Active; 'I' for Inactive)
REMARK    1  A    between atoms: C_3  and  C_6
REMARK    2  A    between atoms: N_4  and  C_12
REMARK                            x       y       z     vdW  Elec       q    Type
REMARK                         _______ _______ _______ _____ _____    ______ ____
ROOT
ATOM      1  C   UNL     1       7.913   5.997  -7.256  0.00  0.00    +0.017 C 
ATOM      2  C   UNL     1       7.609   6.415  -5.793  0.00  0.00    +0.025 C 
ATOM      3  C   UNL     1       8.893   6.005  -5.041  0.00  0.00    +0.088 C 
ATOM      4  N   UNL     1       9.559   4.967  -5.847  0.00  0.00    -0.298 NA
ATOM      5  C   UNL     1       8.736   4.701  -7.046  0.00  0.00    +0.085 C 
ATOM      6  C   UNL     1      10.917   5.383  -6.222  0.00  0.00    +0.105 C 
ENDROOT
BRANCH   3   7
ATOM      7  C   UNL     1       8.538   5.453  -3.685  0.00  0.00    -0.012 A 
ATOM      8  C   UNL     1       7.216   5.245  -3.339  0.00  0.00    +0.115 A 
ATOM      9  N   UNL     1       6.896   4.762  -2.154  0.00  0.00    -0.263 NA
ATOM     10  C   UNL     1       7.815   4.460  -1.258  0.00  0.00    +0.111 A 
ATOM     11  C   UNL     1       9.158   4.641  -1.533  0.00  0.00    +0.020 A 
ATOM     12  C   UNL     1       9.532   5.142  -2.770  0.00  0.00    +0.008 A 
ENDBRANCH   3   7
TORSDOF 1
ENDMDL
MODEL 2
REMARK VINA RESULT:    -3.430      1.642      4.699
REMARK INTER + INTRA:          -3.840
REMARK INTER:                  -3.589
REMARK INTRA:                  -0.251
REMARK UNBOUND:                -0.209
REMARK  Name = Nicotine.pdb
REMARK  2 active torsions:
REMARK  status: ('A' for Active; 'I' for Inactive)
REMARK    1  A    between atoms: C_3  and  C_6
REMARK    2  A    between atoms: N_4  and  C_12
REMARK                            x       y       z     vdW  Elec       q    Type
REMARK                         _______ _______ _______ _____ _____    ______ ____
ROOT
ATOM      1  C   UNL     1       8.312   5.147  -0.229  0.00  0.00    +0.017 C 
ATOM      2  C   UNL     1       8.459   4.451  -1.608  0.00  0.00    +0.025 C 
ATOM      3  C   UNL     1       9.560   5.282  -2.301  0.00  0.00    +0.088 C 
ATOM      4  N   UNL     1       9.588   6.602  -1.646  0.00  0.00    -0.298 NA
ATOM      5  C   UNL     1       8.541   6.633  -0.603  0.00  0.00    +0.085 C 
ATOM      6  C   UNL     1      10.911   6.879  -1.073  0.00  0.00    +0.105 C 
ENDROOT
BRANCH   3   7
ATOM      7  C   UNL     1       9.239   5.441  -3.764  0.00  0.00    -0.012 A 
ATOM      8  C   UNL     1      10.248   5.416  -4.708  0.00  0.00    +0.115 A 
ATOM      9  N   UNL     1       9.976   5.554  -5.991  0.00  0.00    -0.263 NA
ATOM     10  C   UNL     1       8.741   5.720  -6.423  0.00  0.00    +0.111 A 
ATOM     11  C   UNL     1       7.680   5.754  -5.538  0.00  0.00    +0.020 A 
ATOM     12  C   UNL     1       7.927   5.607  -4.182  0.00  0.00    +0.008 A 
ENDBRANCH   3   7
TORSDOF 1
ENDMDL
MODEL 3
REMARK VINA RESULT:    -3.344      2.987      4.215
REMARK INTER + INTRA:          -3.749
REMARK INTER:                  -3.526
REMARK INTRA:                  -0.223
REMARK UNBOUND:                -0.209
REMARK  Name = Nicotine.pdb
REMARK  2 active torsions:
REMARK  status: ('A' for Active; 'I' for Inactive)
REMARK    1  A    between atoms: C_3  and  C_6
REMARK    2  A    between atoms: N_4  and  C_12
REMARK                            x       y       z     vdW  Elec       q    Type
REMARK                         _______ _______ _______ _____ _____    ______ ____
ROOT
ATOM      1  C   UNL     1       7.181   6.292  -2.852  0.00  0.00    +0.017 C 
ATOM      2  C   UNL     1       7.548   6.857  -1.455  0.00  0.00    +0.025 C 
ATOM      3  C   UNL     1       9.081   6.688  -1.404  0.00  0.00    +0.088 C 
ATOM      4  N   UNL     1       9.437   5.634  -2.371  0.00  0.00    -0.298 NA
ATOM      5  C   UNL     1       8.195   5.130  -2.996  0.00  0.00    +0.085 C 
ATOM      6  C   UNL     1      10.368   6.143  -3.386  0.00  0.00    +0.105 C 
ENDROOT
BRANCH   3   7
ATOM      7  C   UNL     1       9.506   6.278  -0.018  0.00  0.00    -0.012 A 
ATOM      8  C   UNL     1      10.284   5.151   0.170  0.00  0.00    +0.115 A 
ATOM      9  N   UNL     1      10.661   4.785   1.380  0.00  0.00    -0.263 NA
ATOM     10  C   UNL     1      10.314   5.471   2.451  0.00  0.00    +0.111 A 
ATOM     11  C   UNL     1       9.537   6.609   2.341  0.00  0.00    +0.020 A 
ATOM     12  C   UNL     1       9.127   7.028   1.085  0.00  0.00    +0.008 A 
ENDBRANCH   3   7
TORSDOF 1
ENDMDL
MODEL 4
REMARK VINA RESULT:    -2.950      1.739      1.984
REMARK INTER + INTRA:          -3.332
REMARK INTER:                  -3.123
REMARK INTRA:                  -0.209
REMARK UNBOUND:                -0.209
REMARK  Name = Nicotine.pdb
REMARK  2 active torsions:
REMARK  status: ('A' for Active; 'I' for Inactive)
REMARK    1  A    between atoms: C_3  and  C_6
REMARK    2  A    between atoms: N_4  and  C_12
REMARK                            x       y       z     vdW  Elec       q    Type
REMARK                         _______ _______ _______ _____ _____    ______ ____
ROOT
ATOM      1  C   UNL     1       8.298   5.243  -5.841  0.00  0.00    +0.017 C 
ATOM      2  C   UNL     1       7.753   5.661  -4.450  0.00  0.00    +0.025 C 
ATOM      3  C   UNL     1       8.955   6.387  -3.810  0.00  0.00    +0.088 C 
ATOM      4  N   UNL     1      10.169   5.912  -4.498  0.00  0.00    -0.298 NA
ATOM      5  C   UNL     1       9.774   4.910  -5.512  0.00  0.00    +0.085 C 
ATOM      6  C   UNL     1      10.896   7.028  -5.115  0.00  0.00    +0.105 C 
ENDROOT
BRANCH   3   7
ATOM      7  C   UNL     1       9.033   6.055  -2.343  0.00  0.00    -0.012 A 
ATOM      8  C   UNL     1       8.757   4.775  -1.900  0.00  0.00    +0.115 A 
ATOM      9  N   UNL     1       8.823   4.477  -0.617  0.00  0.00    -0.263 NA
ATOM     10  C   UNL     1       9.150   5.377   0.288  0.00  0.00    +0.111 A 
ATOM     11  C   UNL     1       9.440   6.678  -0.080  0.00  0.00    +0.020 A 
ATOM     12  C   UNL     1       9.387   7.028  -1.420  0.00  0.00    +0.008 A 
ENDBRANCH   3   7
TORSDOF 1
ENDMDL
MODEL 5
REMARK VINA RESULT:    -2.846      1.431      4.506
REMARK INTER + INTRA:          -3.221
REMARK INTER:                  -3.026
REMARK INTRA:                  -0.196
REMARK UNBOUND:                -0.209
REMARK  Name = Nicotine.pdb
REMARK  2 active torsions:
REMARK  status: ('A' for Active; 'I' for Inactive)
REMARK    1  A    between atoms: C_3  and  C_6
REMARK    2  A    between atoms: N_4  and  C_12
REMARK                            x       y       z     vdW  Elec       q    Type
REMARK                         _______ _______ _______ _____ _____    ______ ____
ROOT
ATOM      1  C   UNL     1       8.346   6.652  -0.461  0.00  0.00    +0.017 C 
ATOM      2  C   UNL     1       8.116   7.028  -1.949  0.00  0.00    +0.025 C 
ATOM      3  C   UNL     1       7.736   5.678  -2.593  0.00  0.00    +0.088 C 
ATOM      4  N   UNL     1       8.267   4.613  -1.722  0.00  0.00    -0.298 NA
ATOM      5  C   UNL     1       8.976   5.243  -0.588  0.00  0.00    +0.085 C 
ATOM      6  C   UNL     1       7.191   3.734  -1.248  0.00  0.00    +0.105 C 
ENDROOT
BRANCH   3   7
ATOM      7  C   UNL     1       8.351   5.573  -3.965  0.00  0.00    -0.012 A 
ATOM      8  C   UNL     1       7.578   5.770  -5.094  0.00  0.00    +0.115 A 
ATOM      9  N   UNL     1       8.107   5.681  -6.298  0.00  0.00    -0.263 NA
ATOM     10  C   UNL     1       9.384   5.402  -6.475  0.00  0.00    +0.111 A 
ATOM     11  C   UNL     1      10.219   5.193  -5.393  0.00  0.00    +0.020 A 
ATOM     12  C   UNL     1       9.699   5.284  -4.112  0.00  0.00    +0.008 A 
ENDBRANCH   3   7
TORSDOF 1
ENDMDL
MODEL 6
REMARK VINA RESULT:    -1.848      2.119      3.592
REMARK INTER + INTRA:          -2.165
REMARK INTER:                  -1.917
REMARK INTRA:                  -0.249
REMARK UNBOUND:                -0.209
REMARK  Name = Nicotine.pdb
REMARK  2 active torsions:
REMARK  status: ('A' for Active; 'I' for Inactive)
REMARK    1  A    between atoms: C_3  and  C_6
REMARK    2  A    between atoms: N_4  and  C_12
REMARK                            x       y       z     vdW  Elec       q    Type
REMARK                         _______ _______ _______ _____ _____    ______ ____
ROOT
ATOM      1  C   UNL     1       8.376   5.590  -4.812  0.00  0.00    +0.017 C 
ATOM      2  C   UNL     1       9.455   5.368  -3.719  0.00  0.00    +0.025 C 
ATOM      3  C   UNL     1       8.621   4.964  -2.485  0.00  0.00    +0.088 C 
ATOM      4  N   UNL     1       7.255   5.475  -2.695  0.00  0.00    -0.298 NA
ATOM      5  C   UNL     1       7.214   6.195  -3.985  0.00  0.00    +0.085 C 
ATOM      6  C   UNL     1       6.274   4.383  -2.669  0.00  0.00    +0.105 C 
ENDROOT
BRANCH   3   7
ATOM      7  C   UNL     1       9.215   5.577  -1.243  0.00  0.00    -0.012 A 
ATOM      8  C   UNL     1       8.725   5.240   0.005  0.00  0.00    +0.115 A 
ATOM      9  N   UNL     1       9.239   5.771   1.097  0.00  0.00    -0.263 NA
ATOM     10  C   UNL     1      10.230   6.638   1.046  0.00  0.00    +0.111 A 
ATOM     11  C   UNL     1      10.772   7.023  -0.167  0.00  0.00    +0.020 A 
ATOM     12  C   UNL     1      10.261   6.482  -1.336  0.00  0.00    +0.008 A 
ENDBRANCH   3   7
TORSDOF 1
ENDMDL
