MODEL 1
REMARK VINA RESULT:    -3.591      0.000      0.000
REMARK INTER + INTRA:          -4.032
REMARK INTER:                  -3.801
REMARK INTRA:                  -0.232
REMARK UNBOUND:                -0.232
REMARK  Name = Nicotine.pdb
REMARK  2 active torsions:
REMARK  status: ('A' for Active; 'I' for Inactive)
REMARK    1  A    between atoms: C_3  and  C_6
REMARK    2  A    between atoms: N_4  and  C_12
REMARK                            x       y       z     vdW  Elec       q    Type
REMARK                         _______ _______ _______ _____ _____    ______ ____
ROOT
ATOM      1  C   UNL     1       7.986   4.291   4.753  0.00  0.00    +0.017 C 
ATOM      2  C   UNL     1       7.940   2.790   5.145  0.00  0.00    +0.025 C 
ATOM      3  C   UNL     1       9.351   2.538   5.719  0.00  0.00    +0.088 C 
ATOM      4  N   UNL     1      10.238   3.578   5.169  0.00  0.00    -0.298 NA
ATOM      5  C   UNL     1       9.449   4.442   4.266  0.00  0.00    +0.085 C 
ATOM      6  C   UNL     1      10.857   4.365   6.244  0.00  0.00    +0.105 C 
ENDROOT
BRANCH   3   7
ATOM      7  C   UNL     1       9.837   1.174   5.302  0.00  0.00    -0.012 A 
ATOM      8  C   UNL     1      10.321   0.286   6.244  0.00  0.00    +0.115 A 
ATOM      9  N   UNL     1      10.748  -0.909   5.887  0.00  0.00    -0.263 NA
ATOM     10  C   UNL     1      10.734  -1.304   4.630  0.00  0.00    +0.111 A 
ATOM     11  C   UNL     1      10.264  -0.471   3.632  0.00  0.00    +0.020 A 
ATOM     12  C   UNL     1       9.801   0.792   3.969  0.00  0.00    +0.008 A 
ENDBRANCH   3   7
TORSDOF 1
ENDMDL
MODEL 2
REMARK VINA RESULT:    -3.504      2.567      3.258
REMARK INTER + INTRA:          -3.941
REMARK INTER:                  -3.757
REMARK INTRA:                  -0.184
REMARK UNBOUND:                -0.232
REMARK  Name = Nicotine.pdb
REMARK  2 active torsions:
REMARK  status: ('A' for Active; 'I' for Inactive)
REMARK    1  A    between atoms: C_3  and  C_6
REMARK    2  A    between atoms: N_4  and  C_12
REMARK                            x       y       z     vdW  Elec       q    Type
REMARK                         _______ _______ _______ _____ _____    ______ ____
ROOT
ATOM      1  C   UNL     1       8.520   2.512   5.880  0.00  0.00    +0.017 C 
ATOM      2  C   UNL     1       9.620   1.819   5.034  0.00  0.00    +0.025 C 
ATOM      3  C   UNL     1      10.093   2.944   4.090  0.00  0.00    +0.088 C 
ATOM      4  N   UNL     1       9.004   3.934   4.010  0.00  0.00    -0.298 NA
ATOM      5  C   UNL     1       7.875   3.460   4.838  0.00  0.00    +0.085 C 
ATOM      6  C   UNL     1       9.461   5.258   4.450  0.00  0.00    +0.105 C 
ENDROOT
BRANCH   3   7
ATOM      7  C   UNL     1      10.377   2.380   2.722  0.00  0.00    -0.012 A 
ATOM      8  C   UNL     1      10.704   1.046   2.570  0.00  0.00    +0.115 A 
ATOM      9  N   UNL     1      10.954   0.545   1.376  0.00  0.00    -0.263 NA
ATOM     10  C   UNL     1      10.903   1.287   0.288  0.00  0.00    +0.111 A 
ATOM     11  C   UNL     1      10.583   2.630   0.361  0.00  0.00    +0.020 A 
ATOM     12  C   UNL     1      10.309   3.191   1.599  0.00  0.00    +0.008 A 
ENDBRANCH   3   7
TORSDOF 1
ENDMDL
MODEL 3
REMARK VINA RESULT:    -3.279      1.832      4.954
REMARK INTER + INTRA:          -3.702
REMARK INTER:                  -3.480
REMARK INTRA:                  -0.222
REMARK UNBOUND:                -0.232
REMARK  Name = Nicotine.pdb
REMARK  2 active torsions:
REMARK  status: ('A' for Active; 'I' for Inactive)
REMARK    1  A    between atoms: C_3  and  C_6
REMARK    2  A    between atoms: N_4  and  C_12
REMARK                            x       y       z     vdW  Elec       q    Type
REMARK                         _______ _______ _______ _____ _____    ______ ____
ROOT
ATOM      1  C   UNL     1       9.516   1.517   6.227  0.00  0.00    +0.017 C 
ATOM      2  C   UNL     1       8.804   2.770   5.653  0.00  0.00    +0.025 C 
ATOM      3  C   UNL     1       9.336   2.838   4.206  0.00  0.00    +0.088 C 
ATOM      4  N   UNL     1      10.609   2.096   4.172  0.00  0.00    -0.298 NA
ATOM      5  C   UNL     1      10.899   1.597   5.533  0.00  0.00    +0.085 C 
ATOM      6  C   UNL     1      10.550   0.992   3.207  0.00  0.00    +0.105 C 
ENDROOT
BRANCH   3   7
ATOM      7  C   UNL     1       9.567   4.274   3.812  0.00  0.00    -0.012 A 
ATOM      8  C   UNL     1      10.319   4.580   2.694  0.00  0.00    +0.115 A 
ATOM      9  N   UNL     1      10.526   5.834   2.342  0.00  0.00    -0.263 NA
ATOM     10  C   UNL     1      10.030   6.839   3.036  0.00  0.00    +0.111 A 
ATOM     11  C   UNL     1       9.268   6.611   4.166  0.00  0.00    +0.020 A 
ATOM     12  C   UNL     1       9.024   5.305   4.563  0.00  0.00    +0.008 A 
ENDBRANCH   3   7
TORSDOF 1
ENDMDL
MODEL 4
REMARK VINA RESULT:    -3.067      2.350      3.616
REMARK INTER + INTRA:          -3.478
REMARK INTER:                  -3.285
REMARK INTRA:                  -0.192
REMARK UNBOUND:                -0.232
REMARK  Name = Nicotine.pdb
REMARK  2 active torsions:
REMARK  status: ('A' for Active; 'I' for Inactive)
REMARK    1  A    between atoms: C_3  and  C_6
REMARK    2  A    between atoms: N_4  and  C_12
REMARK                            x       y       z     vdW  Elec       q    Type
REMARK                         _______ _______ _______ _____ _____    ______ ____
ROOT
ATOM      1  C   UNL     1      10.030   3.964   6.080  0.00  0.00    +0.017 C 
ATOM      2  C   UNL     1      10.519   4.063   4.611  0.00  0.00    +0.025 C 
ATOM      3  C   UNL     1       9.375   3.395   3.819  0.00  0.00    +0.088 C 
ATOM      4  N   UNL     1       8.649   2.519   4.755  0.00  0.00    -0.298 NA
ATOM      5  C   UNL     1       9.305   2.595   6.077  0.00  0.00    +0.085 C 
ATOM      6  C   UNL     1       7.234   2.902   4.846  0.00  0.00    +0.105 C 
ENDROOT
BRANCH   3   7
ATOM      7  C   UNL     1       9.943   2.579   2.687  0.00  0.00    -0.012 A 
ATOM      8  C   UNL     1      10.005   3.104   1.409  0.00  0.00    +0.115 A 
ATOM      9  N   UNL     1      10.501   2.396   0.413  0.00  0.00    -0.263 NA
ATOM     10  C   UNL     1      10.954   1.171   0.591  0.00  0.00    +0.111 A 
ATOM     11  C   UNL     1      10.925   0.580   1.841  0.00  0.00    +0.020 A 
ATOM     12  C   UNL     1      10.416   1.295   2.913  0.00  0.00    +0.008 A 
ENDBRANCH   3   7
TORSDOF 1
ENDMDL
MODEL 5
REMARK VINA RESULT:    -2.814      2.155      5.024
REMARK INTER + INTRA:          -3.211
REMARK INTER:                  -2.975
REMARK INTRA:                  -0.236
REMARK UNBOUND:                -0.232
REMARK  Name = Nicotine.pdb
REMARK  2 active torsions:
REMARK  status: ('A' for Active; 'I' for Inactive)
REMARK    1  A    between atoms: C_3  and  C_6
REMARK    2  A    between atoms: N_4  and  C_12
REMARK                            x       y       z     vdW  Elec       q    Type
REMARK                         _______ _______ _______ _____ _____    ______ ____
ROOT
ATOM      1  C   UNL     1      10.234   1.516   5.406  0.00  0.00    +0.017 C 
ATOM      2  C   UNL     1      10.827   2.930   5.170  0.00  0.00    +0.025 C 
ATOM      3  C   UNL     1       9.588   3.767   4.790  0.00  0.00    +0.088 C 
ATOM      4  N   UNL     1       8.562   2.831   4.297  0.00  0.00    -0.298 NA
ATOM      5  C   UNL     1       9.119   1.462   4.332  0.00  0.00    +0.085 C 
ATOM      6  C   UNL     1       7.336   2.922   5.100  0.00  0.00    +0.105 C 
ENDROOT
BRANCH   3   7
ATOM      7  C   UNL     1       9.947   4.752   3.707  0.00  0.00    -0.012 A 
ATOM      8  C   UNL     1       9.592   6.083   3.827  0.00  0.00    +0.115 A 
ATOM      9  N   UNL     1       9.902   6.951   2.884  0.00  0.00    -0.263 NA
ATOM     10  C   UNL     1      10.558   6.591   1.798  0.00  0.00    +0.111 A 
ATOM     11  C   UNL     1      10.947   5.278   1.610  0.00  0.00    +0.020 A 
ATOM     12  C   UNL     1      10.642   4.337   2.582  0.00  0.00    +0.008 A 
ENDBRANCH   3   7
TORSDOF 1
ENDMDL
MODEL 6
REMARK VINA RESULT:    -2.759      1.452      1.946
REMARK INTER + INTRA:          -3.152
REMARK INTER:                  -2.929
REMARK INTRA:                  -0.223
REMARK UNBOUND:                -0.232
REMARK  Name = Nicotine.pdb
REMARK  2 active torsions:
REMARK  status: ('A' for Active; 'I' for Inactive)
REMARK    1  A    between atoms: C_3  and  C_6
REMARK    2  A    between atoms: N_4  and  C_12
REMARK                            x       y       z     vdW  Elec       q    Type
REMARK                         _______ _______ _______ _____ _____    ______ ____
ROOT
ATOM      1  C   UNL     1       8.308   3.378   5.741  0.00  0.00    +0.017 C 
ATOM      2  C   UNL     1       9.092   2.133   6.233  0.00  0.00    +0.025 C 
ATOM      3  C   UNL     1      10.232   2.010   5.200  0.00  0.00    +0.088 C 
ATOM      4  N   UNL     1       9.794   2.711   3.980  0.00  0.00    -0.298 NA
ATOM      5  C   UNL     1       8.431   3.237   4.203  0.00  0.00    +0.085 C 
ATOM      6  C   UNL     1      10.725   3.792   3.630  0.00  0.00    +0.105 C 
ENDROOT
BRANCH   3   7
ATOM      7  C   UNL     1      10.492   0.558   4.894  0.00  0.00    -0.012 A 
ATOM      8  C   UNL     1      10.514   0.113   3.585  0.00  0.00    +0.115 A 
ATOM      9  N   UNL     1      10.741  -1.156   3.308  0.00  0.00    -0.263 NA
ATOM     10  C   UNL     1      10.954  -2.045   4.257  0.00  0.00    +0.111 A 
ATOM     11  C   UNL     1      10.947  -1.674   5.589  0.00  0.00    +0.020 A 
ATOM     12  C   UNL     1      10.718  -0.348   5.919  0.00  0.00    +0.008 A 
ENDBRANCH   3   7
TORSDOF 1
ENDMDL
MODEL 7
REMARK VINA RESULT:    -2.755      3.395      4.661
REMARK INTER + INTRA:          -3.148
REMARK INTER:                  -2.926
REMARK INTRA:                  -0.222
REMARK UNBOUND:                -0.232
REMARK  Name = Nicotine.pdb
REMARK  2 active torsions:
REMARK  status: ('A' for Active; 'I' for Inactive)
REMARK    1  A    between atoms: C_3  and  C_6
REMARK    2  A    between atoms: N_4  and  C_12
REMARK                            x       y       z     vdW  Elec       q    Type
REMARK                         _______ _______ _______ _____ _____    ______ ____
ROOT
ATOM      1  C   UNL     1       9.804   0.661   4.563  0.00  0.00    +0.017 C 
ATOM      2  C   UNL     1      10.671   0.466   3.291  0.00  0.00    +0.025 C 
ATOM      3  C   UNL     1      10.912   1.913   2.810  0.00  0.00    +0.088 C 
ATOM      4  N   UNL     1       9.839   2.747   3.379  0.00  0.00    -0.298 NA
ATOM      5  C   UNL     1       8.935   1.880   4.165  0.00  0.00    +0.085 C 
ATOM      6  C   UNL     1      10.392   3.824   4.211  0.00  0.00    +0.105 C 
ENDROOT
BRANCH   3   7
ATOM      7  C   UNL     1      10.864   1.968   1.305  0.00  0.00    -0.012 A 
ATOM      8  C   UNL     1      10.738   3.180   0.654  0.00  0.00    +0.115 A 
ATOM      9  N   UNL     1      10.695   3.237  -0.663  0.00  0.00    -0.263 NA
ATOM     10  C   UNL     1      10.768   2.150  -1.406  0.00  0.00    +0.111 A 
ATOM     11  C   UNL     1      10.895   0.902  -0.825  0.00  0.00    +0.020 A 
ATOM     12  C   UNL     1      10.949   0.804   0.557  0.00  0.00    +0.008 A 
ENDBRANCH   3   7
TORSDOF 1
ENDMDL
MODEL 8
REMARK VINA RESULT:    -2.589      2.029      2.985
REMARK INTER + INTRA:          -2.972
REMARK INTER:                  -2.758
REMARK INTRA:                  -0.214
REMARK UNBOUND:                -0.232
REMARK  Name = Nicotine.pdb
REMARK  2 active torsions:
REMARK  status: ('A' for Active; 'I' for Inactive)
REMARK    1  A    between atoms: C_3  and  C_6
REMARK    2  A    between atoms: N_4  and  C_12
REMARK                            x       y       z     vdW  Elec       q    Type
REMARK                         _______ _______ _______ _____ _____    ______ ____
ROOT
ATOM      1  C   UNL     1      10.125   6.817   5.111  0.00  0.00    +0.017 C 
ATOM      2  C   UNL     1      10.658   5.397   5.436  0.00  0.00    +0.025 C 
ATOM      3  C   UNL     1      10.938   4.803   4.039  0.00  0.00    +0.088 C 
ATOM      4  N   UNL     1      10.115   5.552   3.073  0.00  0.00    -0.298 NA
ATOM      5  C   UNL     1       9.323   6.560   3.810  0.00  0.00    +0.085 C 
ATOM      6  C   UNL     1      10.952   6.187   2.047  0.00  0.00    +0.105 C 
ENDROOT
BRANCH   3   7
ATOM      7  C   UNL     1      10.559   3.345   4.017  0.00  0.00    -0.012 A 
ATOM      8  C   UNL     1       9.808   2.803   5.042  0.00  0.00    +0.115 A 
ATOM      9  N   UNL     1       9.472   1.527   5.030  0.00  0.00    -0.263 NA
ATOM     10  C   UNL     1       9.834   0.724   4.050  0.00  0.00    +0.111 A 
ATOM     11  C   UNL     1      10.585   1.196   2.989  0.00  0.00    +0.020 A 
ATOM     12  C   UNL     1      10.953   2.533   2.965  0.00  0.00    +0.008 A 
ENDBRANCH   3   7
TORSDOF 1
ENDMDL
MODEL 9
REMARK VINA RESULT:    -1.835      2.412      5.137
REMARK INTER + INTRA:          -2.173
REMARK INTER:                  -1.989
REMARK INTRA:                  -0.184
REMARK UNBOUND:                -0.232
REMARK  Name = Nicotine.pdb
REMARK  2 active torsions:
REMARK  status: ('A' for Active; 'I' for Inactive)
REMARK    1  A    between atoms: C_3  and  C_6
REMARK    2  A    between atoms: N_4  and  C_12
REMARK                            x       y       z     vdW  Elec       q    Type
REMARK                         _______ _______ _______ _____ _____    ______ ____
ROOT
ATOM      1  C   UNL     1       8.983   1.459   3.939  0.00  0.00    +0.017 C 
ATOM      2  C   UNL     1       9.804   2.280   2.909  0.00  0.00    +0.025 C 
ATOM      3  C   UNL     1      10.560   3.292   3.796  0.00  0.00    +0.088 C 
ATOM      4  N   UNL     1       9.809   3.413   5.059  0.00  0.00    -0.298 NA
ATOM      5  C   UNL     1       8.615   2.544   4.982  0.00  0.00    +0.085 C 
ATOM      6  C   UNL     1      10.649   3.054   6.208  0.00  0.00    +0.105 C 
ENDROOT
BRANCH   3   7
ATOM      7  C   UNL     1      10.624   4.630   3.106  0.00  0.00    -0.012 A 
ATOM      8  C   UNL     1      10.526   4.713   1.730  0.00  0.00    +0.115 A 
ATOM      9  N   UNL     1      10.581   5.880   1.118  0.00  0.00    -0.263 NA
ATOM     10  C   UNL     1      10.730   7.006   1.787  0.00  0.00    +0.111 A 
ATOM     11  C   UNL     1      10.834   7.003   3.165  0.00  0.00    +0.020 A 
ATOM     12  C   UNL     1      10.775   5.795   3.843  0.00  0.00    +0.008 A 
ENDBRANCH   3   7
TORSDOF 1
ENDMDL
MODEL 10
REMARK VINA RESULT:    -1.411      2.466      4.117
REMARK INTER + INTRA:          -1.725
REMARK INTER:                  -1.519
REMARK INTRA:                  -0.207
REMARK UNBOUND:                -0.232
REMARK  Name = Nicotine.pdb
REMARK  2 active torsions:
REMARK  status: ('A' for Active; 'I' for Inactive)
REMARK    1  A    between atoms: C_3  and  C_6
REMARK    2  A    between atoms: N_4  and  C_12
REMARK                            x       y       z     vdW  Elec       q    Type
REMARK                         _______ _______ _______ _____ _____    ______ ____
ROOT
ATOM      1  C   UNL     1       7.069   2.536   5.067  0.00  0.00    +0.017 C 
ATOM      2  C   UNL     1       7.735   2.370   3.676  0.00  0.00    +0.025 C 
ATOM      3  C   UNL     1       9.226   2.638   3.970  0.00  0.00    +0.088 C 
ATOM      4  N   UNL     1       9.291   3.429   5.212  0.00  0.00    -0.298 NA
ATOM      5  C   UNL     1       7.912   3.682   5.682  0.00  0.00    +0.085 C 
ATOM      6  C   UNL     1      10.079   2.735   6.239  0.00  0.00    +0.105 C 
ENDROOT
BRANCH   3   7
ATOM      7  C   UNL     1       9.841   3.414   2.834  0.00  0.00    -0.012 A 
ATOM      8  C   UNL     1      10.165   4.748   2.993  0.00  0.00    +0.115 A 
ATOM      9  N   UNL     1      10.704   5.434   2.004  0.00  0.00    -0.263 NA
ATOM     10  C   UNL     1      10.954   4.881   0.833  0.00  0.00    +0.111 A 
ATOM     11  C   UNL     1      10.657   3.551   0.600  0.00  0.00    +0.020 A 
ATOM     12  C   UNL     1      10.095   2.797   1.618  0.00  0.00    +0.008 A 
ENDBRANCH   3   7
TORSDOF 1
ENDMDL
