MODEL 1
REMARK VINA RESULT:     0.000      0.000      0.000
REMARK INTER + INTRA:          -0.256
REMARK INTER:                   0.000
REMARK INTRA:                  -0.256
REMARK UNBOUND:                -0.256
REMARK  Name = Nicotine.pdb
REMARK  2 active torsions:
REMARK  status: ('A' for Active; 'I' for Inactive)
REMARK    1  A    between atoms: C_3  and  C_6
REMARK    2  A    between atoms: N_4  and  C_12
REMARK                            x       y       z     vdW  Elec       q    Type
REMARK                         _______ _______ _______ _____ _____    ______ ____
ROOT
ATOM      1  C   UNL     1       4.631   0.585   1.255  0.00  0.00    +0.017 C 
ATOM      2  C   UNL     1       3.250   0.542   0.551  0.00  0.00    +0.025 C 
ATOM      3  C   UNL     1       2.801  -0.920   0.756  0.00  0.00    +0.088 C 
ATOM      4  N   UNL     1       4.014  -1.719   1.004  0.00  0.00    -0.298 NA
ATOM      5  C   UNL     1       5.189  -0.824   0.936  0.00  0.00    +0.085 C 
ATOM      6  C   UNL     1       3.943  -2.397   2.305  0.00  0.00    +0.105 C 
ENDROOT
BRANCH   3   7
ATOM      7  C   UNL     1       2.100  -1.420  -0.481  0.00  0.00    -0.012 A 
ATOM      8  C   UNL     1       1.239  -2.498  -0.409  0.00  0.00    +0.115 A 
ATOM      9  N   UNL     1       0.622  -2.942  -1.487  0.00  0.00    -0.263 NA
ATOM     10  C   UNL     1       0.799  -2.381  -2.667  0.00  0.00    +0.111 A 
ATOM     11  C   UNL     1       1.645  -1.298  -2.816  0.00  0.00    +0.020 A 
ATOM     12  C   UNL     1       2.307  -0.800  -1.704  0.00  0.00    +0.008 A 
ENDBRANCH   3   7
TORSDOF 1
ENDMDL
MODEL 2
REMARK VINA RESULT:     0.000      3.039      3.526
REMARK INTER + INTRA:          -0.256
REMARK INTER:                   0.000
REMARK INTRA:                  -0.256
REMARK UNBOUND:                -0.256
REMARK  Name = Nicotine.pdb
REMARK  2 active torsions:
REMARK  status: ('A' for Active; 'I' for Inactive)
REMARK    1  A    between atoms: C_3  and  C_6
REMARK    2  A    between atoms: N_4  and  C_12
REMARK                            x       y       z     vdW  Elec       q    Type
REMARK                         _______ _______ _______ _____ _____    ______ ____
ROOT
ATOM      1  C   UNL     1       4.146   1.556   1.131  0.00  0.00    +0.017 C 
ATOM      2  C   UNL     1       4.016   0.326   0.193  0.00  0.00    +0.025 C 
ATOM      3  C   UNL     1       4.040  -0.864   1.176  0.00  0.00    +0.088 C 
ATOM      4  N   UNL     1       4.694  -0.397   2.411  0.00  0.00    -0.298 NA
ATOM      5  C   UNL     1       5.096   1.014   2.228  0.00  0.00    +0.085 C 
ATOM      6  C   UNL     1       3.801  -0.544   3.568  0.00  0.00    +0.105 C 
ENDROOT
BRANCH   3   7
ATOM      7  C   UNL     1       4.822  -2.005   0.579  0.00  0.00    -0.012 A 
ATOM      8  C   UNL     1       4.631  -3.296   1.034  0.00  0.00    +0.115 A 
ATOM      9  N   UNL     1       5.311  -4.301   0.518  0.00  0.00    -0.263 NA
ATOM     10  C   UNL     1       6.194  -4.118  -0.444  0.00  0.00    +0.111 A 
ATOM     11  C   UNL     1       6.438  -2.855  -0.950  0.00  0.00    +0.020 A 
ATOM     12  C   UNL     1       5.738  -1.775  -0.436  0.00  0.00    +0.008 A 
ENDBRANCH   3   7
TORSDOF 1
ENDMDL
MODEL 3
REMARK VINA RESULT:     0.000      2.999      3.556
REMARK INTER + INTRA:          -0.256
REMARK INTER:                   0.000
REMARK INTRA:                  -0.256
REMARK UNBOUND:                -0.256
REMARK  Name = Nicotine.pdb
REMARK  2 active torsions:
REMARK  status: ('A' for Active; 'I' for Inactive)
REMARK    1  A    between atoms: C_3  and  C_6
REMARK    2  A    between atoms: N_4  and  C_12
REMARK                            x       y       z     vdW  Elec       q    Type
REMARK                         _______ _______ _______ _____ _____    ______ ____
ROOT
ATOM      1  C   UNL     1       5.859  -4.939  -1.981  0.00  0.00    +0.017 C 
ATOM      2  C   UNL     1       5.297  -3.528  -2.298  0.00  0.00    +0.025 C 
ATOM      3  C   UNL     1       4.174  -3.359  -1.252  0.00  0.00    +0.088 C 
ATOM      4  N   UNL     1       3.773  -4.710  -0.820  0.00  0.00    -0.298 NA
ATOM      5  C   UNL     1       4.576  -5.701  -1.567  0.00  0.00    +0.085 C 
ATOM      6  C   UNL     1       3.948  -4.874   0.629  0.00  0.00    +0.105 C 
ENDROOT
BRANCH   3   7
ATOM      7  C   UNL     1       2.999  -2.647  -1.871  0.00  0.00    -0.012 A 
ATOM      8  C   UNL     1       2.077  -1.996  -1.074  0.00  0.00    +0.115 A 
ATOM      9  N   UNL     1       1.046  -1.370  -1.608  0.00  0.00    -0.263 NA
ATOM     10  C   UNL     1       0.853  -1.340  -2.911  0.00  0.00    +0.111 A 
ATOM     11  C   UNL     1       1.734  -1.969  -3.772  0.00  0.00    +0.020 A 
ATOM     12  C   UNL     1       2.832  -2.632  -3.247  0.00  0.00    +0.008 A 
ENDBRANCH   3   7
TORSDOF 1
ENDMDL
MODEL 4
REMARK VINA RESULT:     0.000      2.009      2.412
REMARK INTER + INTRA:          -0.256
REMARK INTER:                   0.000
REMARK INTRA:                  -0.256
REMARK UNBOUND:                -0.256
REMARK  Name = Nicotine.pdb
REMARK  2 active torsions:
REMARK  status: ('A' for Active; 'I' for Inactive)
REMARK    1  A    between atoms: C_3  and  C_6
REMARK    2  A    between atoms: N_4  and  C_12
REMARK                            x       y       z     vdW  Elec       q    Type
REMARK                         _______ _______ _______ _____ _____    ______ ____
ROOT
ATOM      1  C   UNL     1       4.565   1.487   0.778  0.00  0.00    +0.017 C 
ATOM      2  C   UNL     1       3.411   1.344  -0.249  0.00  0.00    +0.025 C 
ATOM      3  C   UNL     1       3.525  -0.129  -0.696  0.00  0.00    +0.088 C 
ATOM      4  N   UNL     1       4.905  -0.565  -0.417  0.00  0.00    -0.298 NA
ATOM      5  C   UNL     1       5.652   0.575   0.157  0.00  0.00    +0.085 C 
ATOM      6  C   UNL     1       4.920  -1.717   0.494  0.00  0.00    +0.105 C 
ENDROOT
BRANCH   3   7
ATOM      7  C   UNL     1       3.239  -0.240  -2.172  0.00  0.00    -0.012 A 
ATOM      8  C   UNL     1       2.849  -1.447  -2.719  0.00  0.00    +0.115 A 
ATOM      9  N   UNL     1       2.597  -1.553  -4.009  0.00  0.00    -0.263 NA
ATOM     10  C   UNL     1       2.706  -0.522  -4.824  0.00  0.00    +0.111 A 
ATOM     11  C   UNL     1       3.091   0.718  -4.348  0.00  0.00    +0.020 A 
ATOM     12  C   UNL     1       3.359   0.868  -2.996  0.00  0.00    +0.008 A 
ENDBRANCH   3   7
TORSDOF 1
ENDMDL
MODEL 5
REMARK VINA RESULT:     0.000      4.849      6.084
REMARK INTER + INTRA:          -0.256
REMARK INTER:                   0.000
REMARK INTRA:                  -0.256
REMARK UNBOUND:                -0.256
REMARK  Name = Nicotine.pdb
REMARK  2 active torsions:
REMARK  status: ('A' for Active; 'I' for Inactive)
REMARK    1  A    between atoms: C_3  and  C_6
REMARK    2  A    between atoms: N_4  and  C_12
REMARK                            x       y       z     vdW  Elec       q    Type
REMARK                         _______ _______ _______ _____ _____    ______ ____
ROOT
ATOM      1  C   UNL     1       1.940   1.747  -3.552  0.00  0.00    +0.017 C 
ATOM      2  C   UNL     1       2.804   1.436  -4.802  0.00  0.00    +0.025 C 
ATOM      3  C   UNL     1       3.761   0.335  -4.298  0.00  0.00    +0.088 C 
ATOM      4  N   UNL     1       3.824   0.450  -2.829  0.00  0.00    -0.298 NA
ATOM      5  C   UNL     1       2.973   1.584  -2.409  0.00  0.00    +0.085 C 
ATOM      6  C   UNL     1       3.396  -0.798  -2.184  0.00  0.00    +0.105 C 
ENDROOT
BRANCH   3   7
ATOM      7  C   UNL     1       5.132   0.537  -4.888  0.00  0.00    -0.012 A 
ATOM      8  C   UNL     1       6.026  -0.515  -4.957  0.00  0.00    +0.115 A 
ATOM      9  N   UNL     1       7.228  -0.347  -5.472  0.00  0.00    -0.263 NA
ATOM     10  C   UNL     1       7.625   0.820  -5.939  0.00  0.00    +0.111 A 
ATOM     11  C   UNL     1       6.786   1.919  -5.905  0.00  0.00    +0.020 A 
ATOM     12  C   UNL     1       5.512   1.778  -5.375  0.00  0.00    +0.008 A 
ENDBRANCH   3   7
TORSDOF 1
ENDMDL
MODEL 6
REMARK VINA RESULT:     0.000      4.331      6.243
REMARK INTER + INTRA:          -0.256
REMARK INTER:                   0.000
REMARK INTRA:                  -0.256
REMARK UNBOUND:                -0.256
REMARK  Name = Nicotine.pdb
REMARK  2 active torsions:
REMARK  status: ('A' for Active; 'I' for Inactive)
REMARK    1  A    between atoms: C_3  and  C_6
REMARK    2  A    between atoms: N_4  and  C_12
REMARK                            x       y       z     vdW  Elec       q    Type
REMARK                         _______ _______ _______ _____ _____    ______ ____
ROOT
ATOM      1  C   UNL     1      -1.377  -2.242  -3.619  0.00  0.00    +0.017 C 
ATOM      2  C   UNL     1      -0.617  -2.174  -2.268  0.00  0.00    +0.025 C 
ATOM      3  C   UNL     1      -1.624  -2.785  -1.272  0.00  0.00    +0.088 C 
ATOM      4  N   UNL     1      -2.965  -2.652  -1.869  0.00  0.00    -0.298 NA
ATOM      5  C   UNL     1      -2.834  -1.966  -3.172  0.00  0.00    +0.085 C 
ATOM      6  C   UNL     1      -3.606  -3.964  -2.026  0.00  0.00    +0.105 C 
ENDROOT
BRANCH   3   7
ATOM      7  C   UNL     1      -1.567  -2.040   0.037  0.00  0.00    -0.012 A 
ATOM      8  C   UNL     1      -2.021  -2.633   1.200  0.00  0.00    +0.115 A 
ATOM      9  N   UNL     1      -1.975  -1.988   2.349  0.00  0.00    -0.263 NA
ATOM     10  C   UNL     1      -1.499  -0.761   2.436  0.00  0.00    +0.111 A 
ATOM     11  C   UNL     1      -1.027  -0.104   1.315  0.00  0.00    +0.020 A 
ATOM     12  C   UNL     1      -1.055  -0.753   0.090  0.00  0.00    +0.008 A 
ENDBRANCH   3   7
TORSDOF 1
ENDMDL
MODEL 7
REMARK VINA RESULT:     0.000      4.412      6.083
REMARK INTER + INTRA:          -0.256
REMARK INTER:                   0.000
REMARK INTRA:                  -0.256
REMARK UNBOUND:                -0.256
REMARK  Name = Nicotine.pdb
REMARK  2 active torsions:
REMARK  status: ('A' for Active; 'I' for Inactive)
REMARK    1  A    between atoms: C_3  and  C_6
REMARK    2  A    between atoms: N_4  and  C_12
REMARK                            x       y       z     vdW  Elec       q    Type
REMARK                         _______ _______ _______ _____ _____    ______ ____
ROOT
ATOM      1  C   UNL     1      -0.809  -1.848  -4.400  0.00  0.00    +0.017 C 
ATOM      2  C   UNL     1      -0.108  -1.354  -3.107  0.00  0.00    +0.025 C 
ATOM      3  C   UNL     1      -1.206  -1.512  -2.034  0.00  0.00    +0.088 C 
ATOM      4  N   UNL     1      -2.503  -1.516  -2.735  0.00  0.00    -0.298 NA
ATOM      5  C   UNL     1      -2.257  -1.344  -4.182  0.00  0.00    +0.085 C 
ATOM      6  C   UNL     1      -3.241  -2.758  -2.470  0.00  0.00    +0.105 C 
ENDROOT
BRANCH   3   7
ATOM      7  C   UNL     1      -1.148  -0.358  -1.068  0.00  0.00    -0.012 A 
ATOM      8  C   UNL     1      -1.702  -0.474   0.194  0.00  0.00    +0.115 A 
ATOM      9  N   UNL     1      -1.655   0.532   1.046  0.00  0.00    -0.263 NA
ATOM     10  C   UNL     1      -1.085   1.679   0.734  0.00  0.00    +0.111 A 
ATOM     11  C   UNL     1      -0.510   1.868  -0.509  0.00  0.00    +0.020 A 
ATOM     12  C   UNL     1      -0.535   0.832  -1.429  0.00  0.00    +0.008 A 
ENDBRANCH   3   7
TORSDOF 1
ENDMDL
MODEL 8
REMARK VINA RESULT:     0.000      5.123      6.667
REMARK INTER + INTRA:          -0.256
REMARK INTER:                   0.000
REMARK INTRA:                  -0.256
REMARK UNBOUND:                -0.256
REMARK  Name = Nicotine.pdb
REMARK  2 active torsions:
REMARK  status: ('A' for Active; 'I' for Inactive)
REMARK    1  A    between atoms: C_3  and  C_6
REMARK    2  A    between atoms: N_4  and  C_12
REMARK                            x       y       z     vdW  Elec       q    Type
REMARK                         _______ _______ _______ _____ _____    ______ ____
ROOT
ATOM      1  C   UNL     1       3.832   3.913  -6.468  0.00  0.00    +0.017 C 
ATOM      2  C   UNL     1       3.908   3.960  -4.919  0.00  0.00    +0.025 C 
ATOM      3  C   UNL     1       4.962   2.882  -4.590  0.00  0.00    +0.088 C 
ATOM      4  N   UNL     1       5.015   1.958  -5.738  0.00  0.00    -0.298 NA
ATOM      5  C   UNL     1       4.027   2.401  -6.745  0.00  0.00    +0.085 C 
ATOM      6  C   UNL     1       6.366   1.908  -6.312  0.00  0.00    +0.105 C 
ENDROOT
BRANCH   3   7
ATOM      7  C   UNL     1       4.559   2.133  -3.346  0.00  0.00    -0.012 A 
ATOM      8  C   UNL     1       5.503   1.447  -2.607  0.00  0.00    +0.115 A 
ATOM      9  N   UNL     1       5.159   0.789  -1.516  0.00  0.00    -0.263 NA
ATOM     10  C   UNL     1       3.912   0.758  -1.091  0.00  0.00    +0.111 A 
ATOM     11  C   UNL     1       2.913   1.421  -1.778  0.00  0.00    +0.020 A 
ATOM     12  C   UNL     1       3.238   2.128  -2.926  0.00  0.00    +0.008 A 
ENDBRANCH   3   7
TORSDOF 1
ENDMDL
MODEL 9
REMARK VINA RESULT:     0.000      2.995      4.149
REMARK INTER + INTRA:          -0.256
REMARK INTER:                   0.000
REMARK INTRA:                  -0.256
REMARK UNBOUND:                -0.256
REMARK  Name = Nicotine.pdb
REMARK  2 active torsions:
REMARK  status: ('A' for Active; 'I' for Inactive)
REMARK    1  A    between atoms: C_3  and  C_6
REMARK    2  A    between atoms: N_4  and  C_12
REMARK                            x       y       z     vdW  Elec       q    Type
REMARK                         _______ _______ _______ _____ _____    ______ ____
ROOT
ATOM      1  C   UNL     1       4.166  -2.384  -3.854  0.00  0.00    +0.017 C 
ATOM      2  C   UNL     1       2.727  -2.723  -3.385  0.00  0.00    +0.025 C 
ATOM      3  C   UNL     1       2.090  -1.332  -3.182  0.00  0.00    +0.088 C 
ATOM      4  N   UNL     1       3.191  -0.372  -2.983  0.00  0.00    -0.298 NA
ATOM      5  C   UNL     1       4.472  -1.110  -3.027  0.00  0.00    +0.085 C 
ATOM      6  C   UNL     1       3.158   0.687  -3.999  0.00  0.00    +0.105 C 
ENDROOT
BRANCH   3   7
ATOM      7  C   UNL     1       1.197  -1.348  -1.970  0.00  0.00    -0.012 A 
ATOM      8  C   UNL     1       0.197  -0.404  -1.825  0.00  0.00    +0.115 A 
ATOM      9  N   UNL     1      -0.589  -0.412  -0.766  0.00  0.00    -0.263 NA
ATOM     10  C   UNL     1      -0.457  -1.310   0.189  0.00  0.00    +0.111 A 
ATOM     11  C   UNL     1       0.520  -2.286   0.113  0.00  0.00    +0.020 A 
ATOM     12  C   UNL     1       1.362  -2.313  -0.988  0.00  0.00    +0.008 A 
ENDBRANCH   3   7
TORSDOF 1
ENDMDL
MODEL 10
REMARK VINA RESULT:     0.000      3.110      5.194
REMARK INTER + INTRA:          -0.256
REMARK INTER:                   0.000
REMARK INTRA:                  -0.256
REMARK UNBOUND:                -0.256
REMARK  Name = Nicotine.pdb
REMARK  2 active torsions:
REMARK  status: ('A' for Active; 'I' for Inactive)
REMARK    1  A    between atoms: C_3  and  C_6
REMARK    2  A    between atoms: N_4  and  C_12
REMARK                            x       y       z     vdW  Elec       q    Type
REMARK                         _______ _______ _______ _____ _____    ______ ____
ROOT
ATOM      1  C   UNL     1       3.241   4.589   2.478  0.00  0.00    +0.017 C 
ATOM      2  C   UNL     1       4.086   3.295   2.333  0.00  0.00    +0.025 C 
ATOM      3  C   UNL     1       3.095   2.304   1.688  0.00  0.00    +0.088 C 
ATOM      4  N   UNL     1       1.735   2.787   1.990  0.00  0.00    -0.298 NA
ATOM      5  C   UNL     1       1.842   4.013   2.809  0.00  0.00    +0.085 C 
ATOM      6  C   UNL     1       0.981   3.042   0.756  0.00  0.00    +0.105 C 
ENDROOT
BRANCH   3   7
ATOM      7  C   UNL     1       3.293   0.929   2.272  0.00  0.00    -0.012 A 
ATOM      8  C   UNL     1       2.864  -0.191   1.584  0.00  0.00    +0.115 A 
ATOM      9  N   UNL     1       3.034  -1.398   2.088  0.00  0.00    -0.263 NA
ATOM     10  C   UNL     1       3.613  -1.586   3.257  0.00  0.00    +0.111 A 
ATOM     11  C   UNL     1       4.068  -0.514   4.002  0.00  0.00    +0.020 A 
ATOM     12  C   UNL     1       3.912   0.770   3.502  0.00  0.00    +0.008 A 
ENDBRANCH   3   7
TORSDOF 1
ENDMDL
