MODEL 1
REMARK VINA RESULT:     1.189      0.000      0.000
REMARK INTER + INTRA:           1.004
REMARK INTER:                   1.259
REMARK INTRA:                  -0.254
REMARK UNBOUND:                -0.254
REMARK  Name = Nicotine.pdb
REMARK  2 active torsions:
REMARK  status: ('A' for Active; 'I' for Inactive)
REMARK    1  A    between atoms: C_3  and  C_6
REMARK    2  A    between atoms: N_4  and  C_12
REMARK                            x       y       z     vdW  Elec       q    Type
REMARK                         _______ _______ _______ _____ _____    ______ ____
ROOT
ATOM      1  C   UNL     1      10.262  -6.097   2.586  0.00  0.00    +0.017 C 
ATOM      2  C   UNL     1      10.828  -4.652   2.575  0.00  0.00    +0.025 C 
ATOM      3  C   UNL     1      10.954  -4.317   4.076  0.00  0.00    +0.088 C 
ATOM      4  N   UNL     1      10.030  -5.207   4.802  0.00  0.00    -0.298 NA
ATOM      5  C   UNL     1       9.324  -6.056   3.818  0.00  0.00    +0.085 C 
ATOM      6  C   UNL     1      10.751  -6.027   5.784  0.00  0.00    +0.105 C 
ENDROOT
BRANCH   3   7
ATOM      7  C   UNL     1      10.574  -2.878   4.313  0.00  0.00    -0.012 A 
ATOM      8  C   UNL     1      10.873  -2.265   5.515  0.00  0.00    +0.115 A 
ATOM      9  N   UNL     1      10.545  -1.007   5.731  0.00  0.00    -0.263 NA
ATOM     10  C   UNL     1       9.923  -0.287   4.819  0.00  0.00    +0.111 A 
ATOM     11  C   UNL     1       9.591  -0.831   3.592  0.00  0.00    +0.020 A 
ATOM     12  C   UNL     1       9.925  -2.150   3.327  0.00  0.00    +0.008 A 
ENDBRANCH   3   7
TORSDOF 1
ENDMDL
