MODEL 1
REMARK VINA RESULT:    -3.820      0.000      0.000
REMARK INTER + INTRA:          -4.267
REMARK INTER:                  -4.044
REMARK INTRA:                  -0.224
REMARK UNBOUND:                -0.224
REMARK  Name = Nicotine.pdb
REMARK  2 active torsions:
REMARK  status: ('A' for Active; 'I' for Inactive)
REMARK    1  A    between atoms: C_3  and  C_6
REMARK    2  A    between atoms: N_4  and  C_12
REMARK                            x       y       z     vdW  Elec       q    Type
REMARK                         _______ _______ _______ _____ _____    ______ ____
ROOT
ATOM      1  C   UNL     1       6.063   7.025  -1.001  0.00  0.00    +0.017 C 
ATOM      2  C   UNL     1       6.401   6.576   0.445  0.00  0.00    +0.025 C 
ATOM      3  C   UNL     1       6.891   5.126   0.252  0.00  0.00    +0.088 C 
ATOM      4  N   UNL     1       6.334   4.642  -1.024  0.00  0.00    -0.298 NA
ATOM      5  C   UNL     1       5.506   5.716  -1.613  0.00  0.00    +0.085 C 
ATOM      6  C   UNL     1       7.403   4.236  -1.945  0.00  0.00    +0.105 C 
ENDROOT
BRANCH   3   7
ATOM      7  C   UNL     1       6.400   4.264   1.386  0.00  0.00    -0.012 A 
ATOM      8  C   UNL     1       5.653   3.130   1.130  0.00  0.00    +0.115 A 
ATOM      9  N   UNL     1       5.219   2.370   2.117  0.00  0.00    -0.263 NA
ATOM     10  C   UNL     1       5.477   2.657   3.377  0.00  0.00    +0.111 A 
ATOM     11  C   UNL     1       6.218   3.775   3.711  0.00  0.00    +0.020 A 
ATOM     12  C   UNL     1       6.696   4.595   2.700  0.00  0.00    +0.008 A 
ENDBRANCH   3   7
TORSDOF 1
ENDMDL
MODEL 2
REMARK VINA RESULT:    -3.803      1.875      3.831
REMARK INTER + INTRA:          -4.249
REMARK INTER:                  -4.013
REMARK INTRA:                  -0.237
REMARK UNBOUND:                -0.224
REMARK  Name = Nicotine.pdb
REMARK  2 active torsions:
REMARK  status: ('A' for Active; 'I' for Inactive)
REMARK    1  A    between atoms: C_3  and  C_6
REMARK    2  A    between atoms: N_4  and  C_12
REMARK                            x       y       z     vdW  Elec       q    Type
REMARK                         _______ _______ _______ _____ _____    ______ ____
ROOT
ATOM      1  C   UNL     1       8.722   6.606   2.725  0.00  0.00    +0.017 C 
ATOM      2  C   UNL     1       7.545   6.340   1.750  0.00  0.00    +0.025 C 
ATOM      3  C   UNL     1       6.830   5.132   2.391  0.00  0.00    +0.088 C 
ATOM      4  N   UNL     1       7.810   4.452   3.256  0.00  0.00    -0.298 NA
ATOM      5  C   UNL     1       9.100   5.168   3.159  0.00  0.00    +0.085 C 
ATOM      6  C   UNL     1       7.340   4.400   4.646  0.00  0.00    +0.105 C 
ENDROOT
BRANCH   3   7
ATOM      7  C   UNL     1       6.352   4.190   1.316  0.00  0.00    -0.012 A 
ATOM      8  C   UNL     1       5.730   3.002   1.654  0.00  0.00    +0.115 A 
ATOM      9  N   UNL     1       5.309   2.172   0.719  0.00  0.00    -0.263 NA
ATOM     10  C   UNL     1       5.462   2.437  -0.563  0.00  0.00    +0.111 A 
ATOM     11  C   UNL     1       6.074   3.606  -0.976  0.00  0.00    +0.020 A 
ATOM     12  C   UNL     1       6.525   4.505  -0.023  0.00  0.00    +0.008 A 
ENDBRANCH   3   7
TORSDOF 1
ENDMDL
MODEL 3
REMARK VINA RESULT:    -3.717      1.973      4.712
REMARK INTER + INTRA:          -4.158
REMARK INTER:                  -3.930
REMARK INTRA:                  -0.229
REMARK UNBOUND:                -0.224
REMARK  Name = Nicotine.pdb
REMARK  2 active torsions:
REMARK  status: ('A' for Active; 'I' for Inactive)
REMARK    1  A    between atoms: C_3  and  C_6
REMARK    2  A    between atoms: N_4  and  C_12
REMARK                            x       y       z     vdW  Elec       q    Type
REMARK                         _______ _______ _______ _____ _____    ______ ____
ROOT
ATOM      1  C   UNL     1       8.383   4.337   5.019  0.00  0.00    +0.017 C 
ATOM      2  C   UNL     1       7.554   4.833   3.805  0.00  0.00    +0.025 C 
ATOM      3  C   UNL     1       6.440   3.772   3.688  0.00  0.00    +0.088 C 
ATOM      4  N   UNL     1       6.929   2.550   4.352  0.00  0.00    -0.298 NA
ATOM      5  C   UNL     1       8.299   2.799   4.847  0.00  0.00    +0.085 C 
ATOM      6  C   UNL     1       6.036   2.151   5.447  0.00  0.00    +0.105 C 
ENDROOT
BRANCH   3   7
ATOM      7  C   UNL     1       6.151   3.488   2.237  0.00  0.00    -0.012 A 
ATOM      8  C   UNL     1       5.313   2.448   1.881  0.00  0.00    +0.115 A 
ATOM      9  N   UNL     1       5.055   2.194   0.613  0.00  0.00    -0.263 NA
ATOM     10  C   UNL     1       5.580   2.913  -0.359  0.00  0.00    +0.111 A 
ATOM     11  C   UNL     1       6.427   3.970  -0.080  0.00  0.00    +0.020 A 
ATOM     12  C   UNL     1       6.717   4.271   1.242  0.00  0.00    +0.008 A 
ENDBRANCH   3   7
TORSDOF 1
ENDMDL
MODEL 4
REMARK VINA RESULT:    -3.480      1.235      2.119
REMARK INTER + INTRA:          -3.907
REMARK INTER:                  -3.722
REMARK INTRA:                  -0.185
REMARK UNBOUND:                -0.224
REMARK  Name = Nicotine.pdb
REMARK  2 active torsions:
REMARK  status: ('A' for Active; 'I' for Inactive)
REMARK    1  A    between atoms: C_3  and  C_6
REMARK    2  A    between atoms: N_4  and  C_12
REMARK                            x       y       z     vdW  Elec       q    Type
REMARK                         _______ _______ _______ _____ _____    ______ ____
ROOT
ATOM      1  C   UNL     1       6.581   3.080  -2.007  0.00  0.00    +0.017 C 
ATOM      2  C   UNL     1       5.669   2.939  -0.760  0.00  0.00    +0.025 C 
ATOM      3  C   UNL     1       6.051   4.169   0.090  0.00  0.00    +0.088 C 
ATOM      4  N   UNL     1       7.398   4.592  -0.334  0.00  0.00    -0.298 NA
ATOM      5  C   UNL     1       7.873   3.668  -1.386  0.00  0.00    +0.085 C 
ATOM      6  C   UNL     1       7.386   5.979  -0.817  0.00  0.00    +0.105 C 
ENDROOT
BRANCH   3   7
ATOM      7  C   UNL     1       6.065   3.798   1.551  0.00  0.00    -0.012 A 
ATOM      8  C   UNL     1       5.378   2.685   1.996  0.00  0.00    +0.115 A 
ATOM      9  N   UNL     1       5.385   2.354   3.273  0.00  0.00    -0.263 NA
ATOM     10  C   UNL     1       6.042   3.063   4.169  0.00  0.00    +0.111 A 
ATOM     11  C   UNL     1       6.753   4.189   3.798  0.00  0.00    +0.020 A 
ATOM     12  C   UNL     1       6.772   4.566   2.464  0.00  0.00    +0.008 A 
ENDBRANCH   3   7
TORSDOF 1
ENDMDL
MODEL 5
REMARK VINA RESULT:    -3.363      1.462      4.605
REMARK INTER + INTRA:          -3.783
REMARK INTER:                  -3.572
REMARK INTRA:                  -0.211
REMARK UNBOUND:                -0.224
REMARK  Name = Nicotine.pdb
REMARK  2 active torsions:
REMARK  status: ('A' for Active; 'I' for Inactive)
REMARK    1  A    between atoms: C_3  and  C_6
REMARK    2  A    between atoms: N_4  and  C_12
REMARK                            x       y       z     vdW  Elec       q    Type
REMARK                         _______ _______ _______ _____ _____    ______ ____
ROOT
ATOM      1  C   UNL     1       5.796   2.695   3.521  0.00  0.00    +0.017 C 
ATOM      2  C   UNL     1       5.547   2.925   2.007  0.00  0.00    +0.025 C 
ATOM      3  C   UNL     1       6.804   3.703   1.563  0.00  0.00    +0.088 C 
ATOM      4  N   UNL     1       7.373   4.337   2.766  0.00  0.00    -0.298 NA
ATOM      5  C   UNL     1       6.514   4.008   3.923  0.00  0.00    +0.085 C 
ATOM      6  C   UNL     1       8.755   3.893   2.992  0.00  0.00    +0.105 C 
ENDROOT
BRANCH   3   7
ATOM      7  C   UNL     1       6.425   4.758   0.557  0.00  0.00    -0.012 A 
ATOM      8  C   UNL     1       6.487   6.098   0.892  0.00  0.00    +0.115 A 
ATOM      9  N   UNL     1       6.157   7.028   0.017  0.00  0.00    -0.263 NA
ATOM     10  C   UNL     1       5.758   6.722  -1.202  0.00  0.00    +0.111 A 
ATOM     11  C   UNL     1       5.672   5.404  -1.609  0.00  0.00    +0.020 A 
ATOM     12  C   UNL     1       6.016   4.399  -0.718  0.00  0.00    +0.008 A 
ENDBRANCH   3   7
TORSDOF 1
ENDMDL
MODEL 6
REMARK VINA RESULT:    -3.269      2.115      2.685
REMARK INTER + INTRA:          -3.684
REMARK INTER:                  -3.429
REMARK INTRA:                  -0.254
REMARK UNBOUND:                -0.224
REMARK  Name = Nicotine.pdb
REMARK  2 active torsions:
REMARK  status: ('A' for Active; 'I' for Inactive)
REMARK    1  A    between atoms: C_3  and  C_6
REMARK    2  A    between atoms: N_4  and  C_12
REMARK                            x       y       z     vdW  Elec       q    Type
REMARK                         _______ _______ _______ _____ _____    ______ ____
ROOT
ATOM      1  C   UNL     1       6.044   3.873  -0.986  0.00  0.00    +0.017 C 
ATOM      2  C   UNL     1       6.401   4.280   0.467  0.00  0.00    +0.025 C 
ATOM      3  C   UNL     1       7.280   3.106   0.951  0.00  0.00    +0.088 C 
ATOM      4  N   UNL     1       6.957   1.942   0.106  0.00  0.00    -0.298 NA
ATOM      5  C   UNL     1       5.905   2.335  -0.855  0.00  0.00    +0.085 C 
ATOM      6  C   UNL     1       8.151   1.449  -0.591  0.00  0.00    +0.105 C 
ENDROOT
BRANCH   3   7
ATOM      7  C   UNL     1       6.973   2.796   2.393  0.00  0.00    -0.012 A 
ATOM      8  C   UNL     1       7.960   2.308   3.228  0.00  0.00    +0.115 A 
ATOM      9  N   UNL     1       7.701   2.034   4.492  0.00  0.00    -0.263 NA
ATOM     10  C   UNL     1       6.500   2.213   5.007  0.00  0.00    +0.111 A 
ATOM     11  C   UNL     1       5.463   2.698   4.232  0.00  0.00    +0.020 A 
ATOM     12  C   UNL     1       5.700   3.002   2.901  0.00  0.00    +0.008 A 
ENDBRANCH   3   7
TORSDOF 1
ENDMDL
MODEL 7
REMARK VINA RESULT:    -3.210      1.749      4.289
REMARK INTER + INTRA:          -3.621
REMARK INTER:                  -3.383
REMARK INTRA:                  -0.238
REMARK UNBOUND:                -0.224
REMARK  Name = Nicotine.pdb
REMARK  2 active torsions:
REMARK  status: ('A' for Active; 'I' for Inactive)
REMARK    1  A    between atoms: C_3  and  C_6
REMARK    2  A    between atoms: N_4  and  C_12
REMARK                            x       y       z     vdW  Elec       q    Type
REMARK                         _______ _______ _______ _____ _____    ______ ____
ROOT
ATOM      1  C   UNL     1       7.182   3.990   4.552  0.00  0.00    +0.017 C 
ATOM      2  C   UNL     1       6.096   3.969   3.444  0.00  0.00    +0.025 C 
ATOM      3  C   UNL     1       6.746   3.112   2.337  0.00  0.00    +0.088 C 
ATOM      4  N   UNL     1       8.204   3.161   2.547  0.00  0.00    -0.298 NA
ATOM      5  C   UNL     1       8.484   4.026   3.713  0.00  0.00    +0.085 C 
ATOM      6  C   UNL     1       8.754   1.814   2.746  0.00  0.00    +0.105 C 
ENDROOT
BRANCH   3   7
ATOM      7  C   UNL     1       6.403   3.678   0.983  0.00  0.00    -0.012 A 
ATOM      8  C   UNL     1       5.956   2.848  -0.028  0.00  0.00    +0.115 A 
ATOM      9  N   UNL     1       5.653   3.335  -1.215  0.00  0.00    -0.263 NA
ATOM     10  C   UNL     1       5.763   4.620  -1.486  0.00  0.00    +0.111 A 
ATOM     11  C   UNL     1       6.203   5.511  -0.525  0.00  0.00    +0.020 A 
ATOM     12  C   UNL     1       6.525   5.037   0.737  0.00  0.00    +0.008 A 
ENDBRANCH   3   7
TORSDOF 1
ENDMDL
MODEL 8
REMARK VINA RESULT:    -3.173      1.486      4.227
REMARK INTER + INTRA:          -3.582
REMARK INTER:                  -3.366
REMARK INTRA:                  -0.216
REMARK UNBOUND:                -0.224
REMARK  Name = Nicotine.pdb
REMARK  2 active torsions:
REMARK  status: ('A' for Active; 'I' for Inactive)
REMARK    1  A    between atoms: C_3  and  C_6
REMARK    2  A    between atoms: N_4  and  C_12
REMARK                            x       y       z     vdW  Elec       q    Type
REMARK                         _______ _______ _______ _____ _____    ______ ____
ROOT
ATOM      1  C   UNL     1       7.897   5.070   3.656  0.00  0.00    +0.017 C 
ATOM      2  C   UNL     1       7.238   5.429   2.299  0.00  0.00    +0.025 C 
ATOM      3  C   UNL     1       6.240   4.272   2.081  0.00  0.00    +0.088 C 
ATOM      4  N   UNL     1       6.709   3.132   2.890  0.00  0.00    -0.298 NA
ATOM      5  C   UNL     1       7.960   3.524   3.574  0.00  0.00    +0.085 C 
ATOM      6  C   UNL     1       5.686   2.716   3.858  0.00  0.00    +0.105 C 
ENDROOT
BRANCH   3   7
ATOM      7  C   UNL     1       6.209   3.889   0.624  0.00  0.00    -0.012 A 
ATOM      8  C   UNL     1       6.079   2.565   0.251  0.00  0.00    +0.115 A 
ATOM      9  N   UNL     1       6.051   2.222  -1.022  0.00  0.00    -0.263 NA
ATOM     10  C   UNL     1       6.145   3.119  -1.984  0.00  0.00    +0.111 A 
ATOM     11  C   UNL     1       6.277   4.463  -1.688  0.00  0.00    +0.020 A 
ATOM     12  C   UNL     1       6.305   4.862  -0.360  0.00  0.00    +0.008 A 
ENDBRANCH   3   7
TORSDOF 1
ENDMDL
MODEL 9
REMARK VINA RESULT:    -3.037      2.316      5.412
REMARK INTER + INTRA:          -3.439
REMARK INTER:                  -3.220
REMARK INTRA:                  -0.218
REMARK UNBOUND:                -0.224
REMARK  Name = Nicotine.pdb
REMARK  2 active torsions:
REMARK  status: ('A' for Active; 'I' for Inactive)
REMARK    1  A    between atoms: C_3  and  C_6
REMARK    2  A    between atoms: N_4  and  C_12
REMARK                            x       y       z     vdW  Elec       q    Type
REMARK                         _______ _______ _______ _____ _____    ______ ____
ROOT
ATOM      1  C   UNL     1       6.357   2.192   6.070  0.00  0.00    +0.017 C 
ATOM      2  C   UNL     1       6.020   2.223   4.557  0.00  0.00    +0.025 C 
ATOM      3  C   UNL     1       7.332   2.725   3.918  0.00  0.00    +0.088 C 
ATOM      4  N   UNL     1       8.081   3.442   4.966  0.00  0.00    -0.298 NA
ATOM      5  C   UNL     1       7.283   3.427   6.210  0.00  0.00    +0.085 C 
ATOM      6  C   UNL     1       9.401   2.834   5.180  0.00  0.00    +0.105 C 
ENDROOT
BRANCH   3   7
ATOM      7  C   UNL     1       7.023   3.659   2.777  0.00  0.00    -0.012 A 
ATOM      8  C   UNL     1       7.384   4.991   2.847  0.00  0.00    +0.115 A 
ATOM      9  N   UNL     1       7.117   5.816   1.853  0.00  0.00    -0.263 NA
ATOM     10  C   UNL     1       6.501   5.408   0.761  0.00  0.00    +0.111 A 
ATOM     11  C   UNL     1       6.110   4.089   0.619  0.00  0.00    +0.020 A 
ATOM     12  C   UNL     1       6.378   3.192   1.642  0.00  0.00    +0.008 A 
ENDBRANCH   3   7
TORSDOF 1
ENDMDL
MODEL 10
REMARK VINA RESULT:    -3.005      3.588      5.206
REMARK INTER + INTRA:          -3.404
REMARK INTER:                  -3.174
REMARK INTRA:                  -0.230
REMARK UNBOUND:                -0.224
REMARK  Name = Nicotine.pdb
REMARK  2 active torsions:
REMARK  status: ('A' for Active; 'I' for Inactive)
REMARK    1  A    between atoms: C_3  and  C_6
REMARK    2  A    between atoms: N_4  and  C_12
REMARK                            x       y       z     vdW  Elec       q    Type
REMARK                         _______ _______ _______ _____ _____    ______ ____
ROOT
ATOM      1  C   UNL     1       8.168   1.667  -5.630  0.00  0.00    +0.017 C 
ATOM      2  C   UNL     1       8.323   1.695  -4.086  0.00  0.00    +0.025 C 
ATOM      3  C   UNL     1       7.011   1.046  -3.595  0.00  0.00    +0.088 C 
ATOM      4  N   UNL     1       6.019   1.193  -4.675  0.00  0.00    -0.298 NA
ATOM      5  C   UNL     1       6.649   1.921  -5.797  0.00  0.00    +0.085 C 
ATOM      6  C   UNL     1       5.519  -0.117  -5.113  0.00  0.00    +0.105 C 
ENDROOT
BRANCH   3   7
ATOM      7  C   UNL     1       6.526   1.749  -2.353  0.00  0.00    -0.012 A 
ATOM      8  C   UNL     1       6.220   1.026  -1.215  0.00  0.00    +0.115 A 
ATOM      9  N   UNL     1       5.795   1.633  -0.125  0.00  0.00    -0.263 NA
ATOM     10  C   UNL     1       5.645   2.942  -0.074  0.00  0.00    +0.111 A 
ATOM     11  C   UNL     1       5.931   3.731  -1.173  0.00  0.00    +0.020 A 
ATOM     12  C   UNL     1       6.385   3.128  -2.335  0.00  0.00    +0.008 A 
ENDBRANCH   3   7
TORSDOF 1
ENDMDL
