MODEL 1
REMARK VINA RESULT:    -1.891      0.000      0.000
REMARK INTER + INTRA:          -2.225
REMARK INTER:                  -2.002
REMARK INTRA:                  -0.223
REMARK UNBOUND:                -0.223
REMARK  Name = Nicotine.pdb
REMARK  2 active torsions:
REMARK  status: ('A' for Active; 'I' for Inactive)
REMARK    1  A    between atoms: C_3  and  C_6
REMARK    2  A    between atoms: N_4  and  C_12
REMARK                            x       y       z     vdW  Elec       q    Type
REMARK                         _______ _______ _______ _____ _____    ______ ____
ROOT
ATOM      1  C   UNL     1       6.102   6.769  -4.940  0.00  0.00    +0.017 C 
ATOM      2  C   UNL     1       7.470   7.026  -4.255  0.00  0.00    +0.025 C 
ATOM      3  C   UNL     1       8.371   5.925  -4.855  0.00  0.00    +0.088 C 
ATOM      4  N   UNL     1       7.485   4.850  -5.335  0.00  0.00    -0.298 NA
ATOM      5  C   UNL     1       6.086   5.223  -5.037  0.00  0.00    +0.085 C 
ATOM      6  C   UNL     1       7.673   4.615  -6.773  0.00  0.00    +0.105 C 
ENDROOT
BRANCH   3   7
ATOM      7  C   UNL     1       9.301   5.391  -3.797  0.00  0.00    -0.012 A 
ATOM      8  C   UNL     1       9.365   4.034  -3.543  0.00  0.00    +0.115 A 
ATOM      9  N   UNL     1      10.176   3.558  -2.619  0.00  0.00    -0.263 NA
ATOM     10  C   UNL     1      10.954   4.349  -1.905  0.00  0.00    +0.111 A 
ATOM     11  C   UNL     1      10.945   5.717  -2.104  0.00  0.00    +0.020 A 
ATOM     12  C   UNL     1      10.109   6.253  -3.071  0.00  0.00    +0.008 A 
ENDBRANCH   3   7
TORSDOF 1
ENDMDL
MODEL 2
REMARK VINA RESULT:    -1.552      9.836     11.290
REMARK INTER + INTRA:          -1.866
REMARK INTER:                  -1.650
REMARK INTRA:                  -0.216
REMARK UNBOUND:                -0.223
REMARK  Name = Nicotine.pdb
REMARK  2 active torsions:
REMARK  status: ('A' for Active; 'I' for Inactive)
REMARK    1  A    between atoms: C_3  and  C_6
REMARK    2  A    between atoms: N_4  and  C_12
REMARK                            x       y       z     vdW  Elec       q    Type
REMARK                         _______ _______ _______ _____ _____    ______ ____
ROOT
ATOM      1  C   UNL     1      10.556  -3.372   2.056  0.00  0.00    +0.017 C 
ATOM      2  C   UNL     1       9.218  -4.156   2.088  0.00  0.00    +0.025 C 
ATOM      3  C   UNL     1       9.092  -4.687   0.643  0.00  0.00    +0.088 C 
ATOM      4  N   UNL     1       9.923  -3.822  -0.213  0.00  0.00    -0.298 NA
ATOM      5  C   UNL     1      10.533  -2.771   0.629  0.00  0.00    +0.085 C 
ATOM      6  C   UNL     1      10.954  -4.603  -0.909  0.00  0.00    +0.105 C 
ENDROOT
BRANCH   3   7
ATOM      7  C   UNL     1       7.655  -4.624   0.197  0.00  0.00    -0.012 A 
ATOM      8  C   UNL     1       7.341  -4.598  -1.149  0.00  0.00    +0.115 A 
ATOM      9  N   UNL     1       6.086  -4.543  -1.548  0.00  0.00    -0.263 NA
ATOM     10  C   UNL     1       5.086  -4.510  -0.689  0.00  0.00    +0.111 A 
ATOM     11  C   UNL     1       5.322  -4.533   0.673  0.00  0.00    +0.020 A 
ATOM     12  C   UNL     1       6.630  -4.596   1.130  0.00  0.00    +0.008 A 
ENDBRANCH   3   7
TORSDOF 1
ENDMDL
MODEL 3
REMARK VINA RESULT:    -0.474     10.262     10.889
REMARK INTER + INTRA:          -0.725
REMARK INTER:                  -0.532
REMARK INTRA:                  -0.193
REMARK UNBOUND:                -0.223
REMARK  Name = Nicotine.pdb
REMARK  2 active torsions:
REMARK  status: ('A' for Active; 'I' for Inactive)
REMARK    1  A    between atoms: C_3  and  C_6
REMARK    2  A    between atoms: N_4  and  C_12
REMARK                            x       y       z     vdW  Elec       q    Type
REMARK                         _______ _______ _______ _____ _____    ______ ____
ROOT
ATOM      1  C   UNL     1       4.995  -3.788  -1.571  0.00  0.00    +0.017 C 
ATOM      2  C   UNL     1       6.478  -4.241  -1.634  0.00  0.00    +0.025 C 
ATOM      3  C   UNL     1       6.666  -4.998  -0.302  0.00  0.00    +0.088 C 
ATOM      4  N   UNL     1       5.627  -4.515   0.625  0.00  0.00    -0.298 NA
ATOM      5  C   UNL     1       4.825  -3.481  -0.062  0.00  0.00    +0.085 C 
ATOM      6  C   UNL     1       4.777  -5.621   1.086  0.00  0.00    +0.105 C 
ENDROOT
BRANCH   3   7
ATOM      7  C   UNL     1       8.033  -4.710   0.262  0.00  0.00    -0.012 A 
ATOM      8  C   UNL     1       9.131  -4.630  -0.573  0.00  0.00    +0.115 A 
ATOM      9  N   UNL     1      10.331  -4.379  -0.087  0.00  0.00    -0.263 NA
ATOM     10  C   UNL     1      10.532  -4.195   1.203  0.00  0.00    +0.111 A 
ATOM     11  C   UNL     1       9.481  -4.259   2.099  0.00  0.00    +0.020 A 
ATOM     12  C   UNL     1       8.204  -4.516   1.624  0.00  0.00    +0.008 A 
ENDBRANCH   3   7
TORSDOF 1
ENDMDL
MODEL 4
REMARK VINA RESULT:    -0.218     10.500     11.080
REMARK INTER + INTRA:          -0.454
REMARK INTER:                  -0.234
REMARK INTRA:                  -0.221
REMARK UNBOUND:                -0.223
REMARK  Name = Nicotine.pdb
REMARK  2 active torsions:
REMARK  status: ('A' for Active; 'I' for Inactive)
REMARK    1  A    between atoms: C_3  and  C_6
REMARK    2  A    between atoms: N_4  and  C_12
REMARK                            x       y       z     vdW  Elec       q    Type
REMARK                         _______ _______ _______ _____ _____    ______ ____
ROOT
ATOM      1  C   UNL     1       4.307  -4.981   1.004  0.00  0.00    +0.017 C 
ATOM      2  C   UNL     1       5.589  -4.262   1.500  0.00  0.00    +0.025 C 
ATOM      3  C   UNL     1       6.410  -4.082   0.205  0.00  0.00    +0.088 C 
ATOM      4  N   UNL     1       5.929  -5.088  -0.759  0.00  0.00    -0.298 NA
ATOM      5  C   UNL     1       4.872  -5.894  -0.113  0.00  0.00    +0.085 C 
ATOM      6  C   UNL     1       5.430  -4.448  -1.983  0.00  0.00    +0.105 C 
ENDROOT
BRANCH   3   7
ATOM      7  C   UNL     1       7.873  -4.301   0.491  0.00  0.00    -0.012 A 
ATOM      8  C   UNL     1       8.762  -4.519  -0.545  0.00  0.00    +0.115 A 
ATOM      9  N   UNL     1      10.044  -4.712  -0.303  0.00  0.00    -0.263 NA
ATOM     10  C   UNL     1      10.527  -4.705   0.923  0.00  0.00    +0.111 A 
ATOM     11  C   UNL     1       9.698  -4.492   2.009  0.00  0.00    +0.020 A 
ATOM     12  C   UNL     1       8.345  -4.281   1.794  0.00  0.00    +0.008 A 
ENDBRANCH   3   7
TORSDOF 1
ENDMDL
