MODEL 1
REMARK VINA RESULT:    -3.093      0.000      0.000
REMARK INTER + INTRA:          -3.511
REMARK INTER:                  -3.274
REMARK INTRA:                  -0.237
REMARK UNBOUND:                -0.237
REMARK  Name = Nicotine.pdb
REMARK  2 active torsions:
REMARK  status: ('A' for Active; 'I' for Inactive)
REMARK    1  A    between atoms: C_3  and  C_6
REMARK    2  A    between atoms: N_4  and  C_12
REMARK                            x       y       z     vdW  Elec       q    Type
REMARK                         _______ _______ _______ _____ _____    ______ ____
ROOT
ATOM      1  C   UNL     1      -4.989  -3.441  -4.105  0.00  0.00    +0.017 C 
ATOM      2  C   UNL     1      -3.470  -3.639  -3.864  0.00  0.00    +0.025 C 
ATOM      3  C   UNL     1      -2.861  -3.383  -5.259  0.00  0.00    +0.088 C 
ATOM      4  N   UNL     1      -3.928  -3.608  -6.250  0.00  0.00    -0.298 NA
ATOM      5  C   UNL     1      -5.157  -4.014  -5.535  0.00  0.00    +0.085 C 
ATOM      6  C   UNL     1      -4.162  -2.402  -7.056  0.00  0.00    +0.105 C 
ENDROOT
BRANCH   3   7
ATOM      7  C   UNL     1      -1.722  -4.339  -5.504  0.00  0.00    -0.012 A 
ATOM      8  C   UNL     1      -1.052  -4.332  -6.713  0.00  0.00    +0.115 A 
ATOM      9  N   UNL     1      -0.054  -5.165  -6.936  0.00  0.00    -0.263 NA
ATOM     10  C   UNL     1       0.342  -6.031  -6.025  0.00  0.00    +0.111 A 
ATOM     11  C   UNL     1      -0.280  -6.096  -4.792  0.00  0.00    +0.020 A 
ATOM     12  C   UNL     1      -1.329  -5.232  -4.519  0.00  0.00    +0.008 A 
ENDBRANCH   3   7
TORSDOF 1
ENDMDL
MODEL 2
REMARK VINA RESULT:    -2.670      2.112      4.424
REMARK INTER + INTRA:          -3.063
REMARK INTER:                  -2.876
REMARK INTRA:                  -0.187
REMARK UNBOUND:                -0.237
REMARK  Name = Nicotine.pdb
REMARK  2 active torsions:
REMARK  status: ('A' for Active; 'I' for Inactive)
REMARK    1  A    between atoms: C_3  and  C_6
REMARK    2  A    between atoms: N_4  and  C_12
REMARK                            x       y       z     vdW  Elec       q    Type
REMARK                         _______ _______ _______ _____ _____    ______ ____
ROOT
ATOM      1  C   UNL     1      -1.321  -5.556  -6.306  0.00  0.00    +0.017 C 
ATOM      2  C   UNL     1      -2.445  -6.097  -5.383  0.00  0.00    +0.025 C 
ATOM      3  C   UNL     1      -3.484  -4.956  -5.396  0.00  0.00    +0.088 C 
ATOM      4  N   UNL     1      -2.773  -3.722  -5.776  0.00  0.00    -0.298 NA
ATOM      5  C   UNL     1      -1.344  -4.043  -5.973  0.00  0.00    +0.085 C 
ATOM      6  C   UNL     1      -3.353  -3.132  -6.990  0.00  0.00    +0.105 C 
ENDROOT
BRANCH   3   7
ATOM      7  C   UNL     1      -4.090  -4.798  -4.025  0.00  0.00    -0.012 A 
ATOM      8  C   UNL     1      -4.211  -5.889  -3.185  0.00  0.00    +0.115 A 
ATOM      9  N   UNL     1      -4.740  -5.760  -1.984  0.00  0.00    -0.263 NA
ATOM     10  C   UNL     1      -5.171  -4.597  -1.538  0.00  0.00    +0.111 A 
ATOM     11  C   UNL     1      -5.082  -3.461  -2.321  0.00  0.00    +0.020 A 
ATOM     12  C   UNL     1      -4.527  -3.557  -3.588  0.00  0.00    +0.008 A 
ENDBRANCH   3   7
TORSDOF 1
ENDMDL
MODEL 3
REMARK VINA RESULT:    -2.435      1.263      1.830
REMARK INTER + INTRA:          -2.814
REMARK INTER:                  -2.617
REMARK INTRA:                  -0.197
REMARK UNBOUND:                -0.237
REMARK  Name = Nicotine.pdb
REMARK  2 active torsions:
REMARK  status: ('A' for Active; 'I' for Inactive)
REMARK    1  A    between atoms: C_3  and  C_6
REMARK    2  A    between atoms: N_4  and  C_12
REMARK                            x       y       z     vdW  Elec       q    Type
REMARK                         _______ _______ _______ _____ _____    ______ ____
ROOT
ATOM      1  C   UNL     1      -4.249  -3.516  -3.379  0.00  0.00    +0.017 C 
ATOM      2  C   UNL     1      -2.869  -3.287  -4.051  0.00  0.00    +0.025 C 
ATOM      3  C   UNL     1      -3.005  -4.040  -5.391  0.00  0.00    +0.088 C 
ATOM      4  N   UNL     1      -4.074  -5.042  -5.222  0.00  0.00    -0.298 NA
ATOM      5  C   UNL     1      -4.583  -4.958  -3.836  0.00  0.00    +0.085 C 
ATOM      6  C   UNL     1      -5.153  -4.830  -6.194  0.00  0.00    +0.105 C 
ENDROOT
BRANCH   3   7
ATOM      7  C   UNL     1      -1.707  -4.726  -5.728  0.00  0.00    -0.012 A 
ATOM      8  C   UNL     1      -1.055  -5.493  -4.781  0.00  0.00    +0.115 A 
ATOM      9  N   UNL     1       0.082  -6.097  -5.068  0.00  0.00    -0.263 NA
ATOM     10  C   UNL     1       0.640  -5.994  -6.258  0.00  0.00    +0.111 A 
ATOM     11  C   UNL     1       0.046  -5.244  -7.256  0.00  0.00    +0.020 A 
ATOM     12  C   UNL     1      -1.153  -4.599  -6.993  0.00  0.00    +0.008 A 
ENDBRANCH   3   7
TORSDOF 1
ENDMDL
MODEL 4
REMARK VINA RESULT:    -1.457      1.336      2.155
REMARK INTER + INTRA:          -1.779
REMARK INTER:                  -1.583
REMARK INTRA:                  -0.196
REMARK UNBOUND:                -0.237
REMARK  Name = Nicotine.pdb
REMARK  2 active torsions:
REMARK  status: ('A' for Active; 'I' for Inactive)
REMARK    1  A    between atoms: C_3  and  C_6
REMARK    2  A    between atoms: N_4  and  C_12
REMARK                            x       y       z     vdW  Elec       q    Type
REMARK                         _______ _______ _______ _____ _____    ______ ____
ROOT
ATOM      1  C   UNL     1      -4.268  -2.857  -6.203  0.00  0.00    +0.017 C 
ATOM      2  C   UNL     1      -3.093  -3.261  -7.132  0.00  0.00    +0.025 C 
ATOM      3  C   UNL     1      -2.713  -4.667  -6.620  0.00  0.00    +0.088 C 
ATOM      4  N   UNL     1      -3.198  -4.772  -5.232  0.00  0.00    -0.298 NA
ATOM      5  C   UNL     1      -3.835  -3.492  -4.857  0.00  0.00    +0.085 C 
ATOM      6  C   UNL     1      -4.138  -5.891  -5.086  0.00  0.00    +0.105 C 
ENDROOT
BRANCH   3   7
ATOM      7  C   UNL     1      -1.217  -4.838  -6.656  0.00  0.00    -0.012 A 
ATOM      8  C   UNL     1      -0.413  -3.855  -7.204  0.00  0.00    +0.115 A 
ATOM      9  N   UNL     1       0.897  -3.997  -7.239  0.00  0.00    -0.263 NA
ATOM     10  C   UNL     1       1.491  -5.072  -6.759  0.00  0.00    +0.111 A 
ATOM     11  C   UNL     1       0.753  -6.097  -6.196  0.00  0.00    +0.020 A 
ATOM     12  C   UNL     1      -0.627  -5.980  -6.136  0.00  0.00    +0.008 A 
ENDBRANCH   3   7
TORSDOF 1
ENDMDL
MODEL 5
REMARK VINA RESULT:    -0.479      1.910      4.423
REMARK INTER + INTRA:          -0.744
REMARK INTER:                  -0.527
REMARK INTRA:                  -0.217
REMARK UNBOUND:                -0.237
REMARK  Name = Nicotine.pdb
REMARK  2 active torsions:
REMARK  status: ('A' for Active; 'I' for Inactive)
REMARK    1  A    between atoms: C_3  and  C_6
REMARK    2  A    between atoms: N_4  and  C_12
REMARK                            x       y       z     vdW  Elec       q    Type
REMARK                         _______ _______ _______ _____ _____    ______ ____
ROOT
ATOM      1  C   UNL     1      -1.350  -6.097  -7.224  0.00  0.00    +0.017 C 
ATOM      2  C   UNL     1      -2.738  -5.581  -6.760  0.00  0.00    +0.025 C 
ATOM      3  C   UNL     1      -2.377  -4.537  -5.682  0.00  0.00    +0.088 C 
ATOM      4  N   UNL     1      -1.026  -4.863  -5.192  0.00  0.00    -0.298 NA
ATOM      5  C   UNL     1      -0.548  -6.071  -5.899  0.00  0.00    +0.085 C 
ATOM      6  C   UNL     1      -0.106  -3.736  -5.394  0.00  0.00    +0.105 C 
ENDROOT
BRANCH   3   7
ATOM      7  C   UNL     1      -3.366  -4.609  -4.547  0.00  0.00    -0.012 A 
ATOM      8  C   UNL     1      -4.118  -3.502  -4.204  0.00  0.00    +0.115 A 
ATOM      9  N   UNL     1      -4.986  -3.556  -3.213  0.00  0.00    -0.263 NA
ATOM     10  C   UNL     1      -5.171  -4.659  -2.514  0.00  0.00    +0.111 A 
ATOM     11  C   UNL     1      -4.455  -5.806  -2.799  0.00  0.00    +0.020 A 
ATOM     12  C   UNL     1      -3.538  -5.788  -3.838  0.00  0.00    +0.008 A 
ENDBRANCH   3   7
TORSDOF 1
ENDMDL
