MODEL 1
REMARK VINA RESULT:    -1.968      0.000      0.000
REMARK INTER + INTRA:          -2.338
REMARK INTER:                  -2.083
REMARK INTRA:                  -0.255
REMARK UNBOUND:                -0.255
REMARK  Name = Nicotine.pdb
REMARK  2 active torsions:
REMARK  status: ('A' for Active; 'I' for Inactive)
REMARK    1  A    between atoms: C_3  and  C_6
REMARK    2  A    between atoms: N_4  and  C_12
REMARK                            x       y       z     vdW  Elec       q    Type
REMARK                         _______ _______ _______ _____ _____    ______ ____
ROOT
ATOM      1  C   UNL     1      10.918  -5.376   0.727  0.00  0.00    +0.017 C 
ATOM      2  C   UNL     1       9.456  -5.894   0.715  0.00  0.00    +0.025 C 
ATOM      3  C   UNL     1       9.170  -6.093  -0.789  0.00  0.00    +0.088 C 
ATOM      4  N   UNL     1      10.117  -5.240  -1.530  0.00  0.00    -0.298 NA
ATOM      5  C   UNL     1      10.953  -4.507  -0.555  0.00  0.00    +0.085 C 
ATOM      6  C   UNL     1      10.946  -6.040  -2.440  0.00  0.00    +0.105 C 
ENDROOT
BRANCH   3   7
ATOM      7  C   UNL     1       7.755  -5.682  -1.100  0.00  0.00    -0.012 A 
ATOM      8  C   UNL     1       7.167  -6.051  -2.296  0.00  0.00    +0.115 A 
ATOM      9  N   UNL     1       5.928  -5.696  -2.576  0.00  0.00    -0.263 NA
ATOM     10  C   UNL     1       5.206  -4.981  -1.737  0.00  0.00    +0.111 A 
ATOM     11  C   UNL     1       5.726  -4.576  -0.522  0.00  0.00    +0.020 A 
ATOM     12  C   UNL     1       7.023  -4.935  -0.190  0.00  0.00    +0.008 A 
ENDBRANCH   3   7
TORSDOF 1
ENDMDL
