MODEL 1
REMARK VINA RESULT:    26.962      0.000      0.000
REMARK INTER + INTRA:          28.366
REMARK INTER:                  28.538
REMARK INTRA:                  -0.172
REMARK UNBOUND:                -0.172
REMARK  Name = Nicotine.pdb
REMARK  2 active torsions:
REMARK  status: ('A' for Active; 'I' for Inactive)
REMARK    1  A    between atoms: C_3  and  C_6
REMARK    2  A    between atoms: N_4  and  C_12
REMARK                            x       y       z     vdW  Elec       q    Type
REMARK                         _______ _______ _______ _____ _____    ______ ____
ROOT
ATOM      1  C   UNL     1       9.326  -5.724  -2.729  0.00  0.00    +0.017 C 
ATOM      2  C   UNL     1       8.114  -5.064  -3.438  0.00  0.00    +0.025 C 
ATOM      3  C   UNL     1       7.672  -3.980  -2.432  0.00  0.00    +0.088 C 
ATOM      4  N   UNL     1       8.177  -4.382  -1.107  0.00  0.00    -0.298 NA
ATOM      5  C   UNL     1       8.886  -5.672  -1.244  0.00  0.00    +0.085 C 
ATOM      6  C   UNL     1       9.060  -3.352  -0.545  0.00  0.00    +0.105 C 
ENDROOT
BRANCH   3   7
ATOM      7  C   UNL     1       6.168  -3.891  -2.403  0.00  0.00    -0.012 A 
ATOM      8  C   UNL     1       5.414  -4.945  -1.925  0.00  0.00    +0.115 A 
ATOM      9  N   UNL     1       4.097  -4.875  -1.896  0.00  0.00    -0.263 NA
ATOM     10  C   UNL     1       3.451  -3.807  -2.318  0.00  0.00    +0.111 A 
ATOM     11  C   UNL     1       4.138  -2.712  -2.809  0.00  0.00    +0.020 A 
ATOM     12  C   UNL     1       5.523  -2.747  -2.850  0.00  0.00    +0.008 A 
ENDBRANCH   3   7
TORSDOF 1
ENDMDL
MODEL 2
REMARK VINA RESULT:    27.394      2.092      3.976
REMARK INTER + INTRA:          28.823
REMARK INTER:                  29.009
REMARK INTRA:                  -0.187
REMARK UNBOUND:                -0.172
REMARK  Name = Nicotine.pdb
REMARK  2 active torsions:
REMARK  status: ('A' for Active; 'I' for Inactive)
REMARK    1  A    between atoms: C_3  and  C_6
REMARK    2  A    between atoms: N_4  and  C_12
REMARK                            x       y       z     vdW  Elec       q    Type
REMARK                         _______ _______ _______ _____ _____    ______ ____
ROOT
ATOM      1  C   UNL     1       8.591  -5.393  -3.040  0.00  0.00    +0.017 C 
ATOM      2  C   UNL     1       9.020  -4.717  -1.711  0.00  0.00    +0.025 C 
ATOM      3  C   UNL     1       7.694  -4.137  -1.173  0.00  0.00    +0.088 C 
ATOM      4  N   UNL     1       6.784  -3.987  -2.323  0.00  0.00    -0.298 NA
ATOM      5  C   UNL     1       7.494  -4.422  -3.545  0.00  0.00    +0.085 C 
ATOM      6  C   UNL     1       5.552  -4.762  -2.125  0.00  0.00    +0.105 C 
ENDROOT
BRANCH   3   7
ATOM      7  C   UNL     1       7.943  -2.795  -0.536  0.00  0.00    -0.012 A 
ATOM      8  C   UNL     1       9.149  -2.528   0.083  0.00  0.00    +0.115 A 
ATOM      9  N   UNL     1       9.375  -1.355   0.644  0.00  0.00    -0.263 NA
ATOM     10  C   UNL     1       8.469  -0.398   0.637  0.00  0.00    +0.111 A 
ATOM     11  C   UNL     1       7.239  -0.592   0.037  0.00  0.00    +0.020 A 
ATOM     12  C   UNL     1       6.967  -1.810  -0.567  0.00  0.00    +0.008 A 
ENDBRANCH   3   7
TORSDOF 1
ENDMDL
MODEL 3
REMARK VINA RESULT:    29.121      1.571      4.345
REMARK INTER + INTRA:          30.651
REMARK INTER:                  30.864
REMARK INTRA:                  -0.213
REMARK UNBOUND:                -0.172
REMARK  Name = Nicotine.pdb
REMARK  2 active torsions:
REMARK  status: ('A' for Active; 'I' for Inactive)
REMARK    1  A    between atoms: C_3  and  C_6
REMARK    2  A    between atoms: N_4  and  C_12
REMARK                            x       y       z     vdW  Elec       q    Type
REMARK                         _______ _______ _______ _____ _____    ______ ____
ROOT
ATOM      1  C   UNL     1       3.941  -3.479  -2.365  0.00  0.00    +0.017 C 
ATOM      2  C   UNL     1       4.931  -4.623  -2.018  0.00  0.00    +0.025 C 
ATOM      3  C   UNL     1       6.248  -3.869  -1.736  0.00  0.00    +0.088 C 
ATOM      4  N   UNL     1       6.158  -2.564  -2.415  0.00  0.00    -0.298 NA
ATOM      5  C   UNL     1       4.861  -2.488  -3.121  0.00  0.00    +0.085 C 
ATOM      6  C   UNL     1       6.301  -1.460  -1.457  0.00  0.00    +0.105 C 
ENDROOT
BRANCH   3   7
ATOM      7  C   UNL     1       7.414  -4.653  -2.281  0.00  0.00    -0.012 A 
ATOM      8  C   UNL     1       7.273  -5.407  -3.430  0.00  0.00    +0.115 A 
ATOM      9  N   UNL     1       8.288  -6.096  -3.913  0.00  0.00    -0.263 NA
ATOM     10  C   UNL     1       9.469  -6.094  -3.327  0.00  0.00    +0.111 A 
ATOM     11  C   UNL     1       9.685  -5.362  -2.174  0.00  0.00    +0.020 A 
ATOM     12  C   UNL     1       8.643  -4.621  -1.640  0.00  0.00    +0.008 A 
ENDBRANCH   3   7
TORSDOF 1
ENDMDL
MODEL 4
REMARK VINA RESULT:    29.306      1.177      1.905
REMARK INTER + INTRA:          30.847
REMARK INTER:                  31.043
REMARK INTRA:                  -0.196
REMARK UNBOUND:                -0.172
REMARK  Name = Nicotine.pdb
REMARK  2 active torsions:
REMARK  status: ('A' for Active; 'I' for Inactive)
REMARK    1  A    between atoms: C_3  and  C_6
REMARK    2  A    between atoms: N_4  and  C_12
REMARK                            x       y       z     vdW  Elec       q    Type
REMARK                         _______ _______ _______ _____ _____    ______ ____
ROOT
ATOM      1  C   UNL     1       9.497  -4.497  -1.269  0.00  0.00    +0.017 C 
ATOM      2  C   UNL     1       8.012  -4.487  -0.822  0.00  0.00    +0.025 C 
ATOM      3  C   UNL     1       7.274  -5.046  -2.057  0.00  0.00    +0.088 C 
ATOM      4  N   UNL     1       8.147  -4.827  -3.224  0.00  0.00    -0.298 NA
ATOM      5  C   UNL     1       9.374  -4.138  -2.771  0.00  0.00    +0.085 C 
ATOM      6  C   UNL     1       8.470  -6.097  -3.887  0.00  0.00    +0.105 C 
ENDROOT
BRANCH   3   7
ATOM      7  C   UNL     1       5.969  -4.318  -2.248  0.00  0.00    -0.012 A 
ATOM      8  C   UNL     1       4.772  -4.934  -1.936  0.00  0.00    +0.115 A 
ATOM      9  N   UNL     1       3.625  -4.304  -2.100  0.00  0.00    -0.263 NA
ATOM     10  C   UNL     1       3.572  -3.071  -2.563  0.00  0.00    +0.111 A 
ATOM     11  C   UNL     1       4.729  -2.390  -2.896  0.00  0.00    +0.020 A 
ATOM     12  C   UNL     1       5.953  -3.019  -2.732  0.00  0.00    +0.008 A 
ENDBRANCH   3   7
TORSDOF 1
ENDMDL
MODEL 5
REMARK VINA RESULT:    29.779      1.963      4.162
REMARK INTER + INTRA:          31.348
REMARK INTER:                  31.564
REMARK INTRA:                  -0.216
REMARK UNBOUND:                -0.172
REMARK  Name = Nicotine.pdb
REMARK  2 active torsions:
REMARK  status: ('A' for Active; 'I' for Inactive)
REMARK    1  A    between atoms: C_3  and  C_6
REMARK    2  A    between atoms: N_4  and  C_12
REMARK                            x       y       z     vdW  Elec       q    Type
REMARK                         _______ _______ _______ _____ _____    ______ ____
ROOT
ATOM      1  C   UNL     1       4.870  -4.445  -2.383  0.00  0.00    +0.017 C 
ATOM      2  C   UNL     1       5.364  -3.027  -1.992  0.00  0.00    +0.025 C 
ATOM      3  C   UNL     1       6.899  -3.157  -2.082  0.00  0.00    +0.088 C 
ATOM      4  N   UNL     1       7.225  -4.588  -1.949  0.00  0.00    -0.298 NA
ATOM      5  C   UNL     1       5.968  -5.342  -1.757  0.00  0.00    +0.085 C 
ATOM      6  C   UNL     1       7.956  -5.074  -3.127  0.00  0.00    +0.105 C 
ENDROOT
BRANCH   3   7
ATOM      7  C   UNL     1       7.546  -2.377  -0.967  0.00  0.00    -0.012 A 
ATOM      8  C   UNL     1       8.698  -2.844  -0.364  0.00  0.00    +0.115 A 
ATOM      9  N   UNL     1       9.271  -2.167   0.613  0.00  0.00    -0.263 NA
ATOM     10  C   UNL     1       8.772  -1.028   1.052  0.00  0.00    +0.111 A 
ATOM     11  C   UNL     1       7.622  -0.499   0.497  0.00  0.00    +0.020 A 
ATOM     12  C   UNL     1       6.996  -1.179  -0.536  0.00  0.00    +0.008 A 
ENDBRANCH   3   7
TORSDOF 1
ENDMDL
