MODEL 1
REMARK VINA RESULT:    -2.225      0.000      0.000
REMARK INTER + INTRA:          -2.547
REMARK INTER:                  -2.355
REMARK INTRA:                  -0.192
REMARK UNBOUND:                -0.192
REMARK  Name = Nicotine.pdb
REMARK  2 active torsions:
REMARK  status: ('A' for Active; 'I' for Inactive)
REMARK    1  A    between atoms: C_3  and  C_6
REMARK    2  A    between atoms: N_4  and  C_12
REMARK                            x       y       z     vdW  Elec       q    Type
REMARK                         _______ _______ _______ _____ _____    ______ ____
ROOT
ATOM      1  C   UNL     1      10.865   3.444   6.179  0.00  0.00    +0.017 C 
ATOM      2  C   UNL     1       9.341   3.219   5.994  0.00  0.00    +0.025 C 
ATOM      3  C   UNL     1       8.929   4.380   5.065  0.00  0.00    +0.088 C 
ATOM      4  N   UNL     1       9.948   5.435   5.205  0.00  0.00    -0.298 NA
ATOM      5  C   UNL     1      10.953   4.991   6.194  0.00  0.00    +0.085 C 
ATOM      6  C   UNL     1      10.577   5.735   3.913  0.00  0.00    +0.105 C 
ENDROOT
BRANCH   3   7
ATOM      7  C   UNL     1       7.579   4.910   5.474  0.00  0.00    -0.012 A 
ATOM      8  C   UNL     1       6.583   4.044   5.884  0.00  0.00    +0.115 A 
ATOM      9  N   UNL     1       5.399   4.500   6.244  0.00  0.00    -0.263 NA
ATOM     10  C   UNL     1       5.118   5.788   6.229  0.00  0.00    +0.111 A 
ATOM     11  C   UNL     1       6.065   6.714   5.831  0.00  0.00    +0.020 A 
ATOM     12  C   UNL     1       7.323   6.272   5.451  0.00  0.00    +0.008 A 
ENDBRANCH   3   7
TORSDOF 1
ENDMDL
MODEL 2
REMARK VINA RESULT:    -1.802      2.367      4.696
REMARK INTER + INTRA:          -2.100
REMARK INTER:                  -1.893
REMARK INTRA:                  -0.207
REMARK UNBOUND:                -0.192
REMARK  Name = Nicotine.pdb
REMARK  2 active torsions:
REMARK  status: ('A' for Active; 'I' for Inactive)
REMARK    1  A    between atoms: C_3  and  C_6
REMARK    2  A    between atoms: N_4  and  C_12
REMARK                            x       y       z     vdW  Elec       q    Type
REMARK                         _______ _______ _______ _____ _____    ______ ____
ROOT
ATOM      1  C   UNL     1       9.980   3.411   5.994  0.00  0.00    +0.017 C 
ATOM      2  C   UNL     1      10.953   3.638   4.806  0.00  0.00    +0.025 C 
ATOM      3  C   UNL     1      10.832   5.154   4.544  0.00  0.00    +0.088 C 
ATOM      4  N   UNL     1       9.539   5.592   5.100  0.00  0.00    -0.298 NA
ATOM      5  C   UNL     1       8.847   4.415   5.667  0.00  0.00    +0.085 C 
ATOM      6  C   UNL     1       9.727   6.634   6.117  0.00  0.00    +0.105 C 
ENDROOT
BRANCH   3   7
ATOM      7  C   UNL     1      10.873   5.423   3.063  0.00  0.00    -0.012 A 
ATOM      8  C   UNL     1      10.918   4.375   2.163  0.00  0.00    +0.115 A 
ATOM      9  N   UNL     1      10.954   4.602   0.864  0.00  0.00    -0.263 NA
ATOM     10  C   UNL     1      10.949   5.826   0.374  0.00  0.00    +0.111 A 
ATOM     11  C   UNL     1      10.905   6.924   1.213  0.00  0.00    +0.020 A 
ATOM     12  C   UNL     1      10.861   6.725   2.584  0.00  0.00    +0.008 A 
ENDBRANCH   3   7
TORSDOF 1
ENDMDL
MODEL 3
REMARK VINA RESULT:     0.044      2.677      4.777
REMARK INTER + INTRA:          -0.145
REMARK INTER:                   0.107
REMARK INTRA:                  -0.252
REMARK UNBOUND:                -0.192
REMARK  Name = Nicotine.pdb
REMARK  2 active torsions:
REMARK  status: ('A' for Active; 'I' for Inactive)
REMARK    1  A    between atoms: C_3  and  C_6
REMARK    2  A    between atoms: N_4  and  C_12
REMARK                            x       y       z     vdW  Elec       q    Type
REMARK                         _______ _______ _______ _____ _____    ______ ____
ROOT
ATOM      1  C   UNL     1       9.462   6.149   6.218  0.00  0.00    +0.017 C 
ATOM      2  C   UNL     1       8.977   6.247   4.747  0.00  0.00    +0.025 C 
ATOM      3  C   UNL     1       9.661   5.037   4.075  0.00  0.00    +0.088 C 
ATOM      4  N   UNL     1      10.826   4.679   4.903  0.00  0.00    -0.298 NA
ATOM      5  C   UNL     1      10.908   5.624   6.036  0.00  0.00    +0.085 C 
ATOM      6  C   UNL     1      10.729   3.293   5.378  0.00  0.00    +0.105 C 
ENDROOT
BRANCH   3   7
ATOM      7  C   UNL     1      10.111   5.409   2.686  0.00  0.00    -0.012 A 
ATOM      8  C   UNL     1      10.558   4.436   1.812  0.00  0.00    +0.115 A 
ATOM      9  N   UNL     1      10.954   4.753   0.595  0.00  0.00    -0.263 NA
ATOM     10  C   UNL     1      10.940   5.999   0.164  0.00  0.00    +0.111 A 
ATOM     11  C   UNL     1      10.505   7.025   0.981  0.00  0.00    +0.020 A 
ATOM     12  C   UNL     1      10.077   6.730   2.266  0.00  0.00    +0.008 A 
ENDBRANCH   3   7
TORSDOF 1
ENDMDL
MODEL 4
REMARK VINA RESULT:     0.263      2.373      3.913
REMARK INTER + INTRA:           0.087
REMARK INTER:                   0.297
REMARK INTRA:                  -0.211
REMARK UNBOUND:                -0.192
REMARK  Name = Nicotine.pdb
REMARK  2 active torsions:
REMARK  status: ('A' for Active; 'I' for Inactive)
REMARK    1  A    between atoms: C_3  and  C_6
REMARK    2  A    between atoms: N_4  and  C_12
REMARK                            x       y       z     vdW  Elec       q    Type
REMARK                         _______ _______ _______ _____ _____    ______ ____
ROOT
ATOM      1  C   UNL     1       9.441   6.653   3.240  0.00  0.00    +0.017 C 
ATOM      2  C   UNL     1       8.698   5.453   3.884  0.00  0.00    +0.025 C 
ATOM      3  C   UNL     1       9.391   5.310   5.255  0.00  0.00    +0.088 C 
ATOM      4  N   UNL     1      10.718   5.942   5.142  0.00  0.00    -0.298 NA
ATOM      5  C   UNL     1      10.885   6.443   3.761  0.00  0.00    +0.085 C 
ATOM      6  C   UNL     1      10.870   7.028   6.119  0.00  0.00    +0.105 C 
ENDROOT
BRANCH   3   7
ATOM      7  C   UNL     1       9.544   3.852   5.603  0.00  0.00    -0.012 A 
ATOM      8  C   UNL     1       8.437   3.091   5.926  0.00  0.00    +0.115 A 
ATOM      9  N   UNL     1       8.562   1.814   6.232  0.00  0.00    -0.263 NA
ATOM     10  C   UNL     1       9.737   1.216   6.243  0.00  0.00    +0.111 A 
ATOM     11  C   UNL     1      10.889   1.913   5.931  0.00  0.00    +0.020 A 
ATOM     12  C   UNL     1      10.796   3.256   5.599  0.00  0.00    +0.008 A 
ENDBRANCH   3   7
TORSDOF 1
ENDMDL
MODEL 5
REMARK VINA RESULT:     0.292     13.157     14.289
REMARK INTER + INTRA:           0.117
REMARK INTER:                   0.318
REMARK INTRA:                  -0.201
REMARK UNBOUND:                -0.192
REMARK  Name = Nicotine.pdb
REMARK  2 active torsions:
REMARK  status: ('A' for Active; 'I' for Inactive)
REMARK    1  A    between atoms: C_3  and  C_6
REMARK    2  A    between atoms: N_4  and  C_12
REMARK                            x       y       z     vdW  Elec       q    Type
REMARK                         _______ _______ _______ _____ _____    ______ ____
ROOT
ATOM      1  C   UNL     1      10.286  -6.096  -0.501  0.00  0.00    +0.017 C 
ATOM      2  C   UNL     1      10.947  -6.027  -1.903  0.00  0.00    +0.025 C 
ATOM      3  C   UNL     1      10.160  -4.899  -2.603  0.00  0.00    +0.088 C 
ATOM      4  N   UNL     1       8.863  -4.777  -1.912  0.00  0.00    -0.298 NA
ATOM      5  C   UNL     1       8.805  -5.792  -0.838  0.00  0.00    +0.085 C 
ATOM      6  C   UNL     1       8.680  -3.425  -1.370  0.00  0.00    +0.105 C 
ENDROOT
BRANCH   3   7
ATOM      7  C   UNL     1       9.940  -5.250  -4.051  0.00  0.00    -0.012 A 
ATOM      8  C   UNL     1      10.942  -5.045  -4.981  0.00  0.00    +0.115 A 
ATOM      9  N   UNL     1      10.758  -5.350  -6.250  0.00  0.00    -0.263 NA
ATOM     10  C   UNL     1       9.620  -5.858  -6.683  0.00  0.00    +0.111 A 
ATOM     11  C   UNL     1       8.573  -6.091  -5.812  0.00  0.00    +0.020 A 
ATOM     12  C   UNL     1       8.732  -5.788  -4.468  0.00  0.00    +0.008 A 
ENDBRANCH   3   7
TORSDOF 1
ENDMDL
MODEL 6
REMARK VINA RESULT:     0.572      1.394      4.472
REMARK INTER + INTRA:           0.413
REMARK INTER:                   0.629
REMARK INTRA:                  -0.216
REMARK UNBOUND:                -0.192
REMARK  Name = Nicotine.pdb
REMARK  2 active torsions:
REMARK  status: ('A' for Active; 'I' for Inactive)
REMARK    1  A    between atoms: C_3  and  C_6
REMARK    2  A    between atoms: N_4  and  C_12
REMARK                            x       y       z     vdW  Elec       q    Type
REMARK                         _______ _______ _______ _____ _____    ______ ____
ROOT
ATOM      1  C   UNL     1       5.658   3.852   6.243  0.00  0.00    +0.017 C 
ATOM      2  C   UNL     1       7.196   3.657   6.169  0.00  0.00    +0.025 C 
ATOM      3  C   UNL     1       7.718   5.093   5.953  0.00  0.00    +0.088 C 
ATOM      4  N   UNL     1       6.609   5.881   5.385  0.00  0.00    -0.298 NA
ATOM      5  C   UNL     1       5.438   4.993   5.218  0.00  0.00    +0.085 C 
ATOM      6  C   UNL     1       6.283   7.027   6.244  0.00  0.00    +0.105 C 
ENDROOT
BRANCH   3   7
ATOM      7  C   UNL     1       8.880   5.077   4.994  0.00  0.00    -0.012 A 
ATOM      8  C   UNL     1       9.095   6.141   4.138  0.00  0.00    +0.115 A 
ATOM      9  N   UNL     1      10.110   6.135   3.296  0.00  0.00    -0.263 NA
ATOM     10  C   UNL     1      10.954   5.124   3.235  0.00  0.00    +0.111 A 
ATOM     11  C   UNL     1      10.803   4.025   4.060  0.00  0.00    +0.020 A 
ATOM     12  C   UNL     1       9.750   3.998   4.962  0.00  0.00    +0.008 A 
ENDBRANCH   3   7
TORSDOF 1
ENDMDL
