MODEL 1
REMARK VINA RESULT:    -0.183      0.000      0.000
REMARK INTER + INTRA:          -0.418
REMARK INTER:                  -0.194
REMARK INTRA:                  -0.224
REMARK UNBOUND:                -0.224
REMARK  Name = Nicotine.pdb
REMARK  2 active torsions:
REMARK  status: ('A' for Active; 'I' for Inactive)
REMARK    1  A    between atoms: C_3  and  C_6
REMARK    2  A    between atoms: N_4  and  C_12
REMARK                            x       y       z     vdW  Elec       q    Type
REMARK                         _______ _______ _______ _____ _____    ______ ____
ROOT
ATOM      1  C   UNL     1       8.155  -0.016   4.620  0.00  0.00    +0.017 C 
ATOM      2  C   UNL     1       7.852  -1.375   5.303  0.00  0.00    +0.025 C 
ATOM      3  C   UNL     1       9.184  -1.716   6.004  0.00  0.00    +0.088 C 
ATOM      4  N   UNL     1      10.247  -0.963   5.313  0.00  0.00    -0.298 NA
ATOM      5  C   UNL     1       9.637  -0.197   4.206  0.00  0.00    +0.085 C 
ATOM      6  C   UNL     1      10.953  -0.074   6.244  0.00  0.00    +0.105 C 
ENDROOT
BRANCH   3   7
ATOM      7  C   UNL     1       9.453  -3.195   5.903  0.00  0.00    -0.012 A 
ATOM      8  C   UNL     1      10.700  -3.702   6.216  0.00  0.00    +0.115 A 
ATOM      9  N   UNL     1      10.944  -4.995   6.130  0.00  0.00    -0.263 NA
ATOM     10  C   UNL     1      10.017  -5.851   5.747  0.00  0.00    +0.111 A 
ATOM     11  C   UNL     1       8.746  -5.418   5.419  0.00  0.00    +0.020 A 
ATOM     12  C   UNL     1       8.451  -4.066   5.502  0.00  0.00    +0.008 A 
ENDBRANCH   3   7
TORSDOF 1
ENDMDL
