MODEL 1
REMARK VINA RESULT:    14.194      0.000      0.000
REMARK INTER + INTRA:          14.805
REMARK INTER:                  15.024
REMARK INTRA:                  -0.219
REMARK UNBOUND:                -0.219
REMARK  Name = Nicotine.pdb
REMARK  2 active torsions:
REMARK  status: ('A' for Active; 'I' for Inactive)
REMARK    1  A    between atoms: C_3  and  C_6
REMARK    2  A    between atoms: N_4  and  C_12
REMARK                            x       y       z     vdW  Elec       q    Type
REMARK                         _______ _______ _______ _____ _____    ______ ____
ROOT
ATOM      1  C   UNL     1      10.933   1.245  -4.869  0.00  0.00    +0.017 C 
ATOM      2  C   UNL     1       9.915   0.326  -5.593  0.00  0.00    +0.025 C 
ATOM      3  C   UNL     1       9.345   1.242  -6.697  0.00  0.00    +0.088 C 
ATOM      4  N   UNL     1       9.566   2.634  -6.267  0.00  0.00    -0.298 NA
ATOM      5  C   UNL     1      10.221   2.620  -4.942  0.00  0.00    +0.085 C 
ATOM      6  C   UNL     1      10.378   3.366  -7.248  0.00  0.00    +0.105 C 
ENDROOT
BRANCH   3   7
ATOM      7  C   UNL     1       7.870   0.984  -6.866  0.00  0.00    -0.012 A 
ATOM      8  C   UNL     1       6.983   2.040  -6.970  0.00  0.00    +0.115 A 
ATOM      9  N   UNL     1       5.691   1.823  -7.118  0.00  0.00    -0.263 NA
ATOM     10  C   UNL     1       5.194   0.603  -7.172  0.00  0.00    +0.111 A 
ATOM     11  C   UNL     1       6.020  -0.502  -7.075  0.00  0.00    +0.020 A 
ATOM     12  C   UNL     1       7.385  -0.313  -6.924  0.00  0.00    +0.008 A 
ENDBRANCH   3   7
TORSDOF 1
ENDMDL
MODEL 2
REMARK VINA RESULT:    15.525      1.056      1.540
REMARK INTER + INTRA:          16.214
REMARK INTER:                  16.428
REMARK INTRA:                  -0.214
REMARK UNBOUND:                -0.219
REMARK  Name = Nicotine.pdb
REMARK  2 active torsions:
REMARK  status: ('A' for Active; 'I' for Inactive)
REMARK    1  A    between atoms: C_3  and  C_6
REMARK    2  A    between atoms: N_4  and  C_12
REMARK                            x       y       z     vdW  Elec       q    Type
REMARK                         _______ _______ _______ _____ _____    ______ ____
ROOT
ATOM      1  C   UNL     1      10.776   2.291  -4.207  0.00  0.00    +0.017 C 
ATOM      2  C   UNL     1      10.001   1.085  -4.802  0.00  0.00    +0.025 C 
ATOM      3  C   UNL     1       9.645   1.568  -6.224  0.00  0.00    +0.088 C 
ATOM      4  N   UNL     1       9.684   3.042  -6.207  0.00  0.00    -0.298 NA
ATOM      5  C   UNL     1      10.023   3.489  -4.839  0.00  0.00    +0.085 C 
ATOM      6  C   UNL     1      10.654   3.554  -7.184  0.00  0.00    +0.105 C 
ENDROOT
BRANCH   3   7
ATOM      7  C   UNL     1       8.263   1.095  -6.594  0.00  0.00    -0.012 A 
ATOM      8  C   UNL     1       7.975  -0.256  -6.638  0.00  0.00    +0.115 A 
ATOM      9  N   UNL     1       6.769  -0.678  -6.962  0.00  0.00    -0.263 NA
ATOM     10  C   UNL     1       5.796   0.162  -7.254  0.00  0.00    +0.111 A 
ATOM     11  C   UNL     1       6.008   1.527  -7.231  0.00  0.00    +0.020 A 
ATOM     12  C   UNL     1       7.263   2.009  -6.890  0.00  0.00    +0.008 A 
ENDBRANCH   3   7
TORSDOF 1
ENDMDL
MODEL 3
REMARK VINA RESULT:    15.927      1.488      2.114
REMARK INTER + INTRA:          16.639
REMARK INTER:                  16.858
REMARK INTRA:                  -0.219
REMARK UNBOUND:                -0.219
REMARK  Name = Nicotine.pdb
REMARK  2 active torsions:
REMARK  status: ('A' for Active; 'I' for Inactive)
REMARK    1  A    between atoms: C_3  and  C_6
REMARK    2  A    between atoms: N_4  and  C_12
REMARK                            x       y       z     vdW  Elec       q    Type
REMARK                         _______ _______ _______ _____ _____    ______ ____
ROOT
ATOM      1  C   UNL     1      10.945   2.231  -6.755  0.00  0.00    +0.017 C 
ATOM      2  C   UNL     1       9.481   2.121  -7.256  0.00  0.00    +0.025 C 
ATOM      3  C   UNL     1       8.664   2.130  -5.946  0.00  0.00    +0.088 C 
ATOM      4  N   UNL     1       9.568   1.698  -4.865  0.00  0.00    -0.298 NA
ATOM      5  C   UNL     1      10.892   1.399  -5.449  0.00  0.00    +0.085 C 
ATOM      6  C   UNL     1       9.671   2.726  -3.822  0.00  0.00    +0.105 C 
ENDROOT
BRANCH   3   7
ATOM      7  C   UNL     1       7.504   1.175  -6.059  0.00  0.00    -0.012 A 
ATOM      8  C   UNL     1       7.217   0.299  -5.029  0.00  0.00    +0.115 A 
ATOM      9  N   UNL     1       6.203  -0.539  -5.120  0.00  0.00    -0.263 NA
ATOM     10  C   UNL     1       5.428  -0.577  -6.186  0.00  0.00    +0.111 A 
ATOM     11  C   UNL     1       5.654   0.269  -7.255  0.00  0.00    +0.020 A 
ATOM     12  C   UNL     1       6.707   1.168  -7.194  0.00  0.00    +0.008 A 
ENDBRANCH   3   7
TORSDOF 1
ENDMDL
MODEL 4
REMARK VINA RESULT:    16.440      1.253      2.094
REMARK INTER + INTRA:          17.182
REMARK INTER:                  17.436
REMARK INTRA:                  -0.255
REMARK UNBOUND:                -0.219
REMARK  Name = Nicotine.pdb
REMARK  2 active torsions:
REMARK  status: ('A' for Active; 'I' for Inactive)
REMARK    1  A    between atoms: C_3  and  C_6
REMARK    2  A    between atoms: N_4  and  C_12
REMARK                            x       y       z     vdW  Elec       q    Type
REMARK                         _______ _______ _______ _____ _____    ______ ____
ROOT
ATOM      1  C   UNL     1      10.715   2.655  -5.425  0.00  0.00    +0.017 C 
ATOM      2  C   UNL     1       9.271   2.246  -5.032  0.00  0.00    +0.025 C 
ATOM      3  C   UNL     1       9.072   0.911  -5.779  0.00  0.00    +0.088 C 
ATOM      4  N   UNL     1      10.032   0.889  -6.898  0.00  0.00    -0.298 NA
ATOM      5  C   UNL     1      10.793   2.157  -6.890  0.00  0.00    +0.085 C 
ATOM      6  C   UNL     1      10.932  -0.267  -6.798  0.00  0.00    +0.105 C 
ENDROOT
BRANCH   3   7
ATOM      7  C   UNL     1       7.664   0.824  -6.308  0.00  0.00    -0.012 A 
ATOM      8  C   UNL     1       7.045  -0.404  -6.449  0.00  0.00    +0.115 A 
ATOM      9  N   UNL     1       5.812  -0.489  -6.911  0.00  0.00    -0.263 NA
ATOM     10  C   UNL     1       5.126   0.583  -7.255  0.00  0.00    +0.111 A 
ATOM     11  C   UNL     1       5.679   1.845  -7.141  0.00  0.00    +0.020 A 
ATOM     12  C   UNL     1       6.971   1.974  -6.654  0.00  0.00    +0.008 A 
ENDBRANCH   3   7
TORSDOF 1
ENDMDL
MODEL 5
REMARK VINA RESULT:    17.163      1.491      1.980
REMARK INTER + INTRA:          17.947
REMARK INTER:                  18.133
REMARK INTRA:                  -0.187
REMARK UNBOUND:                -0.219
REMARK  Name = Nicotine.pdb
REMARK  2 active torsions:
REMARK  status: ('A' for Active; 'I' for Inactive)
REMARK    1  A    between atoms: C_3  and  C_6
REMARK    2  A    between atoms: N_4  and  C_12
REMARK                            x       y       z     vdW  Elec       q    Type
REMARK                         _______ _______ _______ _____ _____    ______ ____
ROOT
ATOM      1  C   UNL     1      10.954   2.430  -6.645  0.00  0.00    +0.017 C 
ATOM      2  C   UNL     1       9.528   2.219  -7.219  0.00  0.00    +0.025 C 
ATOM      3  C   UNL     1       8.623   2.440  -5.989  0.00  0.00    +0.088 C 
ATOM      4  N   UNL     1       9.449   2.209  -4.790  0.00  0.00    -0.298 NA
ATOM      5  C   UNL     1      10.811   1.831  -5.223  0.00  0.00    +0.085 C 
ATOM      6  C   UNL     1       9.480   3.401  -3.933  0.00  0.00    +0.105 C 
ENDROOT
BRANCH   3   7
ATOM      7  C   UNL     1       7.473   1.467  -6.017  0.00  0.00    -0.012 A 
ATOM      8  C   UNL     1       6.972   1.011  -7.221  0.00  0.00    +0.115 A 
ATOM      9  N   UNL     1       5.966   0.158  -7.255  0.00  0.00    -0.263 NA
ATOM     10  C   UNL     1       5.401  -0.290  -6.151  0.00  0.00    +0.111 A 
ATOM     11  C   UNL     1       5.849   0.121  -4.909  0.00  0.00    +0.020 A 
ATOM     12  C   UNL     1       6.908   1.012  -4.835  0.00  0.00    +0.008 A 
ENDBRANCH   3   7
TORSDOF 1
ENDMDL
