MODEL 1
REMARK VINA RESULT:    -5.008      0.000      0.000
REMARK INTER + INTRA:          -5.536
REMARK INTER:                  -5.300
REMARK INTRA:                  -0.235
REMARK UNBOUND:                -0.235
REMARK  Name = Nicotine.pdb
REMARK  2 active torsions:
REMARK  status: ('A' for Active; 'I' for Inactive)
REMARK    1  A    between atoms: C_3  and  C_6
REMARK    2  A    between atoms: N_4  and  C_12
REMARK                            x       y       z     vdW  Elec       q    Type
REMARK                         _______ _______ _______ _____ _____    ______ ____
ROOT
ATOM      1  C   UNL     1      -3.669   6.817  -4.377  0.00  0.00    +0.017 C 
ATOM      2  C   UNL     1      -3.324   6.968  -2.872  0.00  0.00    +0.025 C 
ATOM      3  C   UNL     1      -1.783   6.884  -2.859  0.00  0.00    +0.088 C 
ATOM      4  N   UNL     1      -1.373   6.185  -4.090  0.00  0.00    -0.298 NA
ATOM      5  C   UNL     1      -2.588   5.813  -4.847  0.00  0.00    +0.085 C 
ATOM      6  C   UNL     1      -0.483   7.025  -4.902  0.00  0.00    +0.105 C 
ENDROOT
BRANCH   3   7
ATOM      7  C   UNL     1      -1.322   6.110  -1.651  0.00  0.00    -0.012 A 
ATOM      8  C   UNL     1      -0.330   6.617  -0.833  0.00  0.00    +0.115 A 
ATOM      9  N   UNL     1       0.079   5.946   0.226  0.00  0.00    -0.263 NA
ATOM     10  C   UNL     1      -0.435   4.776   0.547  0.00  0.00    +0.111 A 
ATOM     11  C   UNL     1      -1.432   4.206  -0.223  0.00  0.00    +0.020 A 
ATOM     12  C   UNL     1      -1.892   4.884  -1.342  0.00  0.00    +0.008 A 
ENDBRANCH   3   7
TORSDOF 1
ENDMDL
MODEL 2
REMARK VINA RESULT:    -4.269      1.526      4.492
REMARK INTER + INTRA:          -4.754
REMARK INTER:                  -4.558
REMARK INTRA:                  -0.196
REMARK UNBOUND:                -0.235
REMARK  Name = Nicotine.pdb
REMARK  2 active torsions:
REMARK  status: ('A' for Active; 'I' for Inactive)
REMARK    1  A    between atoms: C_3  and  C_6
REMARK    2  A    between atoms: N_4  and  C_12
REMARK                            x       y       z     vdW  Elec       q    Type
REMARK                         _______ _______ _______ _____ _____    ______ ____
ROOT
ATOM      1  C   UNL     1      -1.005   5.863  -0.365  0.00  0.00    +0.017 C 
ATOM      2  C   UNL     1      -0.605   6.577  -1.683  0.00  0.00    +0.025 C 
ATOM      3  C   UNL     1      -1.950   6.708  -2.429  0.00  0.00    +0.088 C 
ATOM      4  N   UNL     1      -2.855   5.682  -1.881  0.00  0.00    -0.298 NA
ATOM      5  C   UNL     1      -2.124   4.910  -0.853  0.00  0.00    +0.085 C 
ATOM      6  C   UNL     1      -4.066   6.293  -1.319  0.00  0.00    +0.105 C 
ENDROOT
BRANCH   3   7
ATOM      7  C   UNL     1      -1.744   6.477  -3.903  0.00  0.00    -0.012 A 
ATOM      8  C   UNL     1      -0.655   7.028  -4.552  0.00  0.00    +0.115 A 
ATOM      9  N   UNL     1      -0.467   6.830  -5.842  0.00  0.00    -0.263 NA
ATOM     10  C   UNL     1      -1.302   6.107  -6.561  0.00  0.00    +0.111 A 
ATOM     11  C   UNL     1      -2.413   5.523  -5.981  0.00  0.00    +0.020 A 
ATOM     12  C   UNL     1      -2.640   5.705  -4.626  0.00  0.00    +0.008 A 
ENDBRANCH   3   7
TORSDOF 1
ENDMDL
MODEL 3
REMARK VINA RESULT:    -4.100      1.491      2.356
REMARK INTER + INTRA:          -4.575
REMARK INTER:                  -4.375
REMARK INTRA:                  -0.200
REMARK UNBOUND:                -0.235
REMARK  Name = Nicotine.pdb
REMARK  2 active torsions:
REMARK  status: ('A' for Active; 'I' for Inactive)
REMARK    1  A    between atoms: C_3  and  C_6
REMARK    2  A    between atoms: N_4  and  C_12
REMARK                            x       y       z     vdW  Elec       q    Type
REMARK                         _______ _______ _______ _____ _____    ______ ____
ROOT
ATOM      1  C   UNL     1      -2.449   5.656  -4.134  0.00  0.00    +0.017 C 
ATOM      2  C   UNL     1      -1.845   4.904  -2.919  0.00  0.00    +0.025 C 
ATOM      3  C   UNL     1      -2.718   5.388  -1.742  0.00  0.00    +0.088 C 
ATOM      4  N   UNL     1      -3.319   6.672  -2.143  0.00  0.00    -0.298 NA
ATOM      5  C   UNL     1      -2.839   7.014  -3.499  0.00  0.00    +0.085 C 
ATOM      6  C   UNL     1      -4.786   6.602  -2.106  0.00  0.00    +0.105 C 
ENDROOT
BRANCH   3   7
ATOM      7  C   UNL     1      -1.865   5.580  -0.516  0.00  0.00    -0.012 A 
ATOM      8  C   UNL     1      -1.513   6.851  -0.101  0.00  0.00    +0.115 A 
ATOM      9  N   UNL     1      -0.766   7.028   0.971  0.00  0.00    -0.263 NA
ATOM     10  C   UNL     1      -0.327   6.011   1.686  0.00  0.00    +0.111 A 
ATOM     11  C   UNL     1      -0.639   4.711   1.333  0.00  0.00    +0.020 A 
ATOM     12  C   UNL     1      -1.427   4.486   0.215  0.00  0.00    +0.008 A 
ENDBRANCH   3   7
TORSDOF 1
ENDMDL
MODEL 4
REMARK VINA RESULT:    -4.012      1.342      4.551
REMARK INTER + INTRA:          -4.482
REMARK INTER:                  -4.304
REMARK INTRA:                  -0.178
REMARK UNBOUND:                -0.235
REMARK  Name = Nicotine.pdb
REMARK  2 active torsions:
REMARK  status: ('A' for Active; 'I' for Inactive)
REMARK    1  A    between atoms: C_3  and  C_6
REMARK    2  A    between atoms: N_4  and  C_12
REMARK                            x       y       z     vdW  Elec       q    Type
REMARK                         _______ _______ _______ _____ _____    ______ ____
ROOT
ATOM      1  C   UNL     1      -1.732   4.344  -0.193  0.00  0.00    +0.017 C 
ATOM      2  C   UNL     1      -1.806   4.233  -1.739  0.00  0.00    +0.025 C 
ATOM      3  C   UNL     1      -1.167   5.556  -2.213  0.00  0.00    +0.088 C 
ATOM      4  N   UNL     1      -1.277   6.517  -1.100  0.00  0.00    -0.298 NA
ATOM      5  C   UNL     1      -1.975   5.858   0.024  0.00  0.00    +0.085 C 
ATOM      6  C   UNL     1       0.048   7.000  -0.688  0.00  0.00    +0.105 C 
ENDROOT
BRANCH   3   7
ATOM      7  C   UNL     1      -1.903   6.079  -3.419  0.00  0.00    -0.012 A 
ATOM      8  C   UNL     1      -3.244   6.404  -3.332  0.00  0.00    +0.115 A 
ATOM      9  N   UNL     1      -3.896   6.862  -4.383  0.00  0.00    -0.263 NA
ATOM     10  C   UNL     1      -3.303   7.028  -5.549  0.00  0.00    +0.111 A 
ATOM     11  C   UNL     1      -1.964   6.724  -5.711  0.00  0.00    +0.020 A 
ATOM     12  C   UNL     1      -1.244   6.245  -4.627  0.00  0.00    +0.008 A 
ENDBRANCH   3   7
TORSDOF 1
ENDMDL
MODEL 5
REMARK VINA RESULT:    -3.952     11.504     12.895
REMARK INTER + INTRA:          -4.418
REMARK INTER:                  -4.165
REMARK INTRA:                  -0.254
REMARK UNBOUND:                -0.235
REMARK  Name = Nicotine.pdb
REMARK  2 active torsions:
REMARK  status: ('A' for Active; 'I' for Inactive)
REMARK    1  A    between atoms: C_3  and  C_6
REMARK    2  A    between atoms: N_4  and  C_12
REMARK                            x       y       z     vdW  Elec       q    Type
REMARK                         _______ _______ _______ _____ _____    ______ ____
ROOT
ATOM      1  C   UNL     1       6.608   5.556   5.034  0.00  0.00    +0.017 C 
ATOM      2  C   UNL     1       6.993   4.111   4.620  0.00  0.00    +0.025 C 
ATOM      3  C   UNL     1       8.504   4.051   4.931  0.00  0.00    +0.088 C 
ATOM      4  N   UNL     1       9.002   5.438   4.943  0.00  0.00    -0.298 NA
ATOM      5  C   UNL     1       7.878   6.346   4.630  0.00  0.00    +0.085 C 
ATOM      6  C   UNL     1       9.603   5.771   6.242  0.00  0.00    +0.105 C 
ENDROOT
BRANCH   3   7
ATOM      7  C   UNL     1       9.215   3.259   3.865  0.00  0.00    -0.012 A 
ATOM      8  C   UNL     1      10.325   2.499   4.184  0.00  0.00    +0.115 A 
ATOM      9  N   UNL     1      10.954   1.802   3.257  0.00  0.00    -0.263 NA
ATOM     10  C   UNL     1      10.555   1.800   2.001  0.00  0.00    +0.111 A 
ATOM     11  C   UNL     1       9.452   2.536   1.608  0.00  0.00    +0.020 A 
ATOM     12  C   UNL     1       8.762   3.277   2.555  0.00  0.00    +0.008 A 
ENDBRANCH   3   7
TORSDOF 1
ENDMDL
MODEL 6
REMARK VINA RESULT:    -3.792      1.597      2.008
REMARK INTER + INTRA:          -4.249
REMARK INTER:                  -4.039
REMARK INTRA:                  -0.210
REMARK UNBOUND:                -0.235
REMARK  Name = Nicotine.pdb
REMARK  2 active torsions:
REMARK  status: ('A' for Active; 'I' for Inactive)
REMARK    1  A    between atoms: C_3  and  C_6
REMARK    2  A    between atoms: N_4  and  C_12
REMARK                            x       y       z     vdW  Elec       q    Type
REMARK                         _______ _______ _______ _____ _____    ______ ____
ROOT
ATOM      1  C   UNL     1      -3.067   6.458  -6.603  0.00  0.00    +0.017 C 
ATOM      2  C   UNL     1      -3.431   6.814  -5.137  0.00  0.00    +0.025 C 
ATOM      3  C   UNL     1      -2.050   6.936  -4.457  0.00  0.00    +0.088 C 
ATOM      4  N   UNL     1      -1.092   6.169  -5.273  0.00  0.00    -0.298 NA
ATOM      5  C   UNL     1      -1.820   5.561  -6.407  0.00  0.00    +0.085 C 
ATOM      6  C   UNL     1       0.001   7.028  -5.748  0.00  0.00    +0.105 C 
ENDROOT
BRANCH   3   7
ATOM      7  C   UNL     1      -2.112   6.365  -3.065  0.00  0.00    -0.012 A 
ATOM      8  C   UNL     1      -2.802   7.027  -2.067  0.00  0.00    +0.115 A 
ATOM      9  N   UNL     1      -2.861   6.534  -0.845  0.00  0.00    -0.263 NA
ATOM     10  C   UNL     1      -2.271   5.399  -0.527  0.00  0.00    +0.111 A 
ATOM     11  C   UNL     1      -1.563   4.680  -1.472  0.00  0.00    +0.020 A 
ATOM     12  C   UNL     1      -1.483   5.165  -2.769  0.00  0.00    +0.008 A 
ENDBRANCH   3   7
TORSDOF 1
ENDMDL
MODEL 7
REMARK VINA RESULT:    -3.549      2.038      3.185
REMARK INTER + INTRA:          -3.992
REMARK INTER:                  -3.778
REMARK INTRA:                  -0.215
REMARK UNBOUND:                -0.235
REMARK  Name = Nicotine.pdb
REMARK  2 active torsions:
REMARK  status: ('A' for Active; 'I' for Inactive)
REMARK    1  A    between atoms: C_3  and  C_6
REMARK    2  A    between atoms: N_4  and  C_12
REMARK                            x       y       z     vdW  Elec       q    Type
REMARK                         _______ _______ _______ _____ _____    ______ ____
ROOT
ATOM      1  C   UNL     1      -1.268   7.028  -7.074  0.00  0.00    +0.017 C 
ATOM      2  C   UNL     1      -0.739   6.694  -5.654  0.00  0.00    +0.025 C 
ATOM      3  C   UNL     1      -1.797   5.708  -5.113  0.00  0.00    +0.088 C 
ATOM      4  N   UNL     1      -3.036   5.934  -5.879  0.00  0.00    -0.298 NA
ATOM      5  C   UNL     1      -2.800   7.027  -6.846  0.00  0.00    +0.085 C 
ATOM      6  C   UNL     1      -3.464   4.708  -6.563  0.00  0.00    +0.105 C 
ENDROOT
BRANCH   3   7
ATOM      7  C   UNL     1      -2.042   5.971  -3.650  0.00  0.00    -0.012 A 
ATOM      8  C   UNL     1      -3.286   5.734  -3.095  0.00  0.00    +0.115 A 
ATOM      9  N   UNL     1      -3.508   5.962  -1.815  0.00  0.00    -0.263 NA
ATOM     10  C   UNL     1      -2.563   6.420  -1.018  0.00  0.00    +0.111 A 
ATOM     11  C   UNL     1      -1.294   6.679  -1.501  0.00  0.00    +0.020 A 
ATOM     12  C   UNL     1      -1.022   6.448  -2.841  0.00  0.00    +0.008 A 
ENDBRANCH   3   7
TORSDOF 1
ENDMDL
MODEL 8
REMARK VINA RESULT:    -3.528     12.033     12.762
REMARK INTER + INTRA:          -3.970
REMARK INTER:                  -3.738
REMARK INTRA:                  -0.232
REMARK UNBOUND:                -0.235
REMARK  Name = Nicotine.pdb
REMARK  2 active torsions:
REMARK  status: ('A' for Active; 'I' for Inactive)
REMARK    1  A    between atoms: C_3  and  C_6
REMARK    2  A    between atoms: N_4  and  C_12
REMARK                            x       y       z     vdW  Elec       q    Type
REMARK                         _______ _______ _______ _____ _____    ______ ____
ROOT
ATOM      1  C   UNL     1       6.220   0.857  -6.938  0.00  0.00    +0.017 C 
ATOM      2  C   UNL     1       7.515   0.010  -7.053  0.00  0.00    +0.025 C 
ATOM      3  C   UNL     1       7.013  -1.428  -6.803  0.00  0.00    +0.088 C 
ATOM      4  N   UNL     1       5.743  -1.325  -6.062  0.00  0.00    -0.298 NA
ATOM      5  C   UNL     1       5.453   0.105  -5.822  0.00  0.00    +0.085 C 
ATOM      6  C   UNL     1       4.649  -1.968  -6.800  0.00  0.00    +0.105 C 
ENDROOT
BRANCH   3   7
ATOM      7  C   UNL     1       8.025  -2.190  -5.986  0.00  0.00    -0.012 A 
ATOM      8  C   UNL     1       8.477  -3.425  -6.409  0.00  0.00    +0.115 A 
ATOM      9  N   UNL     1       9.362  -4.098  -5.700  0.00  0.00    -0.263 NA
ATOM     10  C   UNL     1       9.848  -3.626  -4.570  0.00  0.00    +0.111 A 
ATOM     11  C   UNL     1       9.443  -2.397  -4.084  0.00  0.00    +0.020 A 
ATOM     12  C   UNL     1       8.518  -1.658  -4.805  0.00  0.00    +0.008 A 
ENDBRANCH   3   7
TORSDOF 1
ENDMDL
MODEL 9
REMARK VINA RESULT:    -3.412     11.631     13.075
REMARK INTER + INTRA:          -3.847
REMARK INTER:                  -3.638
REMARK INTRA:                  -0.209
REMARK UNBOUND:                -0.235
REMARK  Name = Nicotine.pdb
REMARK  2 active torsions:
REMARK  status: ('A' for Active; 'I' for Inactive)
REMARK    1  A    between atoms: C_3  and  C_6
REMARK    2  A    between atoms: N_4  and  C_12
REMARK                            x       y       z     vdW  Elec       q    Type
REMARK                         _______ _______ _______ _____ _____    ______ ____
ROOT
ATOM      1  C   UNL     1       7.464   4.141   4.810  0.00  0.00    +0.017 C 
ATOM      2  C   UNL     1       7.489   3.023   3.735  0.00  0.00    +0.025 C 
ATOM      3  C   UNL     1       8.959   2.553   3.757  0.00  0.00    +0.088 C 
ATOM      4  N   UNL     1       9.761   3.653   4.321  0.00  0.00    -0.298 NA
ATOM      5  C   UNL     1       8.860   4.786   4.624  0.00  0.00    +0.085 C 
ATOM      6  C   UNL     1      10.481   3.217   5.524  0.00  0.00    +0.105 C 
ENDROOT
BRANCH   3   7
ATOM      7  C   UNL     1       9.420   2.247   2.356  0.00  0.00    -0.012 A 
ATOM      8  C   UNL     1       8.704   1.373   1.559  0.00  0.00    +0.115 A 
ATOM      9  N   UNL     1       9.101   1.100   0.331  0.00  0.00    -0.263 NA
ATOM     10  C   UNL     1      10.187   1.642  -0.183  0.00  0.00    +0.111 A 
ATOM     11  C   UNL     1      10.954   2.526   0.554  0.00  0.00    +0.020 A 
ATOM     12  C   UNL     1      10.565   2.841   1.847  0.00  0.00    +0.008 A 
ENDBRANCH   3   7
TORSDOF 1
ENDMDL
MODEL 10
REMARK VINA RESULT:    -3.218     13.460     14.270
REMARK INTER + INTRA:          -3.641
REMARK INTER:                  -3.386
REMARK INTRA:                  -0.256
REMARK UNBOUND:                -0.235
REMARK  Name = Nicotine.pdb
REMARK  2 active torsions:
REMARK  status: ('A' for Active; 'I' for Inactive)
REMARK    1  A    between atoms: C_3  and  C_6
REMARK    2  A    between atoms: N_4  and  C_12
REMARK                            x       y       z     vdW  Elec       q    Type
REMARK                         _______ _______ _______ _____ _____    ______ ____
ROOT
ATOM      1  C   UNL     1       8.217  -1.304  -6.813  0.00  0.00    +0.017 C 
ATOM      2  C   UNL     1       9.251  -1.251  -5.658  0.00  0.00    +0.025 C 
ATOM      3  C   UNL     1       9.547  -2.742  -5.389  0.00  0.00    +0.088 C 
ATOM      4  N   UNL     1       8.401  -3.515  -5.901  0.00  0.00    -0.298 NA
ATOM      5  C   UNL     1       7.403  -2.571  -6.448  0.00  0.00    +0.085 C 
ATOM      6  C   UNL     1       8.829  -4.480  -6.922  0.00  0.00    +0.105 C 
ENDROOT
BRANCH   3   7
ATOM      7  C   UNL     1       9.704  -2.975  -3.909  0.00  0.00    -0.012 A 
ATOM      8  C   UNL     1      10.320  -4.121  -3.443  0.00  0.00    +0.115 A 
ATOM      9  N   UNL     1      10.462  -4.332  -2.149  0.00  0.00    -0.263 NA
ATOM     10  C   UNL     1      10.026  -3.468  -1.254  0.00  0.00    +0.111 A 
ATOM     11  C   UNL     1       9.401  -2.299  -1.645  0.00  0.00    +0.020 A 
ATOM     12  C   UNL     1       9.238  -2.040  -2.997  0.00  0.00    +0.008 A 
ENDBRANCH   3   7
TORSDOF 1
ENDMDL
