MODEL 1
REMARK VINA RESULT:    12.047      0.000      0.000
REMARK INTER + INTRA:          12.536
REMARK INTER:                  12.751
REMARK INTRA:                  -0.215
REMARK UNBOUND:                -0.215
REMARK  Name = Nicotine.pdb
REMARK  2 active torsions:
REMARK  status: ('A' for Active; 'I' for Inactive)
REMARK    1  A    between atoms: C_3  and  C_6
REMARK    2  A    between atoms: N_4  and  C_12
REMARK                            x       y       z     vdW  Elec       q    Type
REMARK                         _______ _______ _______ _____ _____    ______ ____
ROOT
ATOM      1  C   UNL     1      -1.130  -0.826   1.453  0.00  0.00    +0.017 C 
ATOM      2  C   UNL     1       0.340  -0.617   1.005  0.00  0.00    +0.025 C 
ATOM      3  C   UNL     1       0.613  -1.853   0.121  0.00  0.00    +0.088 C 
ATOM      4  N   UNL     1      -0.356  -2.893   0.514  0.00  0.00    -0.298 NA
ATOM      5  C   UNL     1      -1.193  -2.365   1.613  0.00  0.00    +0.085 C 
ATOM      6  C   UNL     1      -1.182  -3.302  -0.629  0.00  0.00    +0.105 C 
ENDROOT
BRANCH   3   7
ATOM      7  C   UNL     1       2.018  -2.347   0.350  0.00  0.00    -0.012 A 
ATOM      8  C   UNL     1       2.239  -3.572   0.950  0.00  0.00    +0.115 A 
ATOM      9  N   UNL     1       3.466  -4.012   1.153  0.00  0.00    -0.263 NA
ATOM     10  C   UNL     1       4.522  -3.308   0.797  0.00  0.00    +0.111 A 
ATOM     11  C   UNL     1       4.379  -2.074   0.191  0.00  0.00    +0.020 A 
ATOM     12  C   UNL     1       3.104  -1.582  -0.044  0.00  0.00    +0.008 A 
ENDBRANCH   3   7
TORSDOF 1
ENDMDL
MODEL 2
REMARK VINA RESULT:    12.438      1.389      4.644
REMARK INTER + INTRA:          12.950
REMARK INTER:                  13.150
REMARK INTRA:                  -0.200
REMARK UNBOUND:                -0.215
REMARK  Name = Nicotine.pdb
REMARK  2 active torsions:
REMARK  status: ('A' for Active; 'I' for Inactive)
REMARK    1  A    between atoms: C_3  and  C_6
REMARK    2  A    between atoms: N_4  and  C_12
REMARK                            x       y       z     vdW  Elec       q    Type
REMARK                         _______ _______ _______ _____ _____    ______ ____
ROOT
ATOM      1  C   UNL     1       4.473  -3.713   1.095  0.00  0.00    +0.017 C 
ATOM      2  C   UNL     1       2.932  -3.854   0.993  0.00  0.00    +0.025 C 
ATOM      3  C   UNL     1       2.543  -2.722   0.019  0.00  0.00    +0.088 C 
ATOM      4  N   UNL     1       3.627  -1.725   0.053  0.00  0.00    -0.298 NA
ATOM      5  C   UNL     1       4.652  -2.176   1.018  0.00  0.00    +0.085 C 
ATOM      6  C   UNL     1       4.209  -1.533  -1.282  0.00  0.00    +0.105 C 
ENDROOT
BRANCH   3   7
ATOM      7  C   UNL     1       1.248  -2.089   0.460  0.00  0.00    -0.012 A 
ATOM      8  C   UNL     1       1.250  -0.854   1.080  0.00  0.00    +0.115 A 
ATOM      9  N   UNL     1       0.122  -0.292   1.469  0.00  0.00    -0.263 NA
ATOM     10  C   UNL     1      -1.044  -0.880   1.285  0.00  0.00    +0.111 A 
ATOM     11  C   UNL     1      -1.124  -2.116   0.672  0.00  0.00    +0.020 A 
ATOM     12  C   UNL     1       0.041  -2.734   0.244  0.00  0.00    +0.008 A 
ENDBRANCH   3   7
TORSDOF 1
ENDMDL
MODEL 3
REMARK VINA RESULT:    14.565      1.313      2.308
REMARK INTER + INTRA:          15.201
REMARK INTER:                  15.417
REMARK INTRA:                  -0.215
REMARK UNBOUND:                -0.215
REMARK  Name = Nicotine.pdb
REMARK  2 active torsions:
REMARK  status: ('A' for Active; 'I' for Inactive)
REMARK    1  A    between atoms: C_3  and  C_6
REMARK    2  A    between atoms: N_4  and  C_12
REMARK                            x       y       z     vdW  Elec       q    Type
REMARK                         _______ _______ _______ _____ _____    ______ ____
ROOT
ATOM      1  C   UNL     1      -1.403  -2.790  -0.171  0.00  0.00    +0.017 C 
ATOM      2  C   UNL     1      -0.087  -3.496   0.248  0.00  0.00    +0.025 C 
ATOM      3  C   UNL     1       0.663  -2.396   1.030  0.00  0.00    +0.088 C 
ATOM      4  N   UNL     1       0.119  -1.099   0.590  0.00  0.00    -0.298 NA
ATOM      5  C   UNL     1      -0.911  -1.346  -0.441  0.00  0.00    +0.085 C 
ATOM      6  C   UNL     1      -0.440  -0.350   1.724  0.00  0.00    +0.105 C 
ENDROOT
BRANCH   3   7
ATOM      7  C   UNL     1       2.137  -2.465   0.725  0.00  0.00    -0.012 A 
ATOM      8  C   UNL     1       2.755  -1.443   0.029  0.00  0.00    +0.115 A 
ATOM      9  N   UNL     1       4.045  -1.495  -0.242  0.00  0.00    -0.263 NA
ATOM     10  C   UNL     1       4.792  -2.514   0.135  0.00  0.00    +0.111 A 
ATOM     11  C   UNL     1       4.243  -3.573   0.835  0.00  0.00    +0.020 A 
ATOM     12  C   UNL     1       2.892  -3.550   1.143  0.00  0.00    +0.008 A 
ENDBRANCH   3   7
TORSDOF 1
ENDMDL
