MODEL 1
REMARK VINA RESULT:    -4.264      0.000      0.000
REMARK INTER + INTRA:          -4.767
REMARK INTER:                  -4.513
REMARK INTRA:                  -0.254
REMARK UNBOUND:                -0.254
REMARK  Name = Nicotine.pdb
REMARK  2 active torsions:
REMARK  status: ('A' for Active; 'I' for Inactive)
REMARK    1  A    between atoms: C_3  and  C_6
REMARK    2  A    between atoms: N_4  and  C_12
REMARK                            x       y       z     vdW  Elec       q    Type
REMARK                         _______ _______ _______ _____ _____    ______ ____
ROOT
ATOM      1  C   UNL     1      10.235   3.020  -0.721  0.00  0.00    +0.017 C 
ATOM      2  C   UNL     1       9.316   1.807  -1.023  0.00  0.00    +0.025 C 
ATOM      3  C   UNL     1       8.987   1.985  -2.520  0.00  0.00    +0.088 C 
ATOM      4  N   UNL     1       9.195   3.407  -2.848  0.00  0.00    -0.298 NA
ATOM      5  C   UNL     1       9.611   4.117  -1.619  0.00  0.00    +0.085 C 
ATOM      6  C   UNL     1      10.196   3.562  -3.911  0.00  0.00    +0.105 C 
ENDROOT
BRANCH   3   7
ATOM      7  C   UNL     1       7.553   1.602  -2.779  0.00  0.00    -0.012 A 
ATOM      8  C   UNL     1       7.105   1.406  -4.072  0.00  0.00    +0.115 A 
ATOM      9  N   UNL     1       5.851   1.071  -4.307  0.00  0.00    -0.263 NA
ATOM     10  C   UNL     1       4.981   0.910  -3.330  0.00  0.00    +0.111 A 
ATOM     11  C   UNL     1       5.357   1.089  -2.011  0.00  0.00    +0.020 A 
ATOM     12  C   UNL     1       6.668   1.437  -1.725  0.00  0.00    +0.008 A 
ENDBRANCH   3   7
TORSDOF 1
ENDMDL
MODEL 2
REMARK VINA RESULT:    -4.214      1.907      2.723
REMARK INTER + INTRA:          -4.715
REMARK INTER:                  -4.509
REMARK INTRA:                  -0.206
REMARK UNBOUND:                -0.254
REMARK  Name = Nicotine.pdb
REMARK  2 active torsions:
REMARK  status: ('A' for Active; 'I' for Inactive)
REMARK    1  A    between atoms: C_3  and  C_6
REMARK    2  A    between atoms: N_4  and  C_12
REMARK                            x       y       z     vdW  Elec       q    Type
REMARK                         _______ _______ _______ _____ _____    ______ ____
ROOT
ATOM      1  C   UNL     1      10.954   5.667  -1.772  0.00  0.00    +0.017 C 
ATOM      2  C   UNL     1      10.805   4.235  -1.194  0.00  0.00    +0.025 C 
ATOM      3  C   UNL     1      10.380   3.406  -2.425  0.00  0.00    +0.088 C 
ATOM      4  N   UNL     1       9.793   4.342  -3.400  0.00  0.00    -0.298 NA
ATOM      5  C   UNL     1       9.813   5.701  -2.819  0.00  0.00    +0.085 C 
ATOM      6  C   UNL     1      10.522   4.302  -4.674  0.00  0.00    +0.105 C 
ENDROOT
BRANCH   3   7
ATOM      7  C   UNL     1       9.357   2.376  -2.021  0.00  0.00    -0.012 A 
ATOM      8  C   UNL     1       9.595   1.538  -0.948  0.00  0.00    +0.115 A 
ATOM      9  N   UNL     1       8.706   0.634  -0.588  0.00  0.00    -0.263 NA
ATOM     10  C   UNL     1       7.563   0.492  -1.230  0.00  0.00    +0.111 A 
ATOM     11  C   UNL     1       7.255   1.294  -2.312  0.00  0.00    +0.020 A 
ATOM     12  C   UNL     1       8.164   2.260  -2.717  0.00  0.00    +0.008 A 
ENDBRANCH   3   7
TORSDOF 1
ENDMDL
MODEL 3
REMARK VINA RESULT:    -3.944      2.575      4.218
REMARK INTER + INTRA:          -4.429
REMARK INTER:                  -4.213
REMARK INTRA:                  -0.216
REMARK UNBOUND:                -0.254
REMARK  Name = Nicotine.pdb
REMARK  2 active torsions:
REMARK  status: ('A' for Active; 'I' for Inactive)
REMARK    1  A    between atoms: C_3  and  C_6
REMARK    2  A    between atoms: N_4  and  C_12
REMARK                            x       y       z     vdW  Elec       q    Type
REMARK                         _______ _______ _______ _____ _____    ______ ____
ROOT
ATOM      1  C   UNL     1      10.913   1.943   0.837  0.00  0.00    +0.017 C 
ATOM      2  C   UNL     1      10.627   3.280   0.104  0.00  0.00    +0.025 C 
ATOM      3  C   UNL     1       9.568   2.881  -0.945  0.00  0.00    +0.088 C 
ATOM      4  N   UNL     1       9.696   1.429  -1.165  0.00  0.00    -0.298 NA
ATOM      5  C   UNL     1      10.798   0.920  -0.321  0.00  0.00    +0.085 C 
ATOM      6  C   UNL     1       8.437   0.737  -0.861  0.00  0.00    +0.105 C 
ENDROOT
BRANCH   3   7
ATOM      7  C   UNL     1       9.819   3.620  -2.234  0.00  0.00    -0.012 A 
ATOM      8  C   UNL     1       9.636   2.987  -3.449  0.00  0.00    +0.115 A 
ATOM      9  N   UNL     1       9.854   3.627  -4.582  0.00  0.00    -0.263 NA
ATOM     10  C   UNL     1      10.252   4.884  -4.603  0.00  0.00    +0.111 A 
ATOM     11  C   UNL     1      10.455   5.581  -3.427  0.00  0.00    +0.020 A 
ATOM     12  C   UNL     1      10.232   4.943  -2.217  0.00  0.00    +0.008 A 
ENDBRANCH   3   7
TORSDOF 1
ENDMDL
MODEL 4
REMARK VINA RESULT:    -3.813      2.298      4.356
REMARK INTER + INTRA:          -4.291
REMARK INTER:                  -4.075
REMARK INTRA:                  -0.216
REMARK UNBOUND:                -0.254
REMARK  Name = Nicotine.pdb
REMARK  2 active torsions:
REMARK  status: ('A' for Active; 'I' for Inactive)
REMARK    1  A    between atoms: C_3  and  C_6
REMARK    2  A    between atoms: N_4  and  C_12
REMARK                            x       y       z     vdW  Elec       q    Type
REMARK                         _______ _______ _______ _____ _____    ______ ____
ROOT
ATOM      1  C   UNL     1       8.653   1.794  -4.744  0.00  0.00    +0.017 C 
ATOM      2  C   UNL     1       8.346   1.852  -3.224  0.00  0.00    +0.025 C 
ATOM      3  C   UNL     1       9.236   3.015  -2.735  0.00  0.00    +0.088 C 
ATOM      4  N   UNL     1      10.323   3.176  -3.718  0.00  0.00    -0.298 NA
ATOM      5  C   UNL     1      10.159   2.154  -4.773  0.00  0.00    +0.085 C 
ATOM      6  C   UNL     1      10.320   4.529  -4.289  0.00  0.00    +0.105 C 
ENDROOT
BRANCH   3   7
ATOM      7  C   UNL     1       9.811   2.686  -1.382  0.00  0.00    -0.012 A 
ATOM      8  C   UNL     1       9.821   1.382  -0.925  0.00  0.00    +0.115 A 
ATOM      9  N   UNL     1      10.323   1.085   0.259  0.00  0.00    -0.263 NA
ATOM     10  C   UNL     1      10.831   2.011   1.048  0.00  0.00    +0.111 A 
ATOM     11  C   UNL     1      10.856   3.337   0.658  0.00  0.00    +0.020 A 
ATOM     12  C   UNL     1      10.343   3.686  -0.582  0.00  0.00    +0.008 A 
ENDBRANCH   3   7
TORSDOF 1
ENDMDL
MODEL 5
REMARK VINA RESULT:    -3.603      1.810      3.947
REMARK INTER + INTRA:          -4.068
REMARK INTER:                  -3.872
REMARK INTRA:                  -0.196
REMARK UNBOUND:                -0.254
REMARK  Name = Nicotine.pdb
REMARK  2 active torsions:
REMARK  status: ('A' for Active; 'I' for Inactive)
REMARK    1  A    between atoms: C_3  and  C_6
REMARK    2  A    between atoms: N_4  and  C_12
REMARK                            x       y       z     vdW  Elec       q    Type
REMARK                         _______ _______ _______ _____ _____    ______ ____
ROOT
ATOM      1  C   UNL     1       8.741   0.928  -0.367  0.00  0.00    +0.017 C 
ATOM      2  C   UNL     1       9.401   1.935  -1.345  0.00  0.00    +0.025 C 
ATOM      3  C   UNL     1       8.323   2.120  -2.434  0.00  0.00    +0.088 C 
ATOM      4  N   UNL     1       7.448   0.935  -2.388  0.00  0.00    -0.298 NA
ATOM      5  C   UNL     1       7.950   0.020  -1.341  0.00  0.00    +0.085 C 
ATOM      6  C   UNL     1       6.054   1.320  -2.128  0.00  0.00    +0.105 C 
ENDROOT
BRANCH   3   7
ATOM      7  C   UNL     1       8.975   2.225  -3.788  0.00  0.00    -0.012 A 
ATOM      8  C   UNL     1      10.108   2.997  -3.961  0.00  0.00    +0.115 A 
ATOM      9  N   UNL     1      10.685   3.094  -5.143  0.00  0.00    -0.263 NA
ATOM     10  C   UNL     1      10.209   2.466  -6.200  0.00  0.00    +0.111 A 
ATOM     11  C   UNL     1       9.080   1.675  -6.104  0.00  0.00    +0.020 A 
ATOM     12  C   UNL     1       8.449   1.544  -4.876  0.00  0.00    +0.008 A 
ENDBRANCH   3   7
TORSDOF 1
ENDMDL
MODEL 6
REMARK VINA RESULT:    -3.408      2.736      4.257
REMARK INTER + INTRA:          -3.861
REMARK INTER:                  -3.665
REMARK INTRA:                  -0.197
REMARK UNBOUND:                -0.254
REMARK  Name = Nicotine.pdb
REMARK  2 active torsions:
REMARK  status: ('A' for Active; 'I' for Inactive)
REMARK    1  A    between atoms: C_3  and  C_6
REMARK    2  A    between atoms: N_4  and  C_12
REMARK                            x       y       z     vdW  Elec       q    Type
REMARK                         _______ _______ _______ _____ _____    ______ ____
ROOT
ATOM      1  C   UNL     1      10.947   6.153  -4.313  0.00  0.00    +0.017 C 
ATOM      2  C   UNL     1      10.620   4.662  -4.039  0.00  0.00    +0.025 C 
ATOM      3  C   UNL     1       9.543   4.739  -2.937  0.00  0.00    +0.088 C 
ATOM      4  N   UNL     1       9.690   6.046  -2.273  0.00  0.00    -0.298 NA
ATOM      5  C   UNL     1      10.821   6.766  -2.896  0.00  0.00    +0.085 C 
ATOM      6  C   UNL     1       8.451   6.828  -2.368  0.00  0.00    +0.105 C 
ENDROOT
BRANCH   3   7
ATOM      7  C   UNL     1       9.750   3.629  -1.939  0.00  0.00    -0.012 A 
ATOM      8  C   UNL     1       9.182   2.386  -2.147  0.00  0.00    +0.115 A 
ATOM      9  N   UNL     1       9.358   1.410  -1.279  0.00  0.00    -0.263 NA
ATOM     10  C   UNL     1      10.077   1.575  -0.186  0.00  0.00    +0.111 A 
ATOM     11  C   UNL     1      10.677   2.790   0.089  0.00  0.00    +0.020 A 
ATOM     12  C   UNL     1      10.517   3.839  -0.804  0.00  0.00    +0.008 A 
ENDBRANCH   3   7
TORSDOF 1
ENDMDL
MODEL 7
REMARK VINA RESULT:    -3.295      2.359      3.768
REMARK INTER + INTRA:          -3.742
REMARK INTER:                  -3.519
REMARK INTRA:                  -0.223
REMARK UNBOUND:                -0.254
REMARK  Name = Nicotine.pdb
REMARK  2 active torsions:
REMARK  status: ('A' for Active; 'I' for Inactive)
REMARK    1  A    between atoms: C_3  and  C_6
REMARK    2  A    between atoms: N_4  and  C_12
REMARK                            x       y       z     vdW  Elec       q    Type
REMARK                         _______ _______ _______ _____ _____    ______ ____
ROOT
ATOM      1  C   UNL     1       9.673   2.338  -6.218  0.00  0.00    +0.017 C 
ATOM      2  C   UNL     1       8.806   1.856  -5.025  0.00  0.00    +0.025 C 
ATOM      3  C   UNL     1       9.155   2.866  -3.911  0.00  0.00    +0.088 C 
ATOM      4  N   UNL     1      10.467   3.449  -4.245  0.00  0.00    -0.298 NA
ATOM      5  C   UNL     1      10.954   2.828  -5.496  0.00  0.00    +0.085 C 
ATOM      6  C   UNL     1      10.377   4.908  -4.382  0.00  0.00    +0.105 C 
ENDROOT
BRANCH   3   7
ATOM      7  C   UNL     1       9.229   2.160  -2.583  0.00  0.00    -0.012 A 
ATOM      8  C   UNL     1      10.393   2.192  -1.838  0.00  0.00    +0.115 A 
ATOM      9  N   UNL     1      10.467   1.576  -0.674  0.00  0.00    -0.263 NA
ATOM     10  C   UNL     1       9.443   0.909  -0.177  0.00  0.00    +0.111 A 
ATOM     11  C   UNL     1       8.247   0.834  -0.865  0.00  0.00    +0.020 A 
ATOM     12  C   UNL     1       8.130   1.473  -2.089  0.00  0.00    +0.008 A 
ENDBRANCH   3   7
TORSDOF 1
ENDMDL
MODEL 8
REMARK VINA RESULT:    -3.226      2.716      3.595
REMARK INTER + INTRA:          -3.670
REMARK INTER:                  -3.454
REMARK INTRA:                  -0.215
REMARK UNBOUND:                -0.254
REMARK  Name = Nicotine.pdb
REMARK  2 active torsions:
REMARK  status: ('A' for Active; 'I' for Inactive)
REMARK    1  A    between atoms: C_3  and  C_6
REMARK    2  A    between atoms: N_4  and  C_12
REMARK                            x       y       z     vdW  Elec       q    Type
REMARK                         _______ _______ _______ _____ _____    ______ ____
ROOT
ATOM      1  C   UNL     1      10.787   5.333  -1.642  0.00  0.00    +0.017 C 
ATOM      2  C   UNL     1      10.940   3.998  -2.417  0.00  0.00    +0.025 C 
ATOM      3  C   UNL     1      10.638   4.406  -3.875  0.00  0.00    +0.088 C 
ATOM      4  N   UNL     1       9.845   5.648  -3.825  0.00  0.00    -0.298 NA
ATOM      5  C   UNL     1       9.623   6.008  -2.409  0.00  0.00    +0.085 C 
ATOM      6  C   UNL     1      10.521   6.734  -4.546  0.00  0.00    +0.105 C 
ENDROOT
BRANCH   3   7
ATOM      7  C   UNL     1       9.850   3.320  -4.559  0.00  0.00    -0.012 A 
ATOM      8  C   UNL     1       9.199   2.354  -3.815  0.00  0.00    +0.115 A 
ATOM      9  N   UNL     1       8.507   1.400  -4.406  0.00  0.00    -0.263 NA
ATOM     10  C   UNL     1       8.409   1.326  -5.719  0.00  0.00    +0.111 A 
ATOM     11  C   UNL     1       9.032   2.257  -6.529  0.00  0.00    +0.020 A 
ATOM     12  C   UNL     1       9.764   3.279  -5.943  0.00  0.00    +0.008 A 
ENDBRANCH   3   7
TORSDOF 1
ENDMDL
MODEL 9
REMARK VINA RESULT:    -3.111      2.250      4.204
REMARK INTER + INTRA:          -3.548
REMARK INTER:                  -3.353
REMARK INTRA:                  -0.195
REMARK UNBOUND:                -0.254
REMARK  Name = Nicotine.pdb
REMARK  2 active torsions:
REMARK  status: ('A' for Active; 'I' for Inactive)
REMARK    1  A    between atoms: C_3  and  C_6
REMARK    2  A    between atoms: N_4  and  C_12
REMARK                            x       y       z     vdW  Elec       q    Type
REMARK                         _______ _______ _______ _____ _____    ______ ____
ROOT
ATOM      1  C   UNL     1       7.734   0.603  -1.256  0.00  0.00    +0.017 C 
ATOM      2  C   UNL     1       7.907   1.567  -2.459  0.00  0.00    +0.025 C 
ATOM      3  C   UNL     1       9.402   1.943  -2.391  0.00  0.00    +0.088 C 
ATOM      4  N   UNL     1       9.849   1.706  -1.007  0.00  0.00    -0.298 NA
ATOM      5  C   UNL     1       8.697   1.227  -0.215  0.00  0.00    +0.085 C 
ATOM      6  C   UNL     1      10.954   0.739  -0.968  0.00  0.00    +0.105 C 
ENDROOT
BRANCH   3   7
ATOM      7  C   UNL     1       9.582   3.395  -2.748  0.00  0.00    -0.012 A 
ATOM      8  C   UNL     1      10.061   3.755  -3.993  0.00  0.00    +0.115 A 
ATOM      9  N   UNL     1      10.221   5.025  -4.314  0.00  0.00    -0.263 NA
ATOM     10  C   UNL     1       9.935   5.994  -3.468  0.00  0.00    +0.111 A 
ATOM     11  C   UNL     1       9.451   5.711  -2.204  0.00  0.00    +0.020 A 
ATOM     12  C   UNL     1       9.264   4.388  -1.834  0.00  0.00    +0.008 A 
ENDBRANCH   3   7
TORSDOF 1
ENDMDL
MODEL 10
REMARK VINA RESULT:    -2.951      2.154      5.078
REMARK INTER + INTRA:          -3.377
REMARK INTER:                  -3.164
REMARK INTRA:                  -0.213
REMARK UNBOUND:                -0.254
REMARK  Name = Nicotine.pdb
REMARK  2 active torsions:
REMARK  status: ('A' for Active; 'I' for Inactive)
REMARK    1  A    between atoms: C_3  and  C_6
REMARK    2  A    between atoms: N_4  and  C_12
REMARK                            x       y       z     vdW  Elec       q    Type
REMARK                         _______ _______ _______ _____ _____    ______ ____
ROOT
ATOM      1  C   UNL     1      10.096   1.137  -5.724  0.00  0.00    +0.017 C 
ATOM      2  C   UNL     1      10.943   2.196  -4.970  0.00  0.00    +0.025 C 
ATOM      3  C   UNL     1       9.987   2.676  -3.857  0.00  0.00    +0.088 C 
ATOM      4  N   UNL     1       8.614   2.372  -4.299  0.00  0.00    -0.298 NA
ATOM      5  C   UNL     1       8.677   1.753  -5.640  0.00  0.00    +0.085 C 
ATOM      6  C   UNL     1       7.936   1.489  -3.342  0.00  0.00    +0.105 C 
ENDROOT
BRANCH   3   7
ATOM      7  C   UNL     1      10.145   4.160  -3.651  0.00  0.00    -0.012 A 
ATOM      8  C   UNL     1      10.460   4.984  -4.715  0.00  0.00    +0.115 A 
ATOM      9  N   UNL     1      10.599   6.284  -4.543  0.00  0.00    -0.263 NA
ATOM     10  C   UNL     1      10.446   6.847  -3.361  0.00  0.00    +0.111 A 
ATOM     11  C   UNL     1      10.130   6.087  -2.251  0.00  0.00    +0.020 A 
ATOM     12  C   UNL     1       9.970   4.717  -2.394  0.00  0.00    +0.008 A 
ENDBRANCH   3   7
TORSDOF 1
ENDMDL
