MODEL 1
REMARK VINA RESULT:    -4.047      0.000      0.000
REMARK INTER + INTRA:          -4.535
REMARK INTER:                  -4.284
REMARK INTRA:                  -0.251
REMARK UNBOUND:                -0.251
REMARK  Name = Nicotine.pdb
REMARK  2 active torsions:
REMARK  status: ('A' for Active; 'I' for Inactive)
REMARK    1  A    between atoms: C_3  and  C_6
REMARK    2  A    between atoms: N_4  and  C_12
REMARK                            x       y       z     vdW  Elec       q    Type
REMARK                         _______ _______ _______ _____ _____    ______ ____
ROOT
ATOM      1  C   UNL     1       4.744   4.086  -0.247  0.00  0.00    +0.017 C 
ATOM      2  C   UNL     1       3.875   3.646   0.961  0.00  0.00    +0.025 C 
ATOM      3  C   UNL     1       4.925   3.330   2.047  0.00  0.00    +0.088 C 
ATOM      4  N   UNL     1       6.197   3.052   1.356  0.00  0.00    -0.298 NA
ATOM      5  C   UNL     1       5.975   3.157  -0.101  0.00  0.00    +0.085 C 
ATOM      6  C   UNL     1       7.250   3.977   1.797  0.00  0.00    +0.105 C 
ENDROOT
BRANCH   3   7
ATOM      7  C   UNL     1       4.496   2.122   2.839  0.00  0.00    -0.012 A 
ATOM      8  C   UNL     1       5.170   1.767   3.992  0.00  0.00    +0.115 A 
ATOM      9  N   UNL     1       4.800   0.712   4.692  0.00  0.00    -0.263 NA
ATOM     10  C   UNL     1       3.783  -0.042   4.324  0.00  0.00    +0.111 A 
ATOM     11  C   UNL     1       3.060   0.253   3.183  0.00  0.00    +0.020 A 
ATOM     12  C   UNL     1       3.416   1.357   2.425  0.00  0.00    +0.008 A 
ENDBRANCH   3   7
TORSDOF 1
ENDMDL
MODEL 2
REMARK VINA RESULT:    -3.931      2.476      4.084
REMARK INTER + INTRA:          -4.413
REMARK INTER:                  -4.197
REMARK INTRA:                  -0.215
REMARK UNBOUND:                -0.251
REMARK  Name = Nicotine.pdb
REMARK  2 active torsions:
REMARK  status: ('A' for Active; 'I' for Inactive)
REMARK    1  A    between atoms: C_3  and  C_6
REMARK    2  A    between atoms: N_4  and  C_12
REMARK                            x       y       z     vdW  Elec       q    Type
REMARK                         _______ _______ _______ _____ _____    ______ ____
ROOT
ATOM      1  C   UNL     1       4.948   5.153   1.357  0.00  0.00    +0.017 C 
ATOM      2  C   UNL     1       4.193   4.391   0.237  0.00  0.00    +0.025 C 
ATOM      3  C   UNL     1       4.219   2.929   0.733  0.00  0.00    +0.088 C 
ATOM      4  N   UNL     1       5.343   2.809   1.678  0.00  0.00    -0.298 NA
ATOM      5  C   UNL     1       6.025   4.118   1.768  0.00  0.00    +0.085 C 
ATOM      6  C   UNL     1       4.877   2.366   2.999  0.00  0.00    +0.105 C 
ENDROOT
BRANCH   3   7
ATOM      7  C   UNL     1       4.425   1.996  -0.432  0.00  0.00    -0.012 A 
ATOM      8  C   UNL     1       4.962   2.464  -1.616  0.00  0.00    +0.115 A 
ATOM      9  N   UNL     1       5.145   1.653  -2.640  0.00  0.00    -0.263 NA
ATOM     10  C   UNL     1       4.827   0.376  -2.578  0.00  0.00    +0.111 A 
ATOM     11  C   UNL     1       4.286  -0.164  -1.426  0.00  0.00    +0.020 A 
ATOM     12  C   UNL     1       4.084   0.656  -0.327  0.00  0.00    +0.008 A 
ENDBRANCH   3   7
TORSDOF 1
ENDMDL
MODEL 3
REMARK VINA RESULT:    -3.785      2.455      4.817
REMARK INTER + INTRA:          -4.258
REMARK INTER:                  -4.003
REMARK INTRA:                  -0.256
REMARK UNBOUND:                -0.251
REMARK  Name = Nicotine.pdb
REMARK  2 active torsions:
REMARK  status: ('A' for Active; 'I' for Inactive)
REMARK    1  A    between atoms: C_3  and  C_6
REMARK    2  A    between atoms: N_4  and  C_12
REMARK                            x       y       z     vdW  Elec       q    Type
REMARK                         _______ _______ _______ _____ _____    ______ ____
ROOT
ATOM      1  C   UNL     1       8.484   4.431   2.102  0.00  0.00    +0.017 C 
ATOM      2  C   UNL     1       7.614   5.130   1.024  0.00  0.00    +0.025 C 
ATOM      3  C   UNL     1       6.206   4.557   1.289  0.00  0.00    +0.088 C 
ATOM      4  N   UNL     1       6.381   3.282   2.006  0.00  0.00    -0.298 NA
ATOM      5  C   UNL     1       7.828   3.030   2.172  0.00  0.00    +0.085 C 
ATOM      6  C   UNL     1       5.698   3.310   3.306  0.00  0.00    +0.105 C 
ENDROOT
BRANCH   3   7
ATOM      7  C   UNL     1       5.495   4.319  -0.018  0.00  0.00    -0.012 A 
ATOM      8  C   UNL     1       4.114   4.339  -0.077  0.00  0.00    +0.115 A 
ATOM      9  N   UNL     1       3.484   4.132  -1.216  0.00  0.00    -0.263 NA
ATOM     10  C   UNL     1       4.138   3.898  -2.337  0.00  0.00    +0.111 A 
ATOM     11  C   UNL     1       5.520   3.863  -2.356  0.00  0.00    +0.020 A 
ATOM     12  C   UNL     1       6.217   4.082  -1.178  0.00  0.00    +0.008 A 
ENDBRANCH   3   7
TORSDOF 1
ENDMDL
MODEL 4
REMARK VINA RESULT:    -3.653      2.940      4.014
REMARK INTER + INTRA:          -4.118
REMARK INTER:                  -3.894
REMARK INTRA:                  -0.224
REMARK UNBOUND:                -0.251
REMARK  Name = Nicotine.pdb
REMARK  2 active torsions:
REMARK  status: ('A' for Active; 'I' for Inactive)
REMARK    1  A    between atoms: C_3  and  C_6
REMARK    2  A    between atoms: N_4  and  C_12
REMARK                            x       y       z     vdW  Elec       q    Type
REMARK                         _______ _______ _______ _____ _____    ______ ____
ROOT
ATOM      1  C   UNL     1       7.739   4.787  -0.117  0.00  0.00    +0.017 C 
ATOM      2  C   UNL     1       6.950   4.027  -1.216  0.00  0.00    +0.025 C 
ATOM      3  C   UNL     1       5.526   3.944  -0.626  0.00  0.00    +0.088 C 
ATOM      4  N   UNL     1       5.649   4.095   0.835  0.00  0.00    -0.298 NA
ATOM      5  C   UNL     1       7.081   4.241   1.175  0.00  0.00    +0.085 C 
ATOM      6  C   UNL     1       4.874   5.246   1.313  0.00  0.00    +0.105 C 
ENDROOT
BRANCH   3   7
ATOM      7  C   UNL     1       4.912   2.608  -0.955  0.00  0.00    -0.012 A 
ATOM      8  C   UNL     1       4.464   1.777   0.054  0.00  0.00    +0.115 A 
ATOM      9  N   UNL     1       3.926   0.606  -0.226  0.00  0.00    -0.263 NA
ATOM     10  C   UNL     1       3.793   0.183  -1.467  0.00  0.00    +0.111 A 
ATOM     11  C   UNL     1       4.217   0.960  -2.529  0.00  0.00    +0.020 A 
ATOM     12  C   UNL     1       4.784   2.199  -2.274  0.00  0.00    +0.008 A 
ENDBRANCH   3   7
TORSDOF 1
ENDMDL
MODEL 5
REMARK VINA RESULT:    -3.647      3.738      5.348
REMARK INTER + INTRA:          -4.111
REMARK INTER:                  -3.942
REMARK INTRA:                  -0.169
REMARK UNBOUND:                -0.251
REMARK  Name = Nicotine.pdb
REMARK  2 active torsions:
REMARK  status: ('A' for Active; 'I' for Inactive)
REMARK    1  A    between atoms: C_3  and  C_6
REMARK    2  A    between atoms: N_4  and  C_12
REMARK                            x       y       z     vdW  Elec       q    Type
REMARK                         _______ _______ _______ _____ _____    ______ ____
ROOT
ATOM      1  C   UNL     1       4.617   1.771  -4.209  0.00  0.00    +0.017 C 
ATOM      2  C   UNL     1       4.394   1.953  -2.685  0.00  0.00    +0.025 C 
ATOM      3  C   UNL     1       4.153   3.472  -2.549  0.00  0.00    +0.088 C 
ATOM      4  N   UNL     1       4.753   4.117  -3.730  0.00  0.00    -0.298 NA
ATOM      5  C   UNL     1       5.374   3.073  -4.573  0.00  0.00    +0.085 C 
ATOM      6  C   UNL     1       3.747   4.875  -4.485  0.00  0.00    +0.105 C 
ENDROOT
BRANCH   3   7
ATOM      7  C   UNL     1       4.810   3.985  -1.294  0.00  0.00    -0.012 A 
ATOM      8  C   UNL     1       6.186   4.098  -1.221  0.00  0.00    +0.115 A 
ATOM      9  N   UNL     1       6.769   4.547  -0.126  0.00  0.00    -0.263 NA
ATOM     10  C   UNL     1       6.071   4.901   0.935  0.00  0.00    +0.111 A 
ATOM     11  C   UNL     1       4.692   4.816   0.936  0.00  0.00    +0.020 A 
ATOM     12  C   UNL     1       4.043   4.354  -0.199  0.00  0.00    +0.008 A 
ENDBRANCH   3   7
TORSDOF 1
ENDMDL
MODEL 6
REMARK VINA RESULT:    -3.591      3.677      5.313
REMARK INTER + INTRA:          -4.053
REMARK INTER:                  -3.831
REMARK INTRA:                  -0.222
REMARK UNBOUND:                -0.251
REMARK  Name = Nicotine.pdb
REMARK  2 active torsions:
REMARK  status: ('A' for Active; 'I' for Inactive)
REMARK    1  A    between atoms: C_3  and  C_6
REMARK    2  A    between atoms: N_4  and  C_12
REMARK                            x       y       z     vdW  Elec       q    Type
REMARK                         _______ _______ _______ _____ _____    ______ ____
ROOT
ATOM      1  C   UNL     1       5.745   4.284  -4.762  0.00  0.00    +0.017 C 
ATOM      2  C   UNL     1       6.458   4.346  -3.386  0.00  0.00    +0.025 C 
ATOM      3  C   UNL     1       5.593   3.419  -2.505  0.00  0.00    +0.088 C 
ATOM      4  N   UNL     1       4.261   3.339  -3.132  0.00  0.00    -0.298 NA
ATOM      5  C   UNL     1       4.257   4.190  -4.340  0.00  0.00    +0.085 C 
ATOM      6  C   UNL     1       3.918   1.950  -3.464  0.00  0.00    +0.105 C 
ENDROOT
BRANCH   3   7
ATOM      7  C   UNL     1       5.474   3.995  -1.118  0.00  0.00    -0.012 A 
ATOM      8  C   UNL     1       4.233   4.147  -0.528  0.00  0.00    +0.115 A 
ATOM      9  N   UNL     1       4.121   4.650   0.686  0.00  0.00    -0.263 NA
ATOM     10  C   UNL     1       5.176   5.026   1.382  0.00  0.00    +0.111 A 
ATOM     11  C   UNL     1       6.449   4.903   0.857  0.00  0.00    +0.020 A 
ATOM     12  C   UNL     1       6.607   4.373  -0.414  0.00  0.00    +0.008 A 
ENDBRANCH   3   7
TORSDOF 1
ENDMDL
MODEL 7
REMARK VINA RESULT:    -3.557      3.097      4.663
REMARK INTER + INTRA:          -4.017
REMARK INTER:                  -3.762
REMARK INTRA:                  -0.255
REMARK UNBOUND:                -0.251
REMARK  Name = Nicotine.pdb
REMARK  2 active torsions:
REMARK  status: ('A' for Active; 'I' for Inactive)
REMARK    1  A    between atoms: C_3  and  C_6
REMARK    2  A    between atoms: N_4  and  C_12
REMARK                            x       y       z     vdW  Elec       q    Type
REMARK                         _______ _______ _______ _____ _____    ______ ____
ROOT
ATOM      1  C   UNL     1       4.684  -1.208  -1.969  0.00  0.00    +0.017 C 
ATOM      2  C   UNL     1       3.838  -0.100  -1.288  0.00  0.00    +0.025 C 
ATOM      3  C   UNL     1       4.502   1.201  -1.788  0.00  0.00    +0.088 C 
ATOM      4  N   UNL     1       5.878   0.860  -2.194  0.00  0.00    -0.298 NA
ATOM      5  C   UNL     1       6.100  -0.580  -1.945  0.00  0.00    +0.085 C 
ATOM      6  C   UNL     1       6.108   1.192  -3.606  0.00  0.00    +0.105 C 
ENDROOT
BRANCH   3   7
ATOM      7  C   UNL     1       4.531   2.221  -0.680  0.00  0.00    -0.012 A 
ATOM      8  C   UNL     1       4.804   3.547  -0.957  0.00  0.00    +0.115 A 
ATOM      9  N   UNL     1       4.831   4.446   0.007  0.00  0.00    -0.263 NA
ATOM     10  C   UNL     1       4.602   4.122   1.264  0.00  0.00    +0.111 A 
ATOM     11  C   UNL     1       4.321   2.815   1.618  0.00  0.00    +0.020 A 
ATOM     12  C   UNL     1       4.279   1.843   0.630  0.00  0.00    +0.008 A 
ENDBRANCH   3   7
TORSDOF 1
ENDMDL
MODEL 8
REMARK VINA RESULT:    -3.526      2.216      3.118
REMARK INTER + INTRA:          -3.983
REMARK INTER:                  -3.784
REMARK INTRA:                  -0.199
REMARK UNBOUND:                -0.251
REMARK  Name = Nicotine.pdb
REMARK  2 active torsions:
REMARK  status: ('A' for Active; 'I' for Inactive)
REMARK    1  A    between atoms: C_3  and  C_6
REMARK    2  A    between atoms: N_4  and  C_12
REMARK                            x       y       z     vdW  Elec       q    Type
REMARK                         _______ _______ _______ _____ _____    ______ ____
ROOT
ATOM      1  C   UNL     1       4.211   4.386   0.012  0.00  0.00    +0.017 C 
ATOM      2  C   UNL     1       5.123   4.852   1.179  0.00  0.00    +0.025 C 
ATOM      3  C   UNL     1       6.216   3.763   1.220  0.00  0.00    +0.088 C 
ATOM      4  N   UNL     1       5.659   2.559   0.578  0.00  0.00    -0.298 NA
ATOM      5  C   UNL     1       4.268   2.846   0.167  0.00  0.00    +0.085 C 
ATOM      6  C   UNL     1       6.475   2.149  -0.572  0.00  0.00    +0.105 C 
ENDROOT
BRANCH   3   7
ATOM      7  C   UNL     1       6.584   3.460   2.650  0.00  0.00    -0.012 A 
ATOM      8  C   UNL     1       5.598   3.256   3.597  0.00  0.00    +0.115 A 
ATOM      9  N   UNL     1       5.911   2.990   4.850  0.00  0.00    -0.263 NA
ATOM     10  C   UNL     1       7.165   2.909   5.249  0.00  0.00    +0.111 A 
ATOM     11  C   UNL     1       8.205   3.102   4.358  0.00  0.00    +0.020 A 
ATOM     12  C   UNL     1       7.914   3.378   3.031  0.00  0.00    +0.008 A 
ENDBRANCH   3   7
TORSDOF 1
ENDMDL
MODEL 9
REMARK VINA RESULT:    -3.428      3.320      4.397
REMARK INTER + INTRA:          -3.880
REMARK INTER:                  -3.624
REMARK INTRA:                  -0.256
REMARK UNBOUND:                -0.251
REMARK  Name = Nicotine.pdb
REMARK  2 active torsions:
REMARK  status: ('A' for Active; 'I' for Inactive)
REMARK    1  A    between atoms: C_3  and  C_6
REMARK    2  A    between atoms: N_4  and  C_12
REMARK                            x       y       z     vdW  Elec       q    Type
REMARK                         _______ _______ _______ _____ _____    ______ ____
ROOT
ATOM      1  C   UNL     1       4.277   4.072   0.430  0.00  0.00    +0.017 C 
ATOM      2  C   UNL     1       4.626   2.572   0.616  0.00  0.00    +0.025 C 
ATOM      3  C   UNL     1       5.466   2.253  -0.638  0.00  0.00    +0.088 C 
ATOM      4  N   UNL     1       5.123   3.257  -1.661  0.00  0.00    -0.298 NA
ATOM      5  C   UNL     1       4.095   4.162  -1.106  0.00  0.00    +0.085 C 
ATOM      6  C   UNL     1       6.313   4.006  -2.084  0.00  0.00    +0.105 C 
ENDROOT
BRANCH   3   7
ATOM      7  C   UNL     1       5.133   0.872  -1.141  0.00  0.00    -0.012 A 
ATOM      8  C   UNL     1       5.983   0.221  -2.014  0.00  0.00    +0.115 A 
ATOM      9  N   UNL     1       5.699  -0.987  -2.459  0.00  0.00    -0.263 NA
ATOM     10  C   UNL     1       4.601  -1.620  -2.093  0.00  0.00    +0.111 A 
ATOM     11  C   UNL     1       3.703  -1.032  -1.222  0.00  0.00    +0.020 A 
ATOM     12  C   UNL     1       3.971   0.236  -0.729  0.00  0.00    +0.008 A 
ENDBRANCH   3   7
TORSDOF 1
ENDMDL
MODEL 10
REMARK VINA RESULT:    -3.341      1.928      3.078
REMARK INTER + INTRA:          -3.788
REMARK INTER:                  -3.564
REMARK INTRA:                  -0.224
REMARK UNBOUND:                -0.251
REMARK  Name = Nicotine.pdb
REMARK  2 active torsions:
REMARK  status: ('A' for Active; 'I' for Inactive)
REMARK    1  A    between atoms: C_3  and  C_6
REMARK    2  A    between atoms: N_4  and  C_12
REMARK                            x       y       z     vdW  Elec       q    Type
REMARK                         _______ _______ _______ _____ _____    ______ ____
ROOT
ATOM      1  C   UNL     1       4.272   0.533  -1.407  0.00  0.00    +0.017 C 
ATOM      2  C   UNL     1       4.042   0.797   0.104  0.00  0.00    +0.025 C 
ATOM      3  C   UNL     1       4.390   2.293   0.252  0.00  0.00    +0.088 C 
ATOM      4  N   UNL     1       5.262   2.653  -0.880  0.00  0.00    -0.298 NA
ATOM      5  C   UNL     1       5.488   1.445  -1.703  0.00  0.00    +0.085 C 
ATOM      6  C   UNL     1       4.670   3.732  -1.680  0.00  0.00    +0.105 C 
ENDROOT
BRANCH   3   7
ATOM      7  C   UNL     1       5.114   2.525   1.553  0.00  0.00    -0.012 A 
ATOM      8  C   UNL     1       6.366   3.109   1.561  0.00  0.00    +0.115 A 
ATOM      9  N   UNL     1       7.007   3.316   2.695  0.00  0.00    -0.263 NA
ATOM     10  C   UNL     1       6.485   2.977   3.858  0.00  0.00    +0.111 A 
ATOM     11  C   UNL     1       5.237   2.388   3.928  0.00  0.00    +0.020 A 
ATOM     12  C   UNL     1       4.531   2.160   2.757  0.00  0.00    +0.008 A 
ENDBRANCH   3   7
TORSDOF 1
ENDMDL
