MODEL 1
REMARK VINA RESULT:    -4.591      0.000      0.000
REMARK INTER + INTRA:          -5.065
REMARK INTER:                  -4.860
REMARK INTRA:                  -0.205
REMARK UNBOUND:                -0.205
REMARK  Name = Nicotine.pdb
REMARK  2 active torsions:
REMARK  status: ('A' for Active; 'I' for Inactive)
REMARK    1  A    between atoms: C_3  and  C_6
REMARK    2  A    between atoms: N_4  and  C_12
REMARK                            x       y       z     vdW  Elec       q    Type
REMARK                         _______ _______ _______ _____ _____    ______ ____
ROOT
ATOM      1  C   UNL     1      -2.452  -4.241  -4.256  0.00  0.00    +0.017 C 
ATOM      2  C   UNL     1      -2.919  -3.103  -3.310  0.00  0.00    +0.025 C 
ATOM      3  C   UNL     1      -4.007  -2.388  -4.139  0.00  0.00    +0.088 C 
ATOM      4  N   UNL     1      -3.754  -2.704  -5.557  0.00  0.00    -0.298 NA
ATOM      5  C   UNL     1      -2.550  -3.557  -5.642  0.00  0.00    +0.085 C 
ATOM      6  C   UNL     1      -4.915  -3.368  -6.164  0.00  0.00    +0.105 C 
ENDROOT
BRANCH   3   7
ATOM      7  C   UNL     1      -3.922  -0.899  -3.921  0.00  0.00    -0.012 A 
ATOM      8  C   UNL     1      -4.408  -0.335  -2.757  0.00  0.00    +0.115 A 
ATOM      9  N   UNL     1      -4.338   0.967  -2.558  0.00  0.00    -0.263 NA
ATOM     10  C   UNL     1      -3.807   1.777  -3.453  0.00  0.00    +0.111 A 
ATOM     11  C   UNL     1      -3.299   1.285  -4.641  0.00  0.00    +0.020 A 
ATOM     12  C   UNL     1      -3.351  -0.080  -4.883  0.00  0.00    +0.008 A 
ENDBRANCH   3   7
TORSDOF 1
ENDMDL
MODEL 2
REMARK VINA RESULT:    -4.574      1.309      1.880
REMARK INTER + INTRA:          -5.046
REMARK INTER:                  -4.826
REMARK INTRA:                  -0.220
REMARK UNBOUND:                -0.205
REMARK  Name = Nicotine.pdb
REMARK  2 active torsions:
REMARK  status: ('A' for Active; 'I' for Inactive)
REMARK    1  A    between atoms: C_3  and  C_6
REMARK    2  A    between atoms: N_4  and  C_12
REMARK                            x       y       z     vdW  Elec       q    Type
REMARK                         _______ _______ _______ _____ _____    ______ ____
ROOT
ATOM      1  C   UNL     1      -2.561  -4.741  -5.028  0.00  0.00    +0.017 C 
ATOM      2  C   UNL     1      -2.253  -3.224  -4.924  0.00  0.00    +0.025 C 
ATOM      3  C   UNL     1      -2.903  -2.829  -3.581  0.00  0.00    +0.088 C 
ATOM      4  N   UNL     1      -3.936  -3.837  -3.282  0.00  0.00    -0.298 NA
ATOM      5  C   UNL     1      -3.970  -4.819  -4.388  0.00  0.00    +0.085 C 
ATOM      6  C   UNL     1      -3.671  -4.498  -1.998  0.00  0.00    +0.105 C 
ENDROOT
BRANCH   3   7
ATOM      7  C   UNL     1      -3.535  -1.466  -3.699  0.00  0.00    -0.012 A 
ATOM      8  C   UNL     1      -4.460  -1.041  -2.765  0.00  0.00    +0.115 A 
ATOM      9  N   UNL     1      -5.017   0.151  -2.861  0.00  0.00    -0.263 NA
ATOM     10  C   UNL     1      -4.719   0.979  -3.842  0.00  0.00    +0.111 A 
ATOM     11  C   UNL     1      -3.802   0.623  -4.814  0.00  0.00    +0.020 A 
ATOM     12  C   UNL     1      -3.191  -0.620  -4.743  0.00  0.00    +0.008 A 
ENDBRANCH   3   7
TORSDOF 1
ENDMDL
MODEL 3
REMARK VINA RESULT:    -3.954      1.447      4.572
REMARK INTER + INTRA:          -4.390
REMARK INTER:                  -4.174
REMARK INTRA:                  -0.216
REMARK UNBOUND:                -0.205
REMARK  Name = Nicotine.pdb
REMARK  2 active torsions:
REMARK  status: ('A' for Active; 'I' for Inactive)
REMARK    1  A    between atoms: C_3  and  C_6
REMARK    2  A    between atoms: N_4  and  C_12
REMARK                            x       y       z     vdW  Elec       q    Type
REMARK                         _______ _______ _______ _____ _____    ______ ____
ROOT
ATOM      1  C   UNL     1      -5.171   0.428  -2.746  0.00  0.00    +0.017 C 
ATOM      2  C   UNL     1      -4.382  -0.872  -2.437  0.00  0.00    +0.025 C 
ATOM      3  C   UNL     1      -3.328  -0.914  -3.564  0.00  0.00    +0.088 C 
ATOM      4  N   UNL     1      -3.842  -0.092  -4.674  0.00  0.00    -0.298 NA
ATOM      5  C   UNL     1      -5.171   0.433  -4.295  0.00  0.00    +0.085 C 
ATOM      6  C   UNL     1      -2.915   1.002  -4.993  0.00  0.00    +0.105 C 
ENDROOT
BRANCH   3   7
ATOM      7  C   UNL     1      -3.128  -2.334  -4.026  0.00  0.00    -0.012 A 
ATOM      8  C   UNL     1      -2.610  -2.595  -5.281  0.00  0.00    +0.115 A 
ATOM      9  N   UNL     1      -2.432  -3.835  -5.693  0.00  0.00    -0.263 NA
ATOM     10  C   UNL     1      -2.737  -4.868  -4.934  0.00  0.00    +0.111 A 
ATOM     11  C   UNL     1      -3.260  -4.686  -3.667  0.00  0.00    +0.020 A 
ATOM     12  C   UNL     1      -3.456  -3.396  -3.197  0.00  0.00    +0.008 A 
ENDBRANCH   3   7
TORSDOF 1
ENDMDL
MODEL 4
REMARK VINA RESULT:    -3.760      1.831      4.868
REMARK INTER + INTRA:          -4.185
REMARK INTER:                  -3.966
REMARK INTRA:                  -0.218
REMARK UNBOUND:                -0.205
REMARK  Name = Nicotine.pdb
REMARK  2 active torsions:
REMARK  status: ('A' for Active; 'I' for Inactive)
REMARK    1  A    between atoms: C_3  and  C_6
REMARK    2  A    between atoms: N_4  and  C_12
REMARK                            x       y       z     vdW  Elec       q    Type
REMARK                         _______ _______ _______ _____ _____    ______ ____
ROOT
ATOM      1  C   UNL     1      -4.252  -3.315  -1.425  0.00  0.00    +0.017 C 
ATOM      2  C   UNL     1      -3.511  -4.223  -2.442  0.00  0.00    +0.025 C 
ATOM      3  C   UNL     1      -3.335  -3.300  -3.667  0.00  0.00    +0.088 C 
ATOM      4  N   UNL     1      -4.358  -2.243  -3.568  0.00  0.00    -0.298 NA
ATOM      5  C   UNL     1      -5.171  -2.486  -2.357  0.00  0.00    +0.085 C 
ATOM      6  C   UNL     1      -3.739  -0.912  -3.529  0.00  0.00    +0.105 C 
ENDROOT
BRANCH   3   7
ATOM      7  C   UNL     1      -3.532  -4.088  -4.935  0.00  0.00    -0.012 A 
ATOM      8  C   UNL     1      -4.288  -3.571  -5.970  0.00  0.00    +0.115 A 
ATOM      9  N   UNL     1      -4.465  -4.255  -7.084  0.00  0.00    -0.263 NA
ATOM     10  C   UNL     1      -3.933  -5.449  -7.256  0.00  0.00    +0.111 A 
ATOM     11  C   UNL     1      -3.163  -6.030  -6.265  0.00  0.00    +0.020 A 
ATOM     12  C   UNL     1      -2.951  -5.339  -5.083  0.00  0.00    +0.008 A 
ENDBRANCH   3   7
TORSDOF 1
ENDMDL
MODEL 5
REMARK VINA RESULT:    -3.623      1.208      4.677
REMARK INTER + INTRA:          -4.040
REMARK INTER:                  -3.845
REMARK INTRA:                  -0.195
REMARK UNBOUND:                -0.205
REMARK  Name = Nicotine.pdb
REMARK  2 active torsions:
REMARK  status: ('A' for Active; 'I' for Inactive)
REMARK    1  A    between atoms: C_3  and  C_6
REMARK    2  A    between atoms: N_4  and  C_12
REMARK                            x       y       z     vdW  Elec       q    Type
REMARK                         _______ _______ _______ _____ _____    ______ ____
ROOT
ATOM      1  C   UNL     1      -4.025   1.797  -4.105  0.00  0.00    +0.017 C 
ATOM      2  C   UNL     1      -4.054   0.461  -4.893  0.00  0.00    +0.025 C 
ATOM      3  C   UNL     1      -4.395  -0.577  -3.802  0.00  0.00    +0.088 C 
ATOM      4  N   UNL     1      -4.014   0.010  -2.505  0.00  0.00    -0.298 NA
ATOM      5  C   UNL     1      -3.432   1.348  -2.747  0.00  0.00    +0.085 C 
ATOM      6  C   UNL     1      -5.171   0.094  -1.604  0.00  0.00    +0.105 C 
ENDROOT
BRANCH   3   7
ATOM      7  C   UNL     1      -3.618  -1.846  -4.040  0.00  0.00    -0.012 A 
ATOM      8  C   UNL     1      -2.858  -1.995  -5.185  0.00  0.00    +0.115 A 
ATOM      9  N   UNL     1      -2.174  -3.102  -5.401  0.00  0.00    -0.263 NA
ATOM     10  C   UNL     1      -2.188  -4.103  -4.543  0.00  0.00    +0.111 A 
ATOM     11  C   UNL     1      -2.925  -4.026  -3.376  0.00  0.00    +0.020 A 
ATOM     12  C   UNL     1      -3.652  -2.875  -3.112  0.00  0.00    +0.008 A 
ENDBRANCH   3   7
TORSDOF 1
ENDMDL
MODEL 6
REMARK VINA RESULT:    -3.037      2.155      2.998
REMARK INTER + INTRA:          -3.420
REMARK INTER:                  -3.202
REMARK INTRA:                  -0.218
REMARK UNBOUND:                -0.205
REMARK  Name = Nicotine.pdb
REMARK  2 active torsions:
REMARK  status: ('A' for Active; 'I' for Inactive)
REMARK    1  A    between atoms: C_3  and  C_6
REMARK    2  A    between atoms: N_4  and  C_12
REMARK                            x       y       z     vdW  Elec       q    Type
REMARK                         _______ _______ _______ _____ _____    ______ ____
ROOT
ATOM      1  C   UNL     1      -2.548  -4.668  -5.742  0.00  0.00    +0.017 C 
ATOM      2  C   UNL     1      -3.250  -4.823  -4.367  0.00  0.00    +0.025 C 
ATOM      3  C   UNL     1      -4.455  -3.865  -4.484  0.00  0.00    +0.088 C 
ATOM      4  N   UNL     1      -4.128  -2.877  -5.527  0.00  0.00    -0.298 NA
ATOM      5  C   UNL     1      -2.772  -3.165  -6.041  0.00  0.00    +0.085 C 
ATOM      6  C   UNL     1      -5.119  -2.907  -6.611  0.00  0.00    +0.105 C 
ENDROOT
BRANCH   3   7
ATOM      7  C   UNL     1      -4.683  -3.167  -3.168  0.00  0.00    -0.012 A 
ATOM      8  C   UNL     1      -4.969  -1.815  -3.135  0.00  0.00    +0.115 A 
ATOM      9  N   UNL     1      -5.171  -1.196  -1.988  0.00  0.00    -0.263 NA
ATOM     10  C   UNL     1      -5.109  -1.834  -0.836  0.00  0.00    +0.111 A 
ATOM     11  C   UNL     1      -4.828  -3.187  -0.790  0.00  0.00    +0.020 A 
ATOM     12  C   UNL     1      -4.615  -3.872  -1.977  0.00  0.00    +0.008 A 
ENDBRANCH   3   7
TORSDOF 1
ENDMDL
MODEL 7
REMARK VINA RESULT:    -2.497      3.230      4.034
REMARK INTER + INTRA:          -2.848
REMARK INTER:                  -2.663
REMARK INTRA:                  -0.185
REMARK UNBOUND:                -0.205
REMARK  Name = Nicotine.pdb
REMARK  2 active torsions:
REMARK  status: ('A' for Active; 'I' for Inactive)
REMARK    1  A    between atoms: C_3  and  C_6
REMARK    2  A    between atoms: N_4  and  C_12
REMARK                            x       y       z     vdW  Elec       q    Type
REMARK                         _______ _______ _______ _____ _____    ______ ____
ROOT
ATOM      1  C   UNL     1      -3.963  -5.970  -6.718  0.00  0.00    +0.017 C 
ATOM      2  C   UNL     1      -4.662  -6.097  -5.338  0.00  0.00    +0.025 C 
ATOM      3  C   UNL     1      -5.140  -4.656  -5.058  0.00  0.00    +0.088 C 
ATOM      4  N   UNL     1      -4.304  -3.752  -5.868  0.00  0.00    -0.298 NA
ATOM      5  C   UNL     1      -3.319  -4.565  -6.614  0.00  0.00    +0.085 C 
ATOM      6  C   UNL     1      -5.128  -2.952  -6.784  0.00  0.00    +0.105 C 
ENDROOT
BRANCH   3   7
ATOM      7  C   UNL     1      -4.974  -4.336  -3.595  0.00  0.00    -0.012 A 
ATOM      8  C   UNL     1      -4.871  -5.353  -2.664  0.00  0.00    +0.115 A 
ATOM      9  N   UNL     1      -4.725  -5.082  -1.382  0.00  0.00    -0.263 NA
ATOM     10  C   UNL     1      -4.672  -3.842  -0.938  0.00  0.00    +0.111 A 
ATOM     11  C   UNL     1      -4.767  -2.773  -1.809  0.00  0.00    +0.020 A 
ATOM     12  C   UNL     1      -4.916  -3.019  -3.165  0.00  0.00    +0.008 A 
ENDBRANCH   3   7
TORSDOF 1
ENDMDL
MODEL 8
REMARK VINA RESULT:    -2.035      1.719      4.366
REMARK INTER + INTRA:          -2.359
REMARK INTER:                  -2.149
REMARK INTRA:                  -0.210
REMARK UNBOUND:                -0.205
REMARK  Name = Nicotine.pdb
REMARK  2 active torsions:
REMARK  status: ('A' for Active; 'I' for Inactive)
REMARK    1  A    between atoms: C_3  and  C_6
REMARK    2  A    between atoms: N_4  and  C_12
REMARK                            x       y       z     vdW  Elec       q    Type
REMARK                         _______ _______ _______ _____ _____    ______ ____
ROOT
ATOM      1  C   UNL     1      -3.883   1.297  -2.314  0.00  0.00    +0.017 C 
ATOM      2  C   UNL     1      -3.339  -0.153  -2.411  0.00  0.00    +0.025 C 
ATOM      3  C   UNL     1      -3.702  -0.564  -3.854  0.00  0.00    +0.088 C 
ATOM      4  N   UNL     1      -4.814   0.301  -4.288  0.00  0.00    -0.298 NA
ATOM      5  C   UNL     1      -5.169   1.206  -3.174  0.00  0.00    +0.085 C 
ATOM      6  C   UNL     1      -4.451   1.062  -5.491  0.00  0.00    +0.105 C 
ENDROOT
BRANCH   3   7
ATOM      7  C   UNL     1      -4.133  -2.008  -3.882  0.00  0.00    -0.012 A 
ATOM      8  C   UNL     1      -4.295  -2.712  -2.704  0.00  0.00    +0.115 A 
ATOM      9  N   UNL     1      -4.671  -3.976  -2.720  0.00  0.00    -0.263 NA
ATOM     10  C   UNL     1      -4.907  -4.615  -3.849  0.00  0.00    +0.111 A 
ATOM     11  C   UNL     1      -4.766  -3.975  -5.067  0.00  0.00    +0.020 A 
ATOM     12  C   UNL     1      -4.377  -2.645  -5.089  0.00  0.00    +0.008 A 
ENDBRANCH   3   7
TORSDOF 1
ENDMDL
