MODEL 1
REMARK VINA RESULT:    -5.112      0.000      0.000
REMARK INTER + INTRA:          -5.659
REMARK INTER:                  -5.411
REMARK INTRA:                  -0.249
REMARK UNBOUND:                -0.249
REMARK  Name = Nicotine.pdb
REMARK  2 active torsions:
REMARK  status: ('A' for Active; 'I' for Inactive)
REMARK    1  A    between atoms: C_3  and  C_6
REMARK    2  A    between atoms: N_4  and  C_12
REMARK                            x       y       z     vdW  Elec       q    Type
REMARK                         _______ _______ _______ _____ _____    ______ ____
ROOT
ATOM      1  C   UNL     1       0.565   5.651  -5.401  0.00  0.00    +0.017 C 
ATOM      2  C   UNL     1      -0.352   5.316  -4.195  0.00  0.00    +0.025 C 
ATOM      3  C   UNL     1      -1.685   4.926  -4.870  0.00  0.00    +0.088 C 
ATOM      4  N   UNL     1      -1.690   5.537  -6.212  0.00  0.00    -0.298 NA
ATOM      5  C   UNL     1      -0.438   6.304  -6.385  0.00  0.00    +0.085 C 
ATOM      6  C   UNL     1      -1.830   4.514  -7.256  0.00  0.00    +0.105 C 
ENDROOT
BRANCH   3   7
ATOM      7  C   UNL     1      -2.842   5.452  -4.061  0.00  0.00    -0.012 A 
ATOM      8  C   UNL     1      -4.139   5.111  -4.394  0.00  0.00    +0.115 A 
ATOM      9  N   UNL     1      -5.158   5.566  -3.692  0.00  0.00    -0.263 NA
ATOM     10  C   UNL     1      -4.984   6.359  -2.653  0.00  0.00    +0.111 A 
ATOM     11  C   UNL     1      -3.715   6.742  -2.259  0.00  0.00    +0.020 A 
ATOM     12  C   UNL     1      -2.620   6.279  -2.971  0.00  0.00    +0.008 A 
ENDBRANCH   3   7
TORSDOF 1
ENDMDL
MODEL 2
REMARK VINA RESULT:    -4.349      1.480      4.371
REMARK INTER + INTRA:          -4.851
REMARK INTER:                  -4.629
REMARK INTRA:                  -0.222
REMARK UNBOUND:                -0.249
REMARK  Name = Nicotine.pdb
REMARK  2 active torsions:
REMARK  status: ('A' for Active; 'I' for Inactive)
REMARK    1  A    between atoms: C_3  and  C_6
REMARK    2  A    between atoms: N_4  and  C_12
REMARK                            x       y       z     vdW  Elec       q    Type
REMARK                         _______ _______ _______ _____ _____    ______ ____
ROOT
ATOM      1  C   UNL     1      -4.417   5.906  -3.147  0.00  0.00    +0.017 C 
ATOM      2  C   UNL     1      -2.977   6.419  -3.411  0.00  0.00    +0.025 C 
ATOM      3  C   UNL     1      -2.992   6.737  -4.921  0.00  0.00    +0.088 C 
ATOM      4  N   UNL     1      -4.083   5.949  -5.522  0.00  0.00    -0.298 NA
ATOM      5  C   UNL     1      -4.722   5.143  -4.460  0.00  0.00    +0.085 C 
ATOM      6  C   UNL     1      -5.062   6.821  -6.183  0.00  0.00    +0.105 C 
ENDROOT
BRANCH   3   7
ATOM      7  C   UNL     1      -1.675   6.348  -5.541  0.00  0.00    -0.012 A 
ATOM      8  C   UNL     1      -1.641   5.532  -6.656  0.00  0.00    +0.115 A 
ATOM      9  N   UNL     1      -0.492   5.187  -7.204  0.00  0.00    -0.263 NA
ATOM     10  C   UNL     1       0.661   5.601  -6.716  0.00  0.00    +0.111 A 
ATOM     11  C   UNL     1       0.706   6.419  -5.603  0.00  0.00    +0.020 A 
ATOM     12  C   UNL     1      -0.482   6.807  -5.003  0.00  0.00    +0.008 A 
ENDBRANCH   3   7
TORSDOF 1
ENDMDL
MODEL 3
REMARK VINA RESULT:    -3.980      1.479      2.654
REMARK INTER + INTRA:          -4.462
REMARK INTER:                  -4.262
REMARK INTRA:                  -0.200
REMARK UNBOUND:                -0.249
REMARK  Name = Nicotine.pdb
REMARK  2 active torsions:
REMARK  status: ('A' for Active; 'I' for Inactive)
REMARK    1  A    between atoms: C_3  and  C_6
REMARK    2  A    between atoms: N_4  and  C_12
REMARK                            x       y       z     vdW  Elec       q    Type
REMARK                         _______ _______ _______ _____ _____    ______ ____
ROOT
ATOM      1  C   UNL     1       0.588   7.012  -5.587  0.00  0.00    +0.017 C 
ATOM      2  C   UNL     1      -0.904   7.028  -5.161  0.00  0.00    +0.025 C 
ATOM      3  C   UNL     1      -1.055   5.709  -4.374  0.00  0.00    +0.088 C 
ATOM      4  N   UNL     1       0.028   4.811  -4.814  0.00  0.00    -0.298 NA
ATOM      5  C   UNL     1       0.821   5.503  -5.852  0.00  0.00    +0.085 C 
ATOM      6  C   UNL     1       0.874   4.411  -3.683  0.00  0.00    +0.105 C 
ENDROOT
BRANCH   3   7
ATOM      7  C   UNL     1      -2.394   5.085  -4.671  0.00  0.00    -0.012 A 
ATOM      8  C   UNL     1      -3.526   5.508  -4.001  0.00  0.00    +0.115 A 
ATOM      9  N   UNL     1      -4.702   4.967  -4.255  0.00  0.00    -0.263 NA
ATOM     10  C   UNL     1      -4.845   4.009  -5.150  0.00  0.00    +0.111 A 
ATOM     11  C   UNL     1      -3.758   3.535  -5.860  0.00  0.00    +0.020 A 
ATOM     12  C   UNL     1      -2.507   4.084  -5.623  0.00  0.00    +0.008 A 
ENDBRANCH   3   7
TORSDOF 1
ENDMDL
MODEL 4
REMARK VINA RESULT:    -3.660      1.444      4.479
REMARK INTER + INTRA:          -4.123
REMARK INTER:                  -3.909
REMARK INTRA:                  -0.214
REMARK UNBOUND:                -0.249
REMARK  Name = Nicotine.pdb
REMARK  2 active torsions:
REMARK  status: ('A' for Active; 'I' for Inactive)
REMARK    1  A    between atoms: C_3  and  C_6
REMARK    2  A    between atoms: N_4  and  C_12
REMARK                            x       y       z     vdW  Elec       q    Type
REMARK                         _______ _______ _______ _____ _____    ______ ____
ROOT
ATOM      1  C   UNL     1      -4.988   3.862  -5.913  0.00  0.00    +0.017 C 
ATOM      2  C   UNL     1      -3.472   3.534  -5.913  0.00  0.00    +0.025 C 
ATOM      3  C   UNL     1      -2.890   4.582  -4.940  0.00  0.00    +0.088 C 
ATOM      4  N   UNL     1      -3.846   5.702  -4.882  0.00  0.00    -0.298 NA
ATOM      5  C   UNL     1      -4.974   5.406  -5.791  0.00  0.00    +0.085 C 
ATOM      6  C   UNL     1      -4.319   5.921  -3.509  0.00  0.00    +0.105 C 
ENDROOT
BRANCH   3   7
ATOM      7  C   UNL     1      -1.558   5.069  -5.448  0.00  0.00    -0.012 A 
ATOM      8  C   UNL     1      -1.289   5.084  -6.803  0.00  0.00    +0.115 A 
ATOM      9  N   UNL     1      -0.126   5.509  -7.256  0.00  0.00    -0.263 NA
ATOM     10  C   UNL     1       0.822   5.932  -6.443  0.00  0.00    +0.111 A 
ATOM     11  C   UNL     1       0.626   5.946  -5.074  0.00  0.00    +0.020 A 
ATOM     12  C   UNL     1      -0.587   5.512  -4.562  0.00  0.00    +0.008 A 
ENDBRANCH   3   7
TORSDOF 1
ENDMDL
MODEL 5
REMARK VINA RESULT:    -2.561      1.634      2.320
REMARK INTER + INTRA:          -2.959
REMARK INTER:                  -2.765
REMARK INTRA:                  -0.194
REMARK UNBOUND:                -0.249
REMARK  Name = Nicotine.pdb
REMARK  2 active torsions:
REMARK  status: ('A' for Active; 'I' for Inactive)
REMARK    1  A    between atoms: C_3  and  C_6
REMARK    2  A    between atoms: N_4  and  C_12
REMARK                            x       y       z     vdW  Elec       q    Type
REMARK                         _______ _______ _______ _____ _____    ______ ____
ROOT
ATOM      1  C   UNL     1       0.831   4.742  -4.320  0.00  0.00    +0.017 C 
ATOM      2  C   UNL     1      -0.682   4.427  -4.457  0.00  0.00    +0.025 C 
ATOM      3  C   UNL     1      -1.110   5.299  -5.657  0.00  0.00    +0.088 C 
ATOM      4  N   UNL     1      -0.124   6.387  -5.781  0.00  0.00    -0.298 NA
ATOM      5  C   UNL     1       0.875   6.243  -4.700  0.00  0.00    +0.085 C 
ATOM      6  C   UNL     1       0.520   6.368  -7.100  0.00  0.00    +0.105 C 
ENDROOT
BRANCH   3   7
ATOM      7  C   UNL     1      -2.481   5.872  -5.411  0.00  0.00    -0.012 A 
ATOM      8  C   UNL     1      -2.764   6.523  -4.225  0.00  0.00    +0.115 A 
ATOM      9  N   UNL     1      -3.961   7.028  -4.001  0.00  0.00    -0.263 NA
ATOM     10  C   UNL     1      -4.930   6.934  -4.890  0.00  0.00    +0.111 A 
ATOM     11  C   UNL     1      -4.721   6.298  -6.100  0.00  0.00    +0.020 A 
ATOM     12  C   UNL     1      -3.473   5.760  -6.373  0.00  0.00    +0.008 A 
ENDBRANCH   3   7
TORSDOF 1
ENDMDL
