MODEL 1
REMARK VINA RESULT:    15.263      0.000      0.000
REMARK INTER + INTRA:          15.900
REMARK INTER:                  16.155
REMARK INTRA:                  -0.255
REMARK UNBOUND:                -0.255
REMARK  Name = Nicotine.pdb
REMARK  2 active torsions:
REMARK  status: ('A' for Active; 'I' for Inactive)
REMARK    1  A    between atoms: C_3  and  C_6
REMARK    2  A    between atoms: N_4  and  C_12
REMARK                            x       y       z     vdW  Elec       q    Type
REMARK                         _______ _______ _______ _____ _____    ______ ____
ROOT
ATOM      1  C   UNL     1      -3.172   1.024  -6.930  0.00  0.00    +0.017 C 
ATOM      2  C   UNL     1      -3.980   2.308  -7.254  0.00  0.00    +0.025 C 
ATOM      3  C   UNL     1      -2.898   3.408  -7.256  0.00  0.00    +0.088 C 
ATOM      4  N   UNL     1      -1.765   2.908  -6.457  0.00  0.00    -0.298 NA
ATOM      5  C   UNL     1      -2.107   1.565  -5.943  0.00  0.00    +0.085 C 
ATOM      6  C   UNL     1      -0.533   2.868  -7.256  0.00  0.00    +0.105 C 
ENDROOT
BRANCH   3   7
ATOM      7  C   UNL     1      -3.447   4.668  -6.638  0.00  0.00    -0.012 A 
ATOM      8  C   UNL     1      -2.962   5.904  -7.022  0.00  0.00    +0.115 A 
ATOM      9  N   UNL     1      -3.436   7.011  -6.486  0.00  0.00    -0.263 NA
ATOM     10  C   UNL     1      -4.384   6.987  -5.570  0.00  0.00    +0.111 A 
ATOM     11  C   UNL     1      -4.918   5.788  -5.136  0.00  0.00    +0.020 A 
ATOM     12  C   UNL     1      -4.448   4.603  -5.681  0.00  0.00    +0.008 A 
ENDBRANCH   3   7
TORSDOF 1
ENDMDL
