MODEL 1
REMARK VINA RESULT:     2.318      0.000      0.000
REMARK INTER + INTRA:           2.241
REMARK INTER:                   2.453
REMARK INTRA:                  -0.212
REMARK UNBOUND:                -0.212
REMARK  Name = Nicotine.pdb
REMARK  2 active torsions:
REMARK  status: ('A' for Active; 'I' for Inactive)
REMARK    1  A    between atoms: C_3  and  C_6
REMARK    2  A    between atoms: N_4  and  C_12
REMARK                            x       y       z     vdW  Elec       q    Type
REMARK                         _______ _______ _______ _____ _____    ______ ____
ROOT
ATOM      1  C   UNL     1       9.872   1.925  -4.079  0.00  0.00    +0.017 C 
ATOM      2  C   UNL     1      10.895   0.784  -4.320  0.00  0.00    +0.025 C 
ATOM      3  C   UNL     1      10.616   0.370  -5.780  0.00  0.00    +0.088 C 
ATOM      4  N   UNL     1       9.242   0.799  -6.101  0.00  0.00    -0.298 NA
ATOM      5  C   UNL     1       8.655   1.433  -4.901  0.00  0.00    +0.085 C 
ATOM      6  C   UNL     1       9.232   1.721  -7.244  0.00  0.00    +0.105 C 
ENDROOT
BRANCH   3   7
ATOM      7  C   UNL     1      10.733  -1.125  -5.921  0.00  0.00    -0.012 A 
ATOM      8  C   UNL     1      10.851  -1.926  -4.800  0.00  0.00    +0.115 A 
ATOM      9  N   UNL     1      10.954  -3.236  -4.914  0.00  0.00    -0.263 NA
ATOM     10  C   UNL     1      10.950  -3.831  -6.090  0.00  0.00    +0.111 A 
ATOM     11  C   UNL     1      10.835  -3.096  -7.256  0.00  0.00    +0.020 A 
ATOM     12  C   UNL     1      10.719  -1.717  -7.175  0.00  0.00    +0.008 A 
ENDBRANCH   3   7
TORSDOF 1
ENDMDL
MODEL 2
REMARK VINA RESULT:     2.476      1.243      2.163
REMARK INTER + INTRA:           2.408
REMARK INTER:                   2.622
REMARK INTRA:                  -0.214
REMARK UNBOUND:                -0.212
REMARK  Name = Nicotine.pdb
REMARK  2 active torsions:
REMARK  status: ('A' for Active; 'I' for Inactive)
REMARK    1  A    between atoms: C_3  and  C_6
REMARK    2  A    between atoms: N_4  and  C_12
REMARK                            x       y       z     vdW  Elec       q    Type
REMARK                         _______ _______ _______ _____ _____    ______ ____
ROOT
ATOM      1  C   UNL     1      10.829   2.709  -6.569  0.00  0.00    +0.017 C 
ATOM      2  C   UNL     1      10.697   1.313  -7.232  0.00  0.00    +0.025 C 
ATOM      3  C   UNL     1       9.746   0.562  -6.276  0.00  0.00    +0.088 C 
ATOM      4  N   UNL     1       9.824   1.234  -4.967  0.00  0.00    -0.298 NA
ATOM      5  C   UNL     1      10.795   2.344  -5.063  0.00  0.00    +0.085 C 
ATOM      6  C   UNL     1       8.504   1.723  -4.546  0.00  0.00    +0.105 C 
ENDROOT
BRANCH   3   7
ATOM      7  C   UNL     1      10.180  -0.874  -6.144  0.00  0.00    -0.012 A 
ATOM      8  C   UNL     1      10.236  -1.693  -7.256  0.00  0.00    +0.115 A 
ATOM      9  N   UNL     1      10.615  -2.952  -7.149  0.00  0.00    -0.263 NA
ATOM     10  C   UNL     1      10.954  -3.477  -5.988  0.00  0.00    +0.111 A 
ATOM     11  C   UNL     1      10.923  -2.719  -4.832  0.00  0.00    +0.020 A 
ATOM     12  C   UNL     1      10.535  -1.390  -4.907  0.00  0.00    +0.008 A 
ENDBRANCH   3   7
TORSDOF 1
ENDMDL
MODEL 3
REMARK VINA RESULT:     3.564      0.788      1.378
REMARK INTER + INTRA:           3.560
REMARK INTER:                   3.808
REMARK INTRA:                  -0.247
REMARK UNBOUND:                -0.212
REMARK  Name = Nicotine.pdb
REMARK  2 active torsions:
REMARK  status: ('A' for Active; 'I' for Inactive)
REMARK    1  A    between atoms: C_3  and  C_6
REMARK    2  A    between atoms: N_4  and  C_12
REMARK                            x       y       z     vdW  Elec       q    Type
REMARK                         _______ _______ _______ _____ _____    ______ ____
ROOT
ATOM      1  C   UNL     1       9.719   1.977  -3.961  0.00  0.00    +0.017 C 
ATOM      2  C   UNL     1      10.747   0.825  -4.113  0.00  0.00    +0.025 C 
ATOM      3  C   UNL     1      10.640   0.459  -5.609  0.00  0.00    +0.088 C 
ATOM      4  N   UNL     1       9.322   0.922  -6.079  0.00  0.00    -0.298 NA
ATOM      5  C   UNL     1       8.603   1.531  -4.939  0.00  0.00    +0.085 C 
ATOM      6  C   UNL     1       9.462   1.877  -7.185  0.00  0.00    +0.105 C 
ENDROOT
BRANCH   3   7
ATOM      7  C   UNL     1      10.752  -1.034  -5.781  0.00  0.00    -0.012 A 
ATOM      8  C   UNL     1      10.804  -1.590  -7.045  0.00  0.00    +0.115 A 
ATOM      9  N   UNL     1      10.902  -2.895  -7.204  0.00  0.00    -0.263 NA
ATOM     10  C   UNL     1      10.954  -3.717  -6.175  0.00  0.00    +0.111 A 
ATOM     11  C   UNL     1      10.908  -3.234  -4.880  0.00  0.00    +0.020 A 
ATOM     12  C   UNL     1      10.810  -1.866  -4.674  0.00  0.00    +0.008 A 
ENDBRANCH   3   7
TORSDOF 1
ENDMDL
