MODEL 1
REMARK VINA RESULT:    -2.974      0.000      0.000
REMARK INTER + INTRA:          -3.362
REMARK INTER:                  -3.148
REMARK INTRA:                  -0.214
REMARK UNBOUND:                -0.214
REMARK  Name = Nicotine.pdb
REMARK  2 active torsions:
REMARK  status: ('A' for Active; 'I' for Inactive)
REMARK    1  A    between atoms: C_3  and  C_6
REMARK    2  A    between atoms: N_4  and  C_12
REMARK                            x       y       z     vdW  Elec       q    Type
REMARK                         _______ _______ _______ _____ _____    ______ ____
ROOT
ATOM      1  C   UNL     1      -5.150   6.920   3.174  0.00  0.00    +0.017 C 
ATOM      2  C   UNL     1      -4.661   6.638   1.729  0.00  0.00    +0.025 C 
ATOM      3  C   UNL     1      -3.415   5.753   1.951  0.00  0.00    +0.088 C 
ATOM      4  N   UNL     1      -2.935   6.011   3.320  0.00  0.00    -0.298 NA
ATOM      5  C   UNL     1      -3.809   7.028   3.942  0.00  0.00    +0.085 C 
ATOM      6  C   UNL     1      -2.918   4.775   4.113  0.00  0.00    +0.105 C 
ENDROOT
BRANCH   3   7
ATOM      7  C   UNL     1      -2.345   6.116   0.954  0.00  0.00    -0.012 A 
ATOM      8  C   UNL     1      -2.542   5.893  -0.396  0.00  0.00    +0.115 A 
ATOM      9  N   UNL     1      -1.610   6.208  -1.274  0.00  0.00    -0.263 NA
ATOM     10  C   UNL     1      -0.463   6.743  -0.906  0.00  0.00    +0.111 A 
ATOM     11  C   UNL     1      -0.194   6.995   0.426  0.00  0.00    +0.020 A 
ATOM     12  C   UNL     1      -1.152   6.683   1.378  0.00  0.00    +0.008 A 
ENDBRANCH   3   7
TORSDOF 1
ENDMDL
MODEL 2
REMARK VINA RESULT:    -2.733      1.364      4.535
REMARK INTER + INTRA:          -3.106
REMARK INTER:                  -2.886
REMARK INTRA:                  -0.220
REMARK UNBOUND:                -0.214
REMARK  Name = Nicotine.pdb
REMARK  2 active torsions:
REMARK  status: ('A' for Active; 'I' for Inactive)
REMARK    1  A    between atoms: C_3  and  C_6
REMARK    2  A    between atoms: N_4  and  C_12
REMARK                            x       y       z     vdW  Elec       q    Type
REMARK                         _______ _______ _______ _____ _____    ______ ____
ROOT
ATOM      1  C   UNL     1      -2.575   6.247  -0.822  0.00  0.00    +0.017 C 
ATOM      2  C   UNL     1      -3.539   6.756   0.282  0.00  0.00    +0.025 C 
ATOM      3  C   UNL     1      -2.595   7.007   1.478  0.00  0.00    +0.088 C 
ATOM      4  N   UNL     1      -1.389   6.187   1.262  0.00  0.00    -0.298 NA
ATOM      5  C   UNL     1      -1.556   5.426   0.006  0.00  0.00    +0.085 C 
ATOM      6  C   UNL     1      -0.184   7.025   1.214  0.00  0.00    +0.105 C 
ENDROOT
BRANCH   3   7
ATOM      7  C   UNL     1      -3.272   6.598   2.760  0.00  0.00    -0.012 A 
ATOM      8  C   UNL     1      -2.615   5.794   3.672  0.00  0.00    +0.115 A 
ATOM      9  N   UNL     1      -3.200   5.432   4.797  0.00  0.00    -0.263 NA
ATOM     10  C   UNL     1      -4.425   5.816   5.096  0.00  0.00    +0.111 A 
ATOM     11  C   UNL     1      -5.145   6.621   4.232  0.00  0.00    +0.020 A 
ATOM     12  C   UNL     1      -4.560   7.026   3.043  0.00  0.00    +0.008 A 
ENDBRANCH   3   7
TORSDOF 1
ENDMDL
MODEL 3
REMARK VINA RESULT:    -2.474      1.487      4.737
REMARK INTER + INTRA:          -2.832
REMARK INTER:                  -2.632
REMARK INTRA:                  -0.200
REMARK UNBOUND:                -0.214
REMARK  Name = Nicotine.pdb
REMARK  2 active torsions:
REMARK  status: ('A' for Active; 'I' for Inactive)
REMARK    1  A    between atoms: C_3  and  C_6
REMARK    2  A    between atoms: N_4  and  C_12
REMARK                            x       y       z     vdW  Elec       q    Type
REMARK                         _______ _______ _______ _____ _____    ______ ____
ROOT
ATOM      1  C   UNL     1      -1.455   5.505  -0.045  0.00  0.00    +0.017 C 
ATOM      2  C   UNL     1      -2.117   4.908   1.225  0.00  0.00    +0.025 C 
ATOM      3  C   UNL     1      -3.453   5.675   1.314  0.00  0.00    +0.088 C 
ATOM      4  N   UNL     1      -3.286   6.931   0.561  0.00  0.00    -0.298 NA
ATOM      5  C   UNL     1      -1.906   6.985   0.034  0.00  0.00    +0.085 C 
ATOM      6  C   UNL     1      -4.269   7.028  -0.526  0.00  0.00    +0.105 C 
ENDROOT
BRANCH   3   7
ATOM      7  C   UNL     1      -3.774   5.979   2.755  0.00  0.00    -0.012 A 
ATOM      8  C   UNL     1      -2.934   5.548   3.764  0.00  0.00    +0.115 A 
ATOM      9  N   UNL     1      -3.209   5.810   5.027  0.00  0.00    -0.263 NA
ATOM     10  C   UNL     1      -4.285   6.486   5.377  0.00  0.00    +0.111 A 
ATOM     11  C   UNL     1      -5.171   6.949   4.423  0.00  0.00    +0.020 A 
ATOM     12  C   UNL     1      -4.913   6.698   3.084  0.00  0.00    +0.008 A 
ENDBRANCH   3   7
TORSDOF 1
ENDMDL
MODEL 4
REMARK VINA RESULT:    -1.466      1.566      2.495
REMARK INTER + INTRA:          -1.765
REMARK INTER:                  -1.550
REMARK INTRA:                  -0.216
REMARK UNBOUND:                -0.214
REMARK  Name = Nicotine.pdb
REMARK  2 active torsions:
REMARK  status: ('A' for Active; 'I' for Inactive)
REMARK    1  A    between atoms: C_3  and  C_6
REMARK    2  A    between atoms: N_4  and  C_12
REMARK                            x       y       z     vdW  Elec       q    Type
REMARK                         _______ _______ _______ _____ _____    ______ ____
ROOT
ATOM      1  C   UNL     1      -3.043   4.942   3.218  0.00  0.00    +0.017 C 
ATOM      2  C   UNL     1      -1.719   5.739   3.082  0.00  0.00    +0.025 C 
ATOM      3  C   UNL     1      -1.995   6.668   1.880  0.00  0.00    +0.088 C 
ATOM      4  N   UNL     1      -3.078   6.053   1.092  0.00  0.00    -0.298 NA
ATOM      5  C   UNL     1      -3.464   4.779   1.736  0.00  0.00    +0.085 C 
ATOM      6  C   UNL     1      -4.229   6.958   0.982  0.00  0.00    +0.105 C 
ENDROOT
BRANCH   3   7
ATOM      7  C   UNL     1      -0.754   6.796   1.036  0.00  0.00    -0.012 A 
ATOM      8  C   UNL     1      -0.849   6.869  -0.341  0.00  0.00    +0.115 A 
ATOM      9  N   UNL     1       0.232   6.981  -1.087  0.00  0.00    -0.263 NA
ATOM     10  C   UNL     1       1.438   7.028  -0.557  0.00  0.00    +0.111 A 
ATOM     11  C   UNL     1       1.612   6.961   0.813  0.00  0.00    +0.020 A 
ATOM     12  C   UNL     1       0.498   6.848   1.630  0.00  0.00    +0.008 A 
ENDBRANCH   3   7
TORSDOF 1
ENDMDL
MODEL 5
REMARK VINA RESULT:    -0.958      2.201      3.854
REMARK INTER + INTRA:          -1.228
REMARK INTER:                  -1.043
REMARK INTRA:                  -0.185
REMARK UNBOUND:                -0.214
REMARK  Name = Nicotine.pdb
REMARK  2 active torsions:
REMARK  status: ('A' for Active; 'I' for Inactive)
REMARK    1  A    between atoms: C_3  and  C_6
REMARK    2  A    between atoms: N_4  and  C_12
REMARK                            x       y       z     vdW  Elec       q    Type
REMARK                         _______ _______ _______ _____ _____    ______ ____
ROOT
ATOM      1  C   UNL     1      -1.333   5.711   1.514  0.00  0.00    +0.017 C 
ATOM      2  C   UNL     1      -0.741   6.569   0.364  0.00  0.00    +0.025 C 
ATOM      3  C   UNL     1      -1.996   7.027  -0.408  0.00  0.00    +0.088 C 
ATOM      4  N   UNL     1      -3.075   6.073  -0.095  0.00  0.00    -0.298 NA
ATOM      5  C   UNL     1      -2.539   5.037   0.812  0.00  0.00    +0.085 C 
ATOM      6  C   UNL     1      -4.225   6.758   0.510  0.00  0.00    +0.105 C 
ENDROOT
BRANCH   3   7
ATOM      7  C   UNL     1      -1.718   7.020  -1.889  0.00  0.00    -0.012 A 
ATOM      8  C   UNL     1      -0.417   7.028  -2.356  0.00  0.00    +0.115 A 
ATOM      9  N   UNL     1      -0.165   7.021  -3.650  0.00  0.00    -0.263 NA
ATOM     10  C   UNL     1      -1.133   7.008  -4.545  0.00  0.00    +0.111 A 
ATOM     11  C   UNL     1      -2.459   6.999  -4.153  0.00  0.00    +0.020 A 
ATOM     12  C   UNL     1      -2.763   7.000  -2.801  0.00  0.00    +0.008 A 
ENDBRANCH   3   7
TORSDOF 1
ENDMDL
MODEL 6
REMARK VINA RESULT:    -0.672      2.244      4.022
REMARK INTER + INTRA:          -0.925
REMARK INTER:                  -0.725
REMARK INTRA:                  -0.200
REMARK UNBOUND:                -0.214
REMARK  Name = Nicotine.pdb
REMARK  2 active torsions:
REMARK  status: ('A' for Active; 'I' for Inactive)
REMARK    1  A    between atoms: C_3  and  C_6
REMARK    2  A    between atoms: N_4  and  C_12
REMARK                            x       y       z     vdW  Elec       q    Type
REMARK                         _______ _______ _______ _____ _____    ______ ____
ROOT
ATOM      1  C   UNL     1      -2.485   6.029   1.341  0.00  0.00    +0.017 C 
ATOM      2  C   UNL     1      -1.334   6.963   0.883  0.00  0.00    +0.025 C 
ATOM      3  C   UNL     1      -1.507   7.002  -0.650  0.00  0.00    +0.088 C 
ATOM      4  N   UNL     1      -2.260   5.794  -1.036  0.00  0.00    -0.298 NA
ATOM      5  C   UNL     1      -2.535   5.002   0.182  0.00  0.00    +0.085 C 
ATOM      6  C   UNL     1      -3.506   6.148  -1.727  0.00  0.00    +0.105 C 
ENDROOT
BRANCH   3   7
ATOM      7  C   UNL     1      -0.157   7.002  -1.319  0.00  0.00    -0.012 A 
ATOM      8  C   UNL     1       0.999   7.006  -0.561  0.00  0.00    +0.115 A 
ATOM      9  N   UNL     1       2.184   7.006  -1.139  0.00  0.00    -0.263 NA
ATOM     10  C   UNL     1       2.316   7.002  -2.451  0.00  0.00    +0.111 A 
ATOM     11  C   UNL     1       1.205   6.996  -3.273  0.00  0.00    +0.020 A 
ATOM     12  C   UNL     1      -0.058   6.991  -2.702  0.00  0.00    +0.008 A 
ENDBRANCH   3   7
TORSDOF 1
ENDMDL
