MODEL 1
REMARK VINA RESULT:    -3.881      0.000      0.000
REMARK INTER + INTRA:          -4.286
REMARK INTER:                  -4.108
REMARK INTRA:                  -0.178
REMARK UNBOUND:                -0.178
REMARK  Name = Nicotine.pdb
REMARK  2 active torsions:
REMARK  status: ('A' for Active; 'I' for Inactive)
REMARK    1  A    between atoms: C_3  and  C_6
REMARK    2  A    between atoms: N_4  and  C_12
REMARK                            x       y       z     vdW  Elec       q    Type
REMARK                         _______ _______ _______ _____ _____    ______ ____
ROOT
ATOM      1  C   UNL     1       7.170   1.456   6.043  0.00  0.00    +0.017 C 
ATOM      2  C   UNL     1       7.248   2.194   4.680  0.00  0.00    +0.025 C 
ATOM      3  C   UNL     1       7.780   1.105   3.725  0.00  0.00    +0.088 C 
ATOM      4  N   UNL     1       8.467   0.096   4.552  0.00  0.00    -0.298 NA
ATOM      5  C   UNL     1       8.406   0.525   5.966  0.00  0.00    +0.085 C 
ATOM      6  C   UNL     1       7.862  -1.230   4.377  0.00  0.00    +0.105 C 
ENDROOT
BRANCH   3   7
ATOM      7  C   UNL     1       8.749   1.712   2.744  0.00  0.00    -0.012 A 
ATOM      8  C   UNL     1      10.099   1.765   3.037  0.00  0.00    +0.115 A 
ATOM      9  N   UNL     1      10.954   2.295   2.184  0.00  0.00    -0.263 NA
ATOM     10  C   UNL     1      10.561   2.791   1.027  0.00  0.00    +0.111 A 
ATOM     11  C   UNL     1       9.227   2.773   0.666  0.00  0.00    +0.020 A 
ATOM     12  C   UNL     1       8.300   2.219   1.535  0.00  0.00    +0.008 A 
ENDBRANCH   3   7
TORSDOF 1
ENDMDL
MODEL 2
REMARK VINA RESULT:    -3.720      1.421      4.396
REMARK INTER + INTRA:          -4.115
REMARK INTER:                  -3.893
REMARK INTRA:                  -0.222
REMARK UNBOUND:                -0.178
REMARK  Name = Nicotine.pdb
REMARK  2 active torsions:
REMARK  status: ('A' for Active; 'I' for Inactive)
REMARK    1  A    between atoms: C_3  and  C_6
REMARK    2  A    between atoms: N_4  and  C_12
REMARK                            x       y       z     vdW  Elec       q    Type
REMARK                         _______ _______ _______ _____ _____    ______ ____
ROOT
ATOM      1  C   UNL     1       9.083   3.033   0.605  0.00  0.00    +0.017 C 
ATOM      2  C   UNL     1       8.354   2.125   1.631  0.00  0.00    +0.025 C 
ATOM      3  C   UNL     1       9.149   2.364   2.932  0.00  0.00    +0.088 C 
ATOM      4  N   UNL     1      10.483   2.858   2.545  0.00  0.00    -0.298 NA
ATOM      5  C   UNL     1      10.556   2.909   1.070  0.00  0.00    +0.085 C 
ATOM      6  C   UNL     1      10.748   4.177   3.133  0.00  0.00    +0.105 C 
ENDROOT
BRANCH   3   7
ATOM      7  C   UNL     1       9.280   1.073   3.697  0.00  0.00    -0.012 A 
ATOM      8  C   UNL     1      10.518   0.643   4.136  0.00  0.00    +0.115 A 
ATOM      9  N   UNL     1      10.642  -0.486   4.807  0.00  0.00    -0.263 NA
ATOM     10  C   UNL     1       9.600  -1.245   5.083  0.00  0.00    +0.111 A 
ATOM     11  C   UNL     1       8.330  -0.880   4.676  0.00  0.00    +0.020 A 
ATOM     12  C   UNL     1       8.160   0.303   3.974  0.00  0.00    +0.008 A 
ENDBRANCH   3   7
TORSDOF 1
ENDMDL
MODEL 3
REMARK VINA RESULT:    -3.610      2.599      4.106
REMARK INTER + INTRA:          -3.999
REMARK INTER:                  -3.815
REMARK INTRA:                  -0.184
REMARK UNBOUND:                -0.178
REMARK  Name = Nicotine.pdb
REMARK  2 active torsions:
REMARK  status: ('A' for Active; 'I' for Inactive)
REMARK    1  A    between atoms: C_3  and  C_6
REMARK    2  A    between atoms: N_4  and  C_12
REMARK                            x       y       z     vdW  Elec       q    Type
REMARK                         _______ _______ _______ _____ _____    ______ ____
ROOT
ATOM      1  C   UNL     1       8.065   1.662   2.230  0.00  0.00    +0.017 C 
ATOM      2  C   UNL     1       8.556   2.474   1.003  0.00  0.00    +0.025 C 
ATOM      3  C   UNL     1       9.889   3.076   1.496  0.00  0.00    +0.088 C 
ATOM      4  N   UNL     1       9.841   3.093   2.969  0.00  0.00    -0.298 NA
ATOM      5  C   UNL     1       8.535   2.555   3.405  0.00  0.00    +0.085 C 
ATOM      6  C   UNL     1      10.949   2.317   3.542  0.00  0.00    +0.105 C 
ENDROOT
BRANCH   3   7
ATOM      7  C   UNL     1      10.043   4.480   0.971  0.00  0.00    -0.012 A 
ATOM      8  C   UNL     1       9.389   4.870  -0.183  0.00  0.00    +0.115 A 
ATOM      9  N   UNL     1       9.519   6.096  -0.650  0.00  0.00    -0.263 NA
ATOM     10  C   UNL     1      10.270   6.993  -0.043  0.00  0.00    +0.111 A 
ATOM     11  C   UNL     1      10.954   6.676   1.116  0.00  0.00    +0.020 A 
ATOM     12  C   UNL     1      10.838   5.398   1.640  0.00  0.00    +0.008 A 
ENDBRANCH   3   7
TORSDOF 1
ENDMDL
MODEL 4
REMARK VINA RESULT:    -3.566      1.926      2.385
REMARK INTER + INTRA:          -3.953
REMARK INTER:                  -3.765
REMARK INTRA:                  -0.187
REMARK UNBOUND:                -0.178
REMARK  Name = Nicotine.pdb
REMARK  2 active torsions:
REMARK  status: ('A' for Active; 'I' for Inactive)
REMARK    1  A    between atoms: C_3  and  C_6
REMARK    2  A    between atoms: N_4  and  C_12
REMARK                            x       y       z     vdW  Elec       q    Type
REMARK                         _______ _______ _______ _____ _____    ______ ____
ROOT
ATOM      1  C   UNL     1       7.741   0.948   4.278  0.00  0.00    +0.017 C 
ATOM      2  C   UNL     1       7.922   1.788   2.986  0.00  0.00    +0.025 C 
ATOM      3  C   UNL     1       9.456   1.862   2.833  0.00  0.00    +0.088 C 
ATOM      4  N   UNL     1      10.040   1.620   4.164  0.00  0.00    -0.298 NA
ATOM      5  C   UNL     1       8.941   1.426   5.133  0.00  0.00    +0.085 C 
ATOM      6  C   UNL     1      10.936   0.456   4.144  0.00  0.00    +0.105 C 
ENDROOT
BRANCH   3   7
ATOM      7  C   UNL     1       9.857   3.226   2.336  0.00  0.00    -0.012 A 
ATOM      8  C   UNL     1      10.284   4.196   3.223  0.00  0.00    +0.115 A 
ATOM      9  N   UNL     1      10.636   5.393   2.797  0.00  0.00    -0.263 NA
ATOM     10  C   UNL     1      10.596   5.713   1.518  0.00  0.00    +0.111 A 
ATOM     11  C   UNL     1      10.180   4.795   0.572  0.00  0.00    +0.020 A 
ATOM     12  C   UNL     1       9.807   3.524   0.983  0.00  0.00    +0.008 A 
ENDBRANCH   3   7
TORSDOF 1
ENDMDL
MODEL 5
REMARK VINA RESULT:    -3.535     10.702     12.290
REMARK INTER + INTRA:          -3.919
REMARK INTER:                  -3.676
REMARK INTRA:                  -0.243
REMARK UNBOUND:                -0.178
REMARK  Name = Nicotine.pdb
REMARK  2 active torsions:
REMARK  status: ('A' for Active; 'I' for Inactive)
REMARK    1  A    between atoms: C_3  and  C_6
REMARK    2  A    between atoms: N_4  and  C_12
REMARK                            x       y       z     vdW  Elec       q    Type
REMARK                         _______ _______ _______ _____ _____    ______ ____
ROOT
ATOM      1  C   UNL     1      -2.507  -5.716   1.354  0.00  0.00    +0.017 C 
ATOM      2  C   UNL     1      -1.770  -5.055   2.549  0.00  0.00    +0.025 C 
ATOM      3  C   UNL     1      -2.723  -3.913   2.957  0.00  0.00    +0.088 C 
ATOM      4  N   UNL     1      -3.565  -3.607   1.786  0.00  0.00    -0.298 NA
ATOM      5  C   UNL     1      -3.158  -4.487   0.671  0.00  0.00    +0.085 C 
ATOM      6  C   UNL     1      -4.989  -3.779   2.101  0.00  0.00    +0.105 C 
ENDROOT
BRANCH   3   7
ATOM      7  C   UNL     1      -1.927  -2.696   3.350  0.00  0.00    -0.012 A 
ATOM      8  C   UNL     1      -2.567  -1.558   3.803  0.00  0.00    +0.115 A 
ATOM      9  N   UNL     1      -1.877  -0.488   4.150  0.00  0.00    -0.263 NA
ATOM     10  C   UNL     1      -0.561  -0.459   4.079  0.00  0.00    +0.111 A 
ATOM     11  C   UNL     1       0.148  -1.560   3.636  0.00  0.00    +0.020 A 
ATOM     12  C   UNL     1      -0.543  -2.705   3.268  0.00  0.00    +0.008 A 
ENDBRANCH   3   7
TORSDOF 1
ENDMDL
MODEL 6
REMARK VINA RESULT:    -3.483      2.186      5.067
REMARK INTER + INTRA:          -3.865
REMARK INTER:                  -3.649
REMARK INTRA:                  -0.215
REMARK UNBOUND:                -0.178
REMARK  Name = Nicotine.pdb
REMARK  2 active torsions:
REMARK  status: ('A' for Active; 'I' for Inactive)
REMARK    1  A    between atoms: C_3  and  C_6
REMARK    2  A    between atoms: N_4  and  C_12
REMARK                            x       y       z     vdW  Elec       q    Type
REMARK                         _______ _______ _______ _____ _____    ______ ____
ROOT
ATOM      1  C   UNL     1       7.658   2.617   4.308  0.00  0.00    +0.017 C 
ATOM      2  C   UNL     1       6.815   1.712   5.244  0.00  0.00    +0.025 C 
ATOM      3  C   UNL     1       7.640   0.409   5.303  0.00  0.00    +0.088 C 
ATOM      4  N   UNL     1       8.494   0.378   4.102  0.00  0.00    -0.298 NA
ATOM      5  C   UNL     1       8.216   1.586   3.295  0.00  0.00    +0.085 C 
ATOM      6  C   UNL     1       9.914   0.303   4.467  0.00  0.00    +0.105 C 
ENDROOT
BRANCH   3   7
ATOM      7  C   UNL     1       6.717  -0.782   5.308  0.00  0.00    -0.012 A 
ATOM      8  C   UNL     1       7.121  -1.982   4.755  0.00  0.00    +0.115 A 
ATOM      9  N   UNL     1       6.320  -3.030   4.755  0.00  0.00    -0.263 NA
ATOM     10  C   UNL     1       5.111  -2.977   5.278  0.00  0.00    +0.111 A 
ATOM     11  C   UNL     1       4.638  -1.811   5.850  0.00  0.00    +0.020 A 
ATOM     12  C   UNL     1       5.454  -0.690   5.873  0.00  0.00    +0.008 A 
ENDBRANCH   3   7
TORSDOF 1
ENDMDL
MODEL 7
REMARK VINA RESULT:    -3.477      9.958     11.020
REMARK INTER + INTRA:          -3.859
REMARK INTER:                  -3.604
REMARK INTRA:                  -0.255
REMARK UNBOUND:                -0.178
REMARK  Name = Nicotine.pdb
REMARK  2 active torsions:
REMARK  status: ('A' for Active; 'I' for Inactive)
REMARK    1  A    between atoms: C_3  and  C_6
REMARK    2  A    between atoms: N_4  and  C_12
REMARK                            x       y       z     vdW  Elec       q    Type
REMARK                         _______ _______ _______ _____ _____    ______ ____
ROOT
ATOM      1  C   UNL     1      -1.118   3.274   4.718  0.00  0.00    +0.017 C 
ATOM      2  C   UNL     1      -1.064   2.161   3.639  0.00  0.00    +0.025 C 
ATOM      3  C   UNL     1      -2.139   1.162   4.116  0.00  0.00    +0.088 C 
ATOM      4  N   UNL     1      -2.332   1.384   5.560  0.00  0.00    -0.298 NA
ATOM      5  C   UNL     1      -1.410   2.453   5.999  0.00  0.00    +0.085 C 
ATOM      6  C   UNL     1      -3.726   1.736   5.858  0.00  0.00    +0.105 C 
ENDROOT
BRANCH   3   7
ATOM      7  C   UNL     1      -1.673  -0.249   3.870  0.00  0.00    -0.012 A 
ATOM      8  C   UNL     1      -2.567  -1.302   3.932  0.00  0.00    +0.115 A 
ATOM      9  N   UNL     1      -2.166  -2.540   3.718  0.00  0.00    -0.263 NA
ATOM     10  C   UNL     1      -0.909  -2.824   3.440  0.00  0.00    +0.111 A 
ATOM     11  C   UNL     1       0.041  -1.824   3.362  0.00  0.00    +0.020 A 
ATOM     12  C   UNL     1      -0.343  -0.509   3.575  0.00  0.00    +0.008 A 
ENDBRANCH   3   7
TORSDOF 1
ENDMDL
MODEL 8
REMARK VINA RESULT:    -3.165      9.800     11.259
REMARK INTER + INTRA:          -3.527
REMARK INTER:                  -3.355
REMARK INTRA:                  -0.172
REMARK UNBOUND:                -0.178
REMARK  Name = Nicotine.pdb
REMARK  2 active torsions:
REMARK  status: ('A' for Active; 'I' for Inactive)
REMARK    1  A    between atoms: C_3  and  C_6
REMARK    2  A    between atoms: N_4  and  C_12
REMARK                            x       y       z     vdW  Elec       q    Type
REMARK                         _______ _______ _______ _____ _____    ______ ____
ROOT
ATOM      1  C   UNL     1      -1.783   1.631   5.878  0.00  0.00    +0.017 C 
ATOM      2  C   UNL     1      -1.343   0.145   5.824  0.00  0.00    +0.025 C 
ATOM      3  C   UNL     1      -0.931  -0.041   4.348  0.00  0.00    +0.088 C 
ATOM      4  N   UNL     1      -1.613   1.008   3.568  0.00  0.00    -0.298 NA
ATOM      5  C   UNL     1      -2.443   1.813   4.489  0.00  0.00    +0.085 C 
ATOM      6  C   UNL     1      -0.643   1.851   2.858  0.00  0.00    +0.105 C 
ENDROOT
BRANCH   3   7
ATOM      7  C   UNL     1      -1.359  -1.402   3.864  0.00  0.00    -0.012 A 
ATOM      8  C   UNL     1      -2.701  -1.709   3.739  0.00  0.00    +0.115 A 
ATOM      9  N   UNL     1      -3.085  -2.898   3.315  0.00  0.00    -0.263 NA
ATOM     10  C   UNL     1      -2.214  -3.835   2.997  0.00  0.00    +0.111 A 
ATOM     11  C   UNL     1      -0.855  -3.600   3.096  0.00  0.00    +0.020 A 
ATOM     12  C   UNL     1      -0.414  -2.360   3.533  0.00  0.00    +0.008 A 
ENDBRANCH   3   7
TORSDOF 1
ENDMDL
MODEL 9
REMARK VINA RESULT:    -3.154     10.354     11.976
REMARK INTER + INTRA:          -3.516
REMARK INTER:                  -3.328
REMARK INTRA:                  -0.188
REMARK UNBOUND:                -0.178
REMARK  Name = Nicotine.pdb
REMARK  2 active torsions:
REMARK  status: ('A' for Active; 'I' for Inactive)
REMARK    1  A    between atoms: C_3  and  C_6
REMARK    2  A    between atoms: N_4  and  C_12
REMARK                            x       y       z     vdW  Elec       q    Type
REMARK                         _______ _______ _______ _____ _____    ______ ____
ROOT
ATOM      1  C   UNL     1      -1.036  -0.016   4.034  0.00  0.00    +0.017 C 
ATOM      2  C   UNL     1      -2.277  -0.920   3.816  0.00  0.00    +0.025 C 
ATOM      3  C   UNL     1      -1.701  -2.344   3.973  0.00  0.00    +0.088 C 
ATOM      4  N   UNL     1      -0.253  -2.260   3.712  0.00  0.00    -0.298 NA
ATOM      5  C   UNL     1       0.086  -0.860   3.379  0.00  0.00    +0.085 C 
ATOM      6  C   UNL     1       0.519  -2.727   4.871  0.00  0.00    +0.105 C 
ENDROOT
BRANCH   3   7
ATOM      7  C   UNL     1      -2.349  -3.271   2.978  0.00  0.00    -0.012 A 
ATOM      8  C   UNL     1      -3.673  -3.097   2.619  0.00  0.00    +0.115 A 
ATOM      9  N   UNL     1      -4.248  -3.905   1.750  0.00  0.00    -0.263 NA
ATOM     10  C   UNL     1      -3.591  -4.902   1.191  0.00  0.00    +0.111 A 
ATOM     11  C   UNL     1      -2.265  -5.138   1.500  0.00  0.00    +0.020 A 
ATOM     12  C   UNL     1      -1.625  -4.306   2.407  0.00  0.00    +0.008 A 
ENDBRANCH   3   7
TORSDOF 1
ENDMDL
MODEL 10
REMARK VINA RESULT:    -3.144      3.057      4.330
REMARK INTER + INTRA:          -3.506
REMARK INTER:                  -3.290
REMARK INTRA:                  -0.216
REMARK UNBOUND:                -0.178
REMARK  Name = Nicotine.pdb
REMARK  2 active torsions:
REMARK  status: ('A' for Active; 'I' for Inactive)
REMARK    1  A    between atoms: C_3  and  C_6
REMARK    2  A    between atoms: N_4  and  C_12
REMARK                            x       y       z     vdW  Elec       q    Type
REMARK                         _______ _______ _______ _____ _____    ______ ____
ROOT
ATOM      1  C   UNL     1       8.925   2.360   0.762  0.00  0.00    +0.017 C 
ATOM      2  C   UNL     1       9.857   3.578   0.993  0.00  0.00    +0.025 C 
ATOM      3  C   UNL     1      10.390   3.341   2.422  0.00  0.00    +0.088 C 
ATOM      4  N   UNL     1       9.432   2.453   3.105  0.00  0.00    -0.298 NA
ATOM      5  C   UNL     1       8.322   2.154   2.174  0.00  0.00    +0.085 C 
ATOM      6  C   UNL     1      10.086   1.219   3.558  0.00  0.00    +0.105 C 
ENDROOT
BRANCH   3   7
ATOM      7  C   UNL     1      10.490   4.652   3.157  0.00  0.00    -0.012 A 
ATOM      8  C   UNL     1      10.495   4.681   4.539  0.00  0.00    +0.115 A 
ATOM      9  N   UNL     1      10.581   5.825   5.190  0.00  0.00    -0.263 NA
ATOM     10  C   UNL     1      10.665   6.978   4.557  0.00  0.00    +0.111 A 
ATOM     11  C   UNL     1      10.667   7.028   3.175  0.00  0.00    +0.020 A 
ATOM     12  C   UNL     1      10.583   5.845   2.457  0.00  0.00    +0.008 A 
ENDBRANCH   3   7
TORSDOF 1
ENDMDL
