MODEL 1
REMARK VINA RESULT:     1.692      0.000      0.000
REMARK INTER + INTRA:           1.576
REMARK INTER:                   1.791
REMARK INTRA:                  -0.215
REMARK UNBOUND:                -0.215
REMARK  Name = Nicotine.pdb
REMARK  2 active torsions:
REMARK  status: ('A' for Active; 'I' for Inactive)
REMARK    1  A    between atoms: C_3  and  C_6
REMARK    2  A    between atoms: N_4  and  C_12
REMARK                            x       y       z     vdW  Elec       q    Type
REMARK                         _______ _______ _______ _____ _____    ______ ____
ROOT
ATOM      1  C   UNL     1       6.982  -5.364   4.155  0.00  0.00    +0.017 C 
ATOM      2  C   UNL     1       7.840  -4.134   3.758  0.00  0.00    +0.025 C 
ATOM      3  C   UNL     1       8.990  -4.166   4.788  0.00  0.00    +0.088 C 
ATOM      4  N   UNL     1       8.513  -4.935   5.952  0.00  0.00    -0.298 NA
ATOM      5  C   UNL     1       7.118  -5.356   5.699  0.00  0.00    +0.085 C 
ATOM      6  C   UNL     1       9.376  -6.096   6.206  0.00  0.00    +0.105 C 
ENDROOT
BRANCH   3   7
ATOM      7  C   UNL     1       9.341  -2.762   5.208  0.00  0.00    -0.012 A 
ATOM      8  C   UNL     1       8.482  -1.715   4.933  0.00  0.00    +0.115 A 
ATOM      9  N   UNL     1       8.782  -0.483   5.298  0.00  0.00    -0.263 NA
ATOM     10  C   UNL     1       9.902  -0.202   5.933  0.00  0.00    +0.111 A 
ATOM     11  C   UNL     1      10.809  -1.198   6.244  0.00  0.00    +0.020 A 
ATOM     12  C   UNL     1      10.526  -2.505   5.881  0.00  0.00    +0.008 A 
ENDBRANCH   3   7
TORSDOF 1
ENDMDL
