MODEL 1
REMARK VINA RESULT:    11.830      0.000      0.000
REMARK INTER + INTRA:          12.278
REMARK INTER:                  12.521
REMARK INTRA:                  -0.244
REMARK UNBOUND:                -0.244
REMARK  Name = Nicotine.pdb
REMARK  2 active torsions:
REMARK  status: ('A' for Active; 'I' for Inactive)
REMARK    1  A    between atoms: C_3  and  C_6
REMARK    2  A    between atoms: N_4  and  C_12
REMARK                            x       y       z     vdW  Elec       q    Type
REMARK                         _______ _______ _______ _____ _____    ______ ____
ROOT
ATOM      1  C   UNL     1       5.112   1.227   0.235  0.00  0.00    +0.017 C 
ATOM      2  C   UNL     1       5.822   2.142   1.267  0.00  0.00    +0.025 C 
ATOM      3  C   UNL     1       4.671   3.020   1.802  0.00  0.00    +0.088 C 
ATOM      4  N   UNL     1       3.604   3.009   0.785  0.00  0.00    -0.298 NA
ATOM      5  C   UNL     1       4.053   2.189  -0.360  0.00  0.00    +0.085 C 
ATOM      6  C   UNL     1       2.348   2.492   1.344  0.00  0.00    +0.105 C 
ENDROOT
BRANCH   3   7
ATOM      7  C   UNL     1       5.159   4.428   2.021  0.00  0.00    -0.012 A 
ATOM      8  C   UNL     1       4.815   5.117   3.169  0.00  0.00    +0.115 A 
ATOM      9  N   UNL     1       5.238   6.350   3.368  0.00  0.00    -0.263 NA
ATOM     10  C   UNL     1       5.999   6.972   2.489  0.00  0.00    +0.111 A 
ATOM     11  C   UNL     1       6.383   6.347   1.317  0.00  0.00    +0.020 A 
ATOM     12  C   UNL     1       5.962   5.048   1.076  0.00  0.00    +0.008 A 
ENDBRANCH   3   7
TORSDOF 1
ENDMDL
MODEL 2
REMARK VINA RESULT:    12.871      2.484      5.041
REMARK INTER + INTRA:          13.380
REMARK INTER:                  13.589
REMARK INTRA:                  -0.209
REMARK UNBOUND:                -0.244
REMARK  Name = Nicotine.pdb
REMARK  2 active torsions:
REMARK  status: ('A' for Active; 'I' for Inactive)
REMARK    1  A    between atoms: C_3  and  C_6
REMARK    2  A    between atoms: N_4  and  C_12
REMARK                            x       y       z     vdW  Elec       q    Type
REMARK                         _______ _______ _______ _____ _____    ______ ____
ROOT
ATOM      1  C   UNL     1       4.302   2.385  -1.258  0.00  0.00    +0.017 C 
ATOM      2  C   UNL     1       2.879   2.515  -0.655  0.00  0.00    +0.025 C 
ATOM      3  C   UNL     1       3.150   2.600   0.862  0.00  0.00    +0.088 C 
ATOM      4  N   UNL     1       4.473   1.997   1.103  0.00  0.00    -0.298 NA
ATOM      5  C   UNL     1       5.017   1.523  -0.187  0.00  0.00    +0.085 C 
ATOM      6  C   UNL     1       5.384   2.959   1.737  0.00  0.00    +0.105 C 
ENDROOT
BRANCH   3   7
ATOM      7  C   UNL     1       2.092   1.837   1.615  0.00  0.00    -0.012 A 
ATOM      8  C   UNL     1       0.809   2.340   1.721  0.00  0.00    +0.115 A 
ATOM      9  N   UNL     1      -0.123   1.678   2.379  0.00  0.00    -0.263 NA
ATOM     10  C   UNL     1       0.127   0.520   2.958  0.00  0.00    +0.111 A 
ATOM     11  C   UNL     1       1.387  -0.045   2.895  0.00  0.00    +0.020 A 
ATOM     12  C   UNL     1       2.391   0.619   2.207  0.00  0.00    +0.008 A 
ENDBRANCH   3   7
TORSDOF 1
ENDMDL
MODEL 3
REMARK VINA RESULT:    13.833      2.506      4.380
REMARK INTER + INTRA:          14.398
REMARK INTER:                  14.571
REMARK INTRA:                  -0.172
REMARK UNBOUND:                -0.244
REMARK  Name = Nicotine.pdb
REMARK  2 active torsions:
REMARK  status: ('A' for Active; 'I' for Inactive)
REMARK    1  A    between atoms: C_3  and  C_6
REMARK    2  A    between atoms: N_4  and  C_12
REMARK                            x       y       z     vdW  Elec       q    Type
REMARK                         _______ _______ _______ _____ _____    ______ ____
ROOT
ATOM      1  C   UNL     1      -0.560   1.368   2.888  0.00  0.00    +0.017 C 
ATOM      2  C   UNL     1       0.381   1.925   1.787  0.00  0.00    +0.025 C 
ATOM      3  C   UNL     1       1.624   1.017   1.901  0.00  0.00    +0.088 C 
ATOM      4  N   UNL     1       1.621   0.440   3.258  0.00  0.00    -0.298 NA
ATOM      5  C   UNL     1       0.451   0.969   3.991  0.00  0.00    +0.085 C 
ATOM      6  C   UNL     1       1.592  -1.027   3.206  0.00  0.00    +0.105 C 
ENDROOT
BRANCH   3   7
ATOM      7  C   UNL     1       2.875   1.831   1.692  0.00  0.00    -0.012 A 
ATOM      8  C   UNL     1       3.238   2.803   2.606  0.00  0.00    +0.115 A 
ATOM      9  N   UNL     1       4.331   3.519   2.430  0.00  0.00    -0.263 NA
ATOM     10  C   UNL     1       5.116   3.342   1.386  0.00  0.00    +0.111 A 
ATOM     11  C   UNL     1       4.817   2.388   0.430  0.00  0.00    +0.020 A 
ATOM     12  C   UNL     1       3.679   1.612   0.584  0.00  0.00    +0.008 A 
ENDBRANCH   3   7
TORSDOF 1
ENDMDL
MODEL 4
REMARK VINA RESULT:    14.064      1.229      1.635
REMARK INTER + INTRA:          14.643
REMARK INTER:                  14.836
REMARK INTRA:                  -0.193
REMARK UNBOUND:                -0.244
REMARK  Name = Nicotine.pdb
REMARK  2 active torsions:
REMARK  status: ('A' for Active; 'I' for Inactive)
REMARK    1  A    between atoms: C_3  and  C_6
REMARK    2  A    between atoms: N_4  and  C_12
REMARK                            x       y       z     vdW  Elec       q    Type
REMARK                         _______ _______ _______ _____ _____    ______ ____
ROOT
ATOM      1  C   UNL     1       4.839   1.121   0.259  0.00  0.00    +0.017 C 
ATOM      2  C   UNL     1       5.110   2.097   1.434  0.00  0.00    +0.025 C 
ATOM      3  C   UNL     1       4.238   3.320   1.078  0.00  0.00    +0.088 C 
ATOM      4  N   UNL     1       3.995   3.275  -0.375  0.00  0.00    -0.298 NA
ATOM      5  C   UNL     1       4.696   2.100  -0.934  0.00  0.00    +0.085 C 
ATOM      6  C   UNL     1       2.557   3.219  -0.668  0.00  0.00    +0.105 C 
ENDROOT
BRANCH   3   7
ATOM      7  C   UNL     1       4.963   4.590   1.440  0.00  0.00    -0.012 A 
ATOM      8  C   UNL     1       5.608   5.328   0.465  0.00  0.00    +0.115 A 
ATOM      9  N   UNL     1       6.245   6.441   0.773  0.00  0.00    -0.263 NA
ATOM     10  C   UNL     1       6.294   6.892   2.011  0.00  0.00    +0.111 A 
ATOM     11  C   UNL     1       5.671   6.208   3.038  0.00  0.00    +0.020 A 
ATOM     12  C   UNL     1       4.987   5.037   2.752  0.00  0.00    +0.008 A 
ENDBRANCH   3   7
TORSDOF 1
ENDMDL
