MODEL 1
REMARK VINA RESULT:    -2.863      0.000      0.000
REMARK INTER + INTRA:          -3.242
REMARK INTER:                  -3.031
REMARK INTRA:                  -0.211
REMARK UNBOUND:                -0.211
REMARK  Name = Nicotine.pdb
REMARK  2 active torsions:
REMARK  status: ('A' for Active; 'I' for Inactive)
REMARK    1  A    between atoms: C_3  and  C_6
REMARK    2  A    between atoms: N_4  and  C_12
REMARK                            x       y       z     vdW  Elec       q    Type
REMARK                         _______ _______ _______ _____ _____    ______ ____
ROOT
ATOM      1  C   UNL     1       9.633   6.957  -2.549  0.00  0.00    +0.017 C 
ATOM      2  C   UNL     1       8.149   6.680  -2.904  0.00  0.00    +0.025 C 
ATOM      3  C   UNL     1       8.252   5.649  -4.048  0.00  0.00    +0.088 C 
ATOM      4  N   UNL     1       9.592   5.792  -4.645  0.00  0.00    -0.298 NA
ATOM      5  C   UNL     1      10.308   6.877  -3.941  0.00  0.00    +0.085 C 
ATOM      6  C   UNL     1      10.340   4.530  -4.569  0.00  0.00    +0.105 C 
ENDROOT
BRANCH   3   7
ATOM      7  C   UNL     1       7.195   5.926  -5.086  0.00  0.00    -0.012 A 
ATOM      8  C   UNL     1       7.548   6.407  -6.333  0.00  0.00    +0.115 A 
ATOM      9  N   UNL     1       6.629   6.652  -7.246  0.00  0.00    -0.263 NA
ATOM     10  C   UNL     1       5.347   6.452  -7.011  0.00  0.00    +0.111 A 
ATOM     11  C   UNL     1       4.919   5.973  -5.787  0.00  0.00    +0.020 A 
ATOM     12  C   UNL     1       5.857   5.698  -4.804  0.00  0.00    +0.008 A 
ENDBRANCH   3   7
TORSDOF 1
ENDMDL
MODEL 2
REMARK VINA RESULT:    -2.702      1.327      2.435
REMARK INTER + INTRA:          -3.071
REMARK INTER:                  -2.851
REMARK INTRA:                  -0.220
REMARK UNBOUND:                -0.211
REMARK  Name = Nicotine.pdb
REMARK  2 active torsions:
REMARK  status: ('A' for Active; 'I' for Inactive)
REMARK    1  A    between atoms: C_3  and  C_6
REMARK    2  A    between atoms: N_4  and  C_12
REMARK                            x       y       z     vdW  Elec       q    Type
REMARK                         _______ _______ _______ _____ _____    ______ ____
ROOT
ATOM      1  C   UNL     1      10.919   4.993  -5.884  0.00  0.00    +0.017 C 
ATOM      2  C   UNL     1       9.771   5.746  -6.607  0.00  0.00    +0.025 C 
ATOM      3  C   UNL     1       8.939   6.315  -5.438  0.00  0.00    +0.088 C 
ATOM      4  N   UNL     1       9.236   5.494  -4.250  0.00  0.00    -0.298 NA
ATOM      5  C   UNL     1      10.190   4.433  -4.637  0.00  0.00    +0.085 C 
ATOM      6  C   UNL     1       9.777   6.318  -3.162  0.00  0.00    +0.105 C 
ENDROOT
BRANCH   3   7
ATOM      7  C   UNL     1       7.471   6.233  -5.766  0.00  0.00    -0.012 A 
ATOM      8  C   UNL     1       6.626   5.452  -5.000  0.00  0.00    +0.115 A 
ATOM      9  N   UNL     1       5.340   5.375  -5.281  0.00  0.00    -0.263 NA
ATOM     10  C   UNL     1       4.811   6.033  -6.293  0.00  0.00    +0.111 A 
ATOM     11  C   UNL     1       5.593   6.835  -7.103  0.00  0.00    +0.020 A 
ATOM     12  C   UNL     1       6.949   6.945  -6.835  0.00  0.00    +0.008 A 
ENDBRANCH   3   7
TORSDOF 1
ENDMDL
MODEL 3
REMARK VINA RESULT:    -2.353      1.712      3.924
REMARK INTER + INTRA:          -2.701
REMARK INTER:                  -2.487
REMARK INTRA:                  -0.214
REMARK UNBOUND:                -0.211
REMARK  Name = Nicotine.pdb
REMARK  2 active torsions:
REMARK  status: ('A' for Active; 'I' for Inactive)
REMARK    1  A    between atoms: C_3  and  C_6
REMARK    2  A    between atoms: N_4  and  C_12
REMARK                            x       y       z     vdW  Elec       q    Type
REMARK                         _______ _______ _______ _____ _____    ______ ____
ROOT
ATOM      1  C   UNL     1       6.210   5.902  -3.063  0.00  0.00    +0.017 C 
ATOM      2  C   UNL     1       7.591   6.338  -3.619  0.00  0.00    +0.025 C 
ATOM      3  C   UNL     1       7.406   6.211  -5.146  0.00  0.00    +0.088 C 
ATOM      4  N   UNL     1       6.295   5.270  -5.376  0.00  0.00    -0.298 NA
ATOM      5  C   UNL     1       5.805   4.792  -4.065  0.00  0.00    +0.085 C 
ATOM      6  C   UNL     1       5.216   5.906  -6.142  0.00  0.00    +0.105 C 
ENDROOT
BRANCH   3   7
ATOM      7  C   UNL     1       8.669   5.679  -5.773  0.00  0.00    -0.012 A 
ATOM      8  C   UNL     1       9.360   6.434  -6.702  0.00  0.00    +0.115 A 
ATOM      9  N   UNL     1      10.466   5.975  -7.256  0.00  0.00    -0.263 NA
ATOM     10  C   UNL     1      10.954   4.790  -6.950  0.00  0.00    +0.111 A 
ATOM     11  C   UNL     1      10.317   3.979  -6.029  0.00  0.00    +0.020 A 
ATOM     12  C   UNL     1       9.155   4.429  -5.422  0.00  0.00    +0.008 A 
ENDBRANCH   3   7
TORSDOF 1
ENDMDL
MODEL 4
REMARK VINA RESULT:    -2.139      1.504      4.563
REMARK INTER + INTRA:          -2.475
REMARK INTER:                  -2.279
REMARK INTRA:                  -0.196
REMARK UNBOUND:                -0.211
REMARK  Name = Nicotine.pdb
REMARK  2 active torsions:
REMARK  status: ('A' for Active; 'I' for Inactive)
REMARK    1  A    between atoms: C_3  and  C_6
REMARK    2  A    between atoms: N_4  and  C_12
REMARK                            x       y       z     vdW  Elec       q    Type
REMARK                         _______ _______ _______ _____ _____    ______ ____
ROOT
ATOM      1  C   UNL     1       8.129   6.261  -7.132  0.00  0.00    +0.017 C 
ATOM      2  C   UNL     1       9.160   5.816  -6.061  0.00  0.00    +0.025 C 
ATOM      3  C   UNL     1       8.275   5.514  -4.833  0.00  0.00    +0.088 C 
ATOM      4  N   UNL     1       7.015   6.258  -5.008  0.00  0.00    -0.298 NA
ATOM      5  C   UNL     1       7.092   7.023  -6.270  0.00  0.00    +0.085 C 
ATOM      6  C   UNL     1       5.862   5.349  -5.011  0.00  0.00    +0.105 C 
ENDROOT
BRANCH   3   7
ATOM      7  C   UNL     1       8.971   5.969  -3.576  0.00  0.00    -0.012 A 
ATOM      8  C   UNL     1      10.322   5.734  -3.401  0.00  0.00    +0.115 A 
ATOM      9  N   UNL     1      10.938   6.129  -2.304  0.00  0.00    -0.263 NA
ATOM     10  C   UNL     1      10.299   6.757  -1.337  0.00  0.00    +0.111 A 
ATOM     11  C   UNL     1       8.947   7.027  -1.442  0.00  0.00    +0.020 A 
ATOM     12  C   UNL     1       8.266   6.632  -2.583  0.00  0.00    +0.008 A 
ENDBRANCH   3   7
TORSDOF 1
ENDMDL
MODEL 5
REMARK VINA RESULT:    -1.869      1.476      4.291
REMARK INTER + INTRA:          -2.190
REMARK INTER:                  -1.987
REMARK INTRA:                  -0.203
REMARK UNBOUND:                -0.211
REMARK  Name = Nicotine.pdb
REMARK  2 active torsions:
REMARK  status: ('A' for Active; 'I' for Inactive)
REMARK    1  A    between atoms: C_3  and  C_6
REMARK    2  A    between atoms: N_4  and  C_12
REMARK                            x       y       z     vdW  Elec       q    Type
REMARK                         _______ _______ _______ _____ _____    ______ ____
ROOT
ATOM      1  C   UNL     1       4.816   6.720  -6.188  0.00  0.00    +0.017 C 
ATOM      2  C   UNL     1       6.248   6.308  -6.622  0.00  0.00    +0.025 C 
ATOM      3  C   UNL     1       6.784   5.561  -5.382  0.00  0.00    +0.088 C 
ATOM      4  N   UNL     1       5.998   6.018  -4.222  0.00  0.00    -0.298 NA
ATOM      5  C   UNL     1       5.022   7.028  -4.683  0.00  0.00    +0.085 C 
ATOM      6  C   UNL     1       5.322   4.891  -3.567  0.00  0.00    +0.105 C 
ENDROOT
BRANCH   3   7
ATOM      7  C   UNL     1       8.241   5.888  -5.177  0.00  0.00    -0.012 A 
ATOM      8  C   UNL     1       9.127   5.827  -6.236  0.00  0.00    +0.115 A 
ATOM      9  N   UNL     1      10.403   6.112  -6.066  0.00  0.00    -0.263 NA
ATOM     10  C   UNL     1      10.883   6.463  -4.889  0.00  0.00    +0.111 A 
ATOM     11  C   UNL     1      10.057   6.546  -3.784  0.00  0.00    +0.020 A 
ATOM     12  C   UNL     1       8.709   6.259  -3.926  0.00  0.00    +0.008 A 
ENDBRANCH   3   7
TORSDOF 1
ENDMDL
MODEL 6
REMARK VINA RESULT:    -1.780      2.264      3.935
REMARK INTER + INTRA:          -2.095
REMARK INTER:                  -1.841
REMARK INTRA:                  -0.254
REMARK UNBOUND:                -0.211
REMARK  Name = Nicotine.pdb
REMARK  2 active torsions:
REMARK  status: ('A' for Active; 'I' for Inactive)
REMARK    1  A    between atoms: C_3  and  C_6
REMARK    2  A    between atoms: N_4  and  C_12
REMARK                            x       y       z     vdW  Elec       q    Type
REMARK                         _______ _______ _______ _____ _____    ______ ____
ROOT
ATOM      1  C   UNL     1      10.912   6.569   0.243  0.00  0.00    +0.017 C 
ATOM      2  C   UNL     1      10.881   6.899  -1.272  0.00  0.00    +0.025 C 
ATOM      3  C   UNL     1       9.370   6.965  -1.583  0.00  0.00    +0.088 C 
ATOM      4  N   UNL     1       8.676   6.190  -0.538  0.00  0.00    -0.298 NA
ATOM      5  C   UNL     1       9.687   5.631   0.384  0.00  0.00    +0.085 C 
ATOM      6  C   UNL     1       7.709   7.028   0.184  0.00  0.00    +0.105 C 
ENDROOT
BRANCH   3   7
ATOM      7  C   UNL     1       9.099   6.361  -2.936  0.00  0.00    -0.012 A 
ATOM      8  C   UNL     1       7.874   6.546  -3.551  0.00  0.00    +0.115 A 
ATOM      9  N   UNL     1       7.628   6.021  -4.735  0.00  0.00    -0.263 NA
ATOM     10  C   UNL     1       8.530   5.305  -5.377  0.00  0.00    +0.111 A 
ATOM     11  C   UNL     1       9.778   5.079  -4.826  0.00  0.00    +0.020 A 
ATOM     12  C   UNL     1      10.075   5.619  -3.584  0.00  0.00    +0.008 A 
ENDBRANCH   3   7
TORSDOF 1
ENDMDL
MODEL 7
REMARK VINA RESULT:    -1.654      6.611      9.160
REMARK INTER + INTRA:          -1.962
REMARK INTER:                  -1.778
REMARK INTRA:                  -0.184
REMARK UNBOUND:                -0.211
REMARK  Name = Nicotine.pdb
REMARK  2 active torsions:
REMARK  status: ('A' for Active; 'I' for Inactive)
REMARK    1  A    between atoms: C_3  and  C_6
REMARK    2  A    between atoms: N_4  and  C_12
REMARK                            x       y       z     vdW  Elec       q    Type
REMARK                         _______ _______ _______ _____ _____    ______ ____
ROOT
ATOM      1  C   UNL     1      10.147   6.544   0.083  0.00  0.00    +0.017 C 
ATOM      2  C   UNL     1      10.647   6.956   1.492  0.00  0.00    +0.025 C 
ATOM      3  C   UNL     1      10.842   5.599   2.201  0.00  0.00    +0.088 C 
ATOM      4  N   UNL     1      10.000   4.614   1.499  0.00  0.00    -0.298 NA
ATOM      5  C   UNL     1       9.278   5.304   0.409  0.00  0.00    +0.085 C 
ATOM      6  C   UNL     1      10.810   3.506   0.976  0.00  0.00    +0.105 C 
ENDROOT
BRANCH   3   7
ATOM      7  C   UNL     1      10.414   5.707   3.642  0.00  0.00    -0.012 A 
ATOM      8  C   UNL     1      10.453   6.925   4.293  0.00  0.00    +0.115 A 
ATOM      9  N   UNL     1      10.080   7.028   5.554  0.00  0.00    -0.263 NA
ATOM     10  C   UNL     1       9.658   5.984   6.240  0.00  0.00    +0.111 A 
ATOM     11  C   UNL     1       9.592   4.733   5.654  0.00  0.00    +0.020 A 
ATOM     12  C   UNL     1       9.971   4.587   4.329  0.00  0.00    +0.008 A 
ENDBRANCH   3   7
TORSDOF 1
ENDMDL
MODEL 8
REMARK VINA RESULT:    -1.635      1.789      2.700
REMARK INTER + INTRA:          -1.942
REMARK INTER:                  -1.750
REMARK INTRA:                  -0.192
REMARK UNBOUND:                -0.211
REMARK  Name = Nicotine.pdb
REMARK  2 active torsions:
REMARK  status: ('A' for Active; 'I' for Inactive)
REMARK    1  A    between atoms: C_3  and  C_6
REMARK    2  A    between atoms: N_4  and  C_12
REMARK                            x       y       z     vdW  Elec       q    Type
REMARK                         _______ _______ _______ _____ _____    ______ ____
ROOT
ATOM      1  C   UNL     1      10.785   6.729  -1.663  0.00  0.00    +0.017 C 
ATOM      2  C   UNL     1       9.962   7.028  -2.944  0.00  0.00    +0.025 C 
ATOM      3  C   UNL     1       8.506   7.011  -2.433  0.00  0.00    +0.088 C 
ATOM      4  N   UNL     1       8.489   6.224  -1.187  0.00  0.00    -0.298 NA
ATOM      5  C   UNL     1       9.858   5.735  -0.920  0.00  0.00    +0.085 C 
ATOM      6  C   UNL     1       7.988   7.027  -0.063  0.00  0.00    +0.105 C 
ENDROOT
BRANCH   3   7
ATOM      7  C   UNL     1       7.610   6.369  -3.459  0.00  0.00    -0.012 A 
ATOM      8  C   UNL     1       7.804   6.609  -4.806  0.00  0.00    +0.115 A 
ATOM      9  N   UNL     1       7.024   6.051  -5.711  0.00  0.00    -0.263 NA
ATOM     10  C   UNL     1       6.035   5.247  -5.372  0.00  0.00    +0.111 A 
ATOM     11  C   UNL     1       5.780   4.960  -4.045  0.00  0.00    +0.020 A 
ATOM     12  C   UNL     1       6.583   5.524  -3.065  0.00  0.00    +0.008 A 
ENDBRANCH   3   7
TORSDOF 1
ENDMDL
MODEL 9
REMARK VINA RESULT:    -1.141      3.803      6.610
REMARK INTER + INTRA:          -1.419
REMARK INTER:                  -1.226
REMARK INTRA:                  -0.193
REMARK UNBOUND:                -0.211
REMARK  Name = Nicotine.pdb
REMARK  2 active torsions:
REMARK  status: ('A' for Active; 'I' for Inactive)
REMARK    1  A    between atoms: C_3  and  C_6
REMARK    2  A    between atoms: N_4  and  C_12
REMARK                            x       y       z     vdW  Elec       q    Type
REMARK                         _______ _______ _______ _____ _____    ______ ____
ROOT
ATOM      1  C   UNL     1       7.611   6.785  -2.426  0.00  0.00    +0.017 C 
ATOM      2  C   UNL     1       7.853   7.025  -0.913  0.00  0.00    +0.025 C 
ATOM      3  C   UNL     1       9.391   6.973  -0.795  0.00  0.00    +0.088 C 
ATOM      4  N   UNL     1       9.892   6.215  -1.955  0.00  0.00    -0.298 NA
ATOM      5  C   UNL     1       8.737   5.778  -2.767  0.00  0.00    +0.085 C 
ATOM      6  C   UNL     1      10.820   7.027  -2.753  0.00  0.00    +0.105 C 
ENDROOT
BRANCH   3   7
ATOM      7  C   UNL     1       9.783   6.276   0.483  0.00  0.00    -0.012 A 
ATOM      8  C   UNL     1      10.029   7.006   1.630  0.00  0.00    +0.115 A 
ATOM      9  N   UNL     1      10.373   6.404   2.752  0.00  0.00    -0.263 NA
ATOM     10  C   UNL     1      10.496   5.094   2.826  0.00  0.00    +0.111 A 
ATOM     11  C   UNL     1      10.265   4.298   1.719  0.00  0.00    +0.020 A 
ATOM     12  C   UNL     1       9.896   4.895   0.524  0.00  0.00    +0.008 A 
ENDBRANCH   3   7
TORSDOF 1
ENDMDL
