MODEL 1
REMARK VINA RESULT:    -3.595      0.000      0.000
REMARK INTER + INTRA:          -4.008
REMARK INTER:                  -3.805
REMARK INTRA:                  -0.203
REMARK UNBOUND:                -0.203
REMARK  Name = Nicotine.pdb
REMARK  2 active torsions:
REMARK  status: ('A' for Active; 'I' for Inactive)
REMARK    1  A    between atoms: C_3  and  C_6
REMARK    2  A    between atoms: N_4  and  C_12
REMARK                            x       y       z     vdW  Elec       q    Type
REMARK                         _______ _______ _______ _____ _____    ______ ____
ROOT
ATOM      1  C   UNL     1       8.055   7.028   1.021  0.00  0.00    +0.017 C 
ATOM      2  C   UNL     1       7.340   6.255  -0.119  0.00  0.00    +0.025 C 
ATOM      3  C   UNL     1       8.377   5.181  -0.513  0.00  0.00    +0.088 C 
ATOM      4  N   UNL     1       9.698   5.669  -0.077  0.00  0.00    -0.298 NA
ATOM      5  C   UNL     1       9.528   7.000   0.543  0.00  0.00    +0.085 C 
ATOM      6  C   UNL     1      10.324   4.728   0.861  0.00  0.00    +0.105 C 
ENDROOT
BRANCH   3   7
ATOM      7  C   UNL     1       8.369   4.984  -2.006  0.00  0.00    -0.012 A 
ATOM      8  C   UNL     1       8.336   6.075  -2.855  0.00  0.00    +0.115 A 
ATOM      9  N   UNL     1       8.329   5.911  -4.164  0.00  0.00    -0.263 NA
ATOM     10  C   UNL     1       8.352   4.713  -4.712  0.00  0.00    +0.111 A 
ATOM     11  C   UNL     1       8.386   3.575  -3.927  0.00  0.00    +0.020 A 
ATOM     12  C   UNL     1       8.400   3.708  -2.547  0.00  0.00    +0.008 A 
ENDBRANCH   3   7
TORSDOF 1
ENDMDL
MODEL 2
REMARK VINA RESULT:    -3.488      2.097      3.709
REMARK INTER + INTRA:          -3.895
REMARK INTER:                  -3.639
REMARK INTRA:                  -0.256
REMARK UNBOUND:                -0.203
REMARK  Name = Nicotine.pdb
REMARK  2 active torsions:
REMARK  status: ('A' for Active; 'I' for Inactive)
REMARK    1  A    between atoms: C_3  and  C_6
REMARK    2  A    between atoms: N_4  and  C_12
REMARK                            x       y       z     vdW  Elec       q    Type
REMARK                         _______ _______ _______ _____ _____    ______ ____
ROOT
ATOM      1  C   UNL     1       9.530   1.248  -0.244  0.00  0.00    +0.017 C 
ATOM      2  C   UNL     1       8.316   2.154  -0.578  0.00  0.00    +0.025 C 
ATOM      3  C   UNL     1       8.859   3.059  -1.705  0.00  0.00    +0.088 C 
ATOM      4  N   UNL     1      10.328   3.064  -1.592  0.00  0.00    -0.298 NA
ATOM      5  C   UNL     1      10.715   2.227  -0.435  0.00  0.00    +0.085 C 
ATOM      6  C   UNL     1      10.954   2.576  -2.828  0.00  0.00    +0.105 C 
ENDROOT
BRANCH   3   7
ATOM      7  C   UNL     1       8.326   4.459  -1.540  0.00  0.00    -0.012 A 
ATOM      8  C   UNL     1       8.374   5.354  -2.592  0.00  0.00    +0.115 A 
ATOM      9  N   UNL     1       7.910   6.580  -2.456  0.00  0.00    -0.263 NA
ATOM     10  C   UNL     1       7.385   7.001  -1.322  0.00  0.00    +0.111 A 
ATOM     11  C   UNL     1       7.302   6.162  -0.227  0.00  0.00    +0.020 A 
ATOM     12  C   UNL     1       7.775   4.864  -0.334  0.00  0.00    +0.008 A 
ENDBRANCH   3   7
TORSDOF 1
ENDMDL
MODEL 3
REMARK VINA RESULT:    -3.364      1.602      4.544
REMARK INTER + INTRA:          -3.763
REMARK INTER:                  -3.550
REMARK INTRA:                  -0.213
REMARK UNBOUND:                -0.203
REMARK  Name = Nicotine.pdb
REMARK  2 active torsions:
REMARK  status: ('A' for Active; 'I' for Inactive)
REMARK    1  A    between atoms: C_3  and  C_6
REMARK    2  A    between atoms: N_4  and  C_12
REMARK                            x       y       z     vdW  Elec       q    Type
REMARK                         _______ _______ _______ _____ _____    ______ ____
ROOT
ATOM      1  C   UNL     1      10.473   2.106  -1.986  0.00  0.00    +0.017 C 
ATOM      2  C   UNL     1       9.713   2.639  -0.742  0.00  0.00    +0.025 C 
ATOM      3  C   UNL     1       8.684   3.612  -1.355  0.00  0.00    +0.088 C 
ATOM      4  N   UNL     1       9.198   4.017  -2.676  0.00  0.00    -0.298 NA
ATOM      5  C   UNL     1      10.505   3.360  -2.894  0.00  0.00    +0.085 C 
ATOM      6  C   UNL     1       8.248   3.668  -3.741  0.00  0.00    +0.105 C 
ENDROOT
BRANCH   3   7
ATOM      7  C   UNL     1       8.531   4.821  -0.470  0.00  0.00    -0.012 A 
ATOM      8  C   UNL     1       9.415   5.043   0.569  0.00  0.00    +0.115 A 
ATOM      9  N   UNL     1       9.288   6.099   1.349  0.00  0.00    -0.263 NA
ATOM     10  C   UNL     1       8.323   6.980   1.172  0.00  0.00    +0.111 A 
ATOM     11  C   UNL     1       7.403   6.825   0.152  0.00  0.00    +0.020 A 
ATOM     12  C   UNL     1       7.507   5.729  -0.691  0.00  0.00    +0.008 A 
ENDBRANCH   3   7
TORSDOF 1
ENDMDL
MODEL 4
REMARK VINA RESULT:    -3.175      1.486      2.331
REMARK INTER + INTRA:          -3.564
REMARK INTER:                  -3.363
REMARK INTRA:                  -0.201
REMARK UNBOUND:                -0.203
REMARK  Name = Nicotine.pdb
REMARK  2 active torsions:
REMARK  status: ('A' for Active; 'I' for Inactive)
REMARK    1  A    between atoms: C_3  and  C_6
REMARK    2  A    between atoms: N_4  and  C_12
REMARK                            x       y       z     vdW  Elec       q    Type
REMARK                         _______ _______ _______ _____ _____    ______ ____
ROOT
ATOM      1  C   UNL     1       9.412   5.293   0.259  0.00  0.00    +0.017 C 
ATOM      2  C   UNL     1      10.092   5.460  -1.125  0.00  0.00    +0.025 C 
ATOM      3  C   UNL     1       8.982   6.105  -1.982  0.00  0.00    +0.088 C 
ATOM      4  N   UNL     1       7.694   5.785  -1.341  0.00  0.00    -0.298 NA
ATOM      5  C   UNL     1       7.956   4.953  -0.147  0.00  0.00    +0.085 C 
ATOM      6  C   UNL     1       6.965   7.008  -0.982  0.00  0.00    +0.105 C 
ENDROOT
BRANCH   3   7
ATOM      7  C   UNL     1       9.017   5.538  -3.378  0.00  0.00    -0.012 A 
ATOM      8  C   UNL     1       9.431   6.319  -4.440  0.00  0.00    +0.115 A 
ATOM      9  N   UNL     1       9.465   5.831  -5.664  0.00  0.00    -0.263 NA
ATOM     10  C   UNL     1       9.107   4.589  -5.925  0.00  0.00    +0.111 A 
ATOM     11  C   UNL     1       8.682   3.748  -4.914  0.00  0.00    +0.020 A 
ATOM     12  C   UNL     1       8.638   4.225  -3.613  0.00  0.00    +0.008 A 
ENDBRANCH   3   7
TORSDOF 1
ENDMDL
MODEL 5
REMARK VINA RESULT:    -3.136      1.276      4.368
REMARK INTER + INTRA:          -3.522
REMARK INTER:                  -3.275
REMARK INTRA:                  -0.247
REMARK UNBOUND:                -0.203
REMARK  Name = Nicotine.pdb
REMARK  2 active torsions:
REMARK  status: ('A' for Active; 'I' for Inactive)
REMARK    1  A    between atoms: C_3  and  C_6
REMARK    2  A    between atoms: N_4  and  C_12
REMARK                            x       y       z     vdW  Elec       q    Type
REMARK                         _______ _______ _______ _____ _____    ______ ____
ROOT
ATOM      1  C   UNL     1       8.361   4.767  -4.479  0.00  0.00    +0.017 C 
ATOM      2  C   UNL     1       8.595   5.954  -3.508  0.00  0.00    +0.025 C 
ATOM      3  C   UNL     1       9.267   5.280  -2.292  0.00  0.00    +0.088 C 
ATOM      4  N   UNL     1       8.907   3.852  -2.330  0.00  0.00    -0.298 NA
ATOM      5  C   UNL     1       8.026   3.618  -3.494  0.00  0.00    +0.085 C 
ATOM      6  C   UNL     1      10.107   3.008  -2.399  0.00  0.00    +0.105 C 
ENDROOT
BRANCH   3   7
ATOM      7  C   UNL     1       8.762   5.904  -1.017  0.00  0.00    -0.012 A 
ATOM      8  C   UNL     1       9.633   6.178   0.020  0.00  0.00    +0.115 A 
ATOM      9  N   UNL     1       9.200   6.724   1.140  0.00  0.00    -0.263 NA
ATOM     10  C   UNL     1       7.929   7.028   1.316  0.00  0.00    +0.111 A 
ATOM     11  C   UNL     1       6.999   6.784   0.323  0.00  0.00    +0.020 A 
ATOM     12  C   UNL     1       7.419   6.216  -0.870  0.00  0.00    +0.008 A 
ENDBRANCH   3   7
TORSDOF 1
ENDMDL
MODEL 6
REMARK VINA RESULT:    -3.007      2.593      3.967
REMARK INTER + INTRA:          -3.385
REMARK INTER:                  -3.172
REMARK INTRA:                  -0.214
REMARK UNBOUND:                -0.203
REMARK  Name = Nicotine.pdb
REMARK  2 active torsions:
REMARK  status: ('A' for Active; 'I' for Inactive)
REMARK    1  A    between atoms: C_3  and  C_6
REMARK    2  A    between atoms: N_4  and  C_12
REMARK                            x       y       z     vdW  Elec       q    Type
REMARK                         _______ _______ _______ _____ _____    ______ ____
ROOT
ATOM      1  C   UNL     1       8.355   5.719  -3.251  0.00  0.00    +0.017 C 
ATOM      2  C   UNL     1       8.136   4.195  -3.057  0.00  0.00    +0.025 C 
ATOM      3  C   UNL     1       8.311   4.010  -1.535  0.00  0.00    +0.088 C 
ATOM      4  N   UNL     1       9.105   5.151  -1.045  0.00  0.00    -0.298 NA
ATOM      5  C   UNL     1       9.448   6.014  -2.195  0.00  0.00    +0.085 C 
ATOM      6  C   UNL     1       8.370   5.904  -0.021  0.00  0.00    +0.105 C 
ENDROOT
BRANCH   3   7
ATOM      7  C   UNL     1       9.037   2.720  -1.256  0.00  0.00    -0.012 A 
ATOM      8  C   UNL     1       8.428   1.719  -0.522  0.00  0.00    +0.115 A 
ATOM      9  N   UNL     1       9.057   0.587  -0.274  0.00  0.00    -0.263 NA
ATOM     10  C   UNL     1      10.281   0.364  -0.709  0.00  0.00    +0.111 A 
ATOM     11  C   UNL     1      10.954   1.318  -1.450  0.00  0.00    +0.020 A 
ATOM     12  C   UNL     1      10.323   2.519  -1.735  0.00  0.00    +0.008 A 
ENDBRANCH   3   7
TORSDOF 1
ENDMDL
MODEL 7
REMARK VINA RESULT:    -2.703      2.076      3.230
REMARK INTER + INTRA:          -3.064
REMARK INTER:                  -2.871
REMARK INTRA:                  -0.193
REMARK UNBOUND:                -0.203
REMARK  Name = Nicotine.pdb
REMARK  2 active torsions:
REMARK  status: ('A' for Active; 'I' for Inactive)
REMARK    1  A    between atoms: C_3  and  C_6
REMARK    2  A    between atoms: N_4  and  C_12
REMARK                            x       y       z     vdW  Elec       q    Type
REMARK                         _______ _______ _______ _____ _____    ______ ____
ROOT
ATOM      1  C   UNL     1      10.149   2.168  -0.541  0.00  0.00    +0.017 C 
ATOM      2  C   UNL     1      10.821   2.966  -1.690  0.00  0.00    +0.025 C 
ATOM      3  C   UNL     1       9.835   4.130  -1.927  0.00  0.00    +0.088 C 
ATOM      4  N   UNL     1       8.523   3.704  -1.409  0.00  0.00    -0.298 NA
ATOM      5  C   UNL     1       8.647   2.326  -0.888  0.00  0.00    +0.085 C 
ATOM      6  C   UNL     1       8.045   4.620  -0.366  0.00  0.00    +0.105 C 
ENDROOT
BRANCH   3   7
ATOM      7  C   UNL     1       9.735   4.424  -3.402  0.00  0.00    -0.012 A 
ATOM      8  C   UNL     1      10.514   5.413  -3.972  0.00  0.00    +0.115 A 
ATOM      9  N   UNL     1      10.433   5.676  -5.261  0.00  0.00    -0.263 NA
ATOM     10  C   UNL     1       9.612   5.015  -6.053  0.00  0.00    +0.111 A 
ATOM     11  C   UNL     1       8.801   4.013  -5.555  0.00  0.00    +0.020 A 
ATOM     12  C   UNL     1       8.864   3.704  -4.205  0.00  0.00    +0.008 A 
ENDBRANCH   3   7
TORSDOF 1
ENDMDL
MODEL 8
REMARK VINA RESULT:    -2.392      2.979      4.257
REMARK INTER + INTRA:          -2.735
REMARK INTER:                  -2.526
REMARK INTRA:                  -0.209
REMARK UNBOUND:                -0.203
REMARK  Name = Nicotine.pdb
REMARK  2 active torsions:
REMARK  status: ('A' for Active; 'I' for Inactive)
REMARK    1  A    between atoms: C_3  and  C_6
REMARK    2  A    between atoms: N_4  and  C_12
REMARK                            x       y       z     vdW  Elec       q    Type
REMARK                         _______ _______ _______ _____ _____    ______ ____
ROOT
ATOM      1  C   UNL     1      10.954   0.593   0.252  0.00  0.00    +0.017 C 
ATOM      2  C   UNL     1      10.906   2.121  -0.013  0.00  0.00    +0.025 C 
ATOM      3  C   UNL     1       9.445   2.351  -0.454  0.00  0.00    +0.088 C 
ATOM      4  N   UNL     1       8.928   1.061  -0.943  0.00  0.00    -0.298 NA
ATOM      5  C   UNL     1      10.007   0.055  -0.849  0.00  0.00    +0.085 C 
ATOM      6  C   UNL     1       7.747   0.642  -0.177  0.00  0.00    +0.105 C 
ENDROOT
BRANCH   3   7
ATOM      7  C   UNL     1       9.398   3.376  -1.557  0.00  0.00    -0.012 A 
ATOM      8  C   UNL     1      10.361   3.381  -2.548  0.00  0.00    +0.115 A 
ATOM      9  N   UNL     1      10.327   4.274  -3.518  0.00  0.00    -0.263 NA
ATOM     10  C   UNL     1       9.383   5.192  -3.582  0.00  0.00    +0.111 A 
ATOM     11  C   UNL     1       8.385   5.249  -2.627  0.00  0.00    +0.020 A 
ATOM     12  C   UNL     1       8.385   4.322  -1.595  0.00  0.00    +0.008 A 
ENDBRANCH   3   7
TORSDOF 1
ENDMDL
MODEL 9
REMARK VINA RESULT:    -1.170      1.596      4.559
REMARK INTER + INTRA:          -1.442
REMARK INTER:                  -1.186
REMARK INTRA:                  -0.256
REMARK UNBOUND:                -0.203
REMARK  Name = Nicotine.pdb
REMARK  2 active torsions:
REMARK  status: ('A' for Active; 'I' for Inactive)
REMARK    1  A    between atoms: C_3  and  C_6
REMARK    2  A    between atoms: N_4  and  C_12
REMARK                            x       y       z     vdW  Elec       q    Type
REMARK                         _______ _______ _______ _____ _____    ______ ____
ROOT
ATOM      1  C   UNL     1       9.504   3.803  -5.616  0.00  0.00    +0.017 C 
ATOM      2  C   UNL     1       8.323   4.033  -4.637  0.00  0.00    +0.025 C 
ATOM      3  C   UNL     1       8.503   5.507  -4.216  0.00  0.00    +0.088 C 
ATOM      4  N   UNL     1       9.914   5.859  -4.451  0.00  0.00    -0.298 NA
ATOM      5  C   UNL     1      10.617   4.667  -4.972  0.00  0.00    +0.085 C 
ATOM      6  C   UNL     1      10.027   6.988  -5.385  0.00  0.00    +0.105 C 
ENDROOT
BRANCH   3   7
ATOM      7  C   UNL     1       8.169   5.667  -2.755  0.00  0.00    -0.012 A 
ATOM      8  C   UNL     1       7.715   6.879  -2.271  0.00  0.00    +0.115 A 
ATOM      9  N   UNL     1       7.421   7.028  -0.994  0.00  0.00    -0.263 NA
ATOM     10  C   UNL     1       7.547   6.037  -0.134  0.00  0.00    +0.111 A 
ATOM     11  C   UNL     1       7.996   4.796  -0.545  0.00  0.00    +0.020 A 
ATOM     12  C   UNL     1       8.309   4.600  -1.881  0.00  0.00    +0.008 A 
ENDBRANCH   3   7
TORSDOF 1
ENDMDL
