MODEL 1
REMARK VINA RESULT:    -3.072      0.000      0.000
REMARK INTER + INTRA:          -3.453
REMARK INTER:                  -3.251
REMARK INTRA:                  -0.201
REMARK UNBOUND:                -0.201
REMARK  Name = Nicotine.pdb
REMARK  2 active torsions:
REMARK  status: ('A' for Active; 'I' for Inactive)
REMARK    1  A    between atoms: C_3  and  C_6
REMARK    2  A    between atoms: N_4  and  C_12
REMARK                            x       y       z     vdW  Elec       q    Type
REMARK                         _______ _______ _______ _____ _____    ______ ____
ROOT
ATOM      1  C   UNL     1       5.771   0.317   5.119  0.00  0.00    +0.017 C 
ATOM      2  C   UNL     1       6.688   1.400   4.492  0.00  0.00    +0.025 C 
ATOM      3  C   UNL     1       8.091   0.766   4.590  0.00  0.00    +0.088 C 
ATOM      4  N   UNL     1       8.039  -0.248   5.659  0.00  0.00    -0.298 NA
ATOM      5  C   UNL     1       6.679  -0.251   6.239  0.00  0.00    +0.085 C 
ATOM      6  C   UNL     1       8.394  -1.577   5.143  0.00  0.00    +0.105 C 
ENDROOT
BRANCH   3   7
ATOM      7  C   UNL     1       9.109   1.823   4.935  0.00  0.00    -0.012 A 
ATOM      8  C   UNL     1       9.132   3.021   4.247  0.00  0.00    +0.115 A 
ATOM      9  N   UNL     1      10.018   3.952   4.542  0.00  0.00    -0.263 NA
ATOM     10  C   UNL     1      10.912   3.780   5.496  0.00  0.00    +0.111 A 
ATOM     11  C   UNL     1      10.950   2.607   6.227  0.00  0.00    +0.020 A 
ATOM     12  C   UNL     1      10.029   1.608   5.949  0.00  0.00    +0.008 A 
ENDBRANCH   3   7
TORSDOF 1
ENDMDL
MODEL 2
REMARK VINA RESULT:    -2.895      1.053      4.697
REMARK INTER + INTRA:          -3.265
REMARK INTER:                  -3.052
REMARK INTRA:                  -0.213
REMARK UNBOUND:                -0.201
REMARK  Name = Nicotine.pdb
REMARK  2 active torsions:
REMARK  status: ('A' for Active; 'I' for Inactive)
REMARK    1  A    between atoms: C_3  and  C_6
REMARK    2  A    between atoms: N_4  and  C_12
REMARK                            x       y       z     vdW  Elec       q    Type
REMARK                         _______ _______ _______ _____ _____    ______ ____
ROOT
ATOM      1  C   UNL     1      10.889   2.792   6.244  0.00  0.00    +0.017 C 
ATOM      2  C   UNL     1      10.134   1.446   6.094  0.00  0.00    +0.025 C 
ATOM      3  C   UNL     1       9.107   1.745   4.981  0.00  0.00    +0.088 C 
ATOM      4  N   UNL     1       8.915   3.206   4.946  0.00  0.00    -0.298 NA
ATOM      5  C   UNL     1       9.754   3.817   6.000  0.00  0.00    +0.085 C 
ATOM      6  C   UNL     1       9.251   3.751   3.624  0.00  0.00    +0.105 C 
ENDROOT
BRANCH   3   7
ATOM      7  C   UNL     1       7.801   1.062   5.291  0.00  0.00    -0.012 A 
ATOM      8  C   UNL     1       7.751  -0.309   5.458  0.00  0.00    +0.115 A 
ATOM      9  N   UNL     1       6.611  -0.914   5.730  0.00  0.00    -0.263 NA
ATOM     10  C   UNL     1       5.482  -0.245   5.852  0.00  0.00    +0.111 A 
ATOM     11  C   UNL     1       5.454   1.129   5.698  0.00  0.00    +0.020 A 
ATOM     12  C   UNL     1       6.634   1.801   5.418  0.00  0.00    +0.008 A 
ENDBRANCH   3   7
TORSDOF 1
ENDMDL
MODEL 3
REMARK VINA RESULT:    -2.880      1.774      4.314
REMARK INTER + INTRA:          -3.250
REMARK INTER:                  -3.000
REMARK INTRA:                  -0.250
REMARK UNBOUND:                -0.201
REMARK  Name = Nicotine.pdb
REMARK  2 active torsions:
REMARK  status: ('A' for Active; 'I' for Inactive)
REMARK    1  A    between atoms: C_3  and  C_6
REMARK    2  A    between atoms: N_4  and  C_12
REMARK                            x       y       z     vdW  Elec       q    Type
REMARK                         _______ _______ _______ _____ _____    ______ ____
ROOT
ATOM      1  C   UNL     1       6.080   1.050   5.376  0.00  0.00    +0.017 C 
ATOM      2  C   UNL     1       6.586  -0.272   6.013  0.00  0.00    +0.025 C 
ATOM      3  C   UNL     1       8.087   0.006   6.242  0.00  0.00    +0.088 C 
ATOM      4  N   UNL     1       8.478   1.086   5.318  0.00  0.00    -0.298 NA
ATOM      5  C   UNL     1       7.297   1.468   4.514  0.00  0.00    +0.085 C 
ATOM      6  C   UNL     1       9.012   2.241   6.052  0.00  0.00    +0.105 C 
ENDROOT
BRANCH   3   7
ATOM      7  C   UNL     1       8.889  -1.235   5.951  0.00  0.00    -0.012 A 
ATOM      8  C   UNL     1      10.239  -1.280   6.243  0.00  0.00    +0.115 A 
ATOM      9  N   UNL     1      10.948  -2.363   5.991  0.00  0.00    -0.263 NA
ATOM     10  C   UNL     1      10.405  -3.438   5.455  0.00  0.00    +0.111 A 
ATOM     11  C   UNL     1       9.060  -3.467   5.136  0.00  0.00    +0.020 A 
ATOM     12  C   UNL     1       8.282  -2.349   5.391  0.00  0.00    +0.008 A 
ENDBRANCH   3   7
TORSDOF 1
ENDMDL
MODEL 4
REMARK VINA RESULT:    -2.039      1.411      2.174
REMARK INTER + INTRA:          -2.360
REMARK INTER:                  -2.146
REMARK INTRA:                  -0.215
REMARK UNBOUND:                -0.201
REMARK  Name = Nicotine.pdb
REMARK  2 active torsions:
REMARK  status: ('A' for Active; 'I' for Inactive)
REMARK    1  A    between atoms: C_3  and  C_6
REMARK    2  A    between atoms: N_4  and  C_12
REMARK                            x       y       z     vdW  Elec       q    Type
REMARK                         _______ _______ _______ _____ _____    ______ ____
ROOT
ATOM      1  C   UNL     1       5.818  -0.558   5.785  0.00  0.00    +0.017 C 
ATOM      2  C   UNL     1       7.295  -0.255   6.149  0.00  0.00    +0.025 C 
ATOM      3  C   UNL     1       7.325   1.286   6.221  0.00  0.00    +0.088 C 
ATOM      4  N   UNL     1       6.190   1.783   5.423  0.00  0.00    -0.298 NA
ATOM      5  C   UNL     1       5.478   0.624   4.844  0.00  0.00    +0.085 C 
ATOM      6  C   UNL     1       5.286   2.600   6.244  0.00  0.00    +0.105 C 
ENDROOT
BRANCH   3   7
ATOM      7  C   UNL     1       8.620   1.801   5.648  0.00  0.00    -0.012 A 
ATOM      8  C   UNL     1       8.661   3.019   4.995  0.00  0.00    +0.115 A 
ATOM      9  N   UNL     1       9.790   3.477   4.491  0.00  0.00    -0.263 NA
ATOM     10  C   UNL     1      10.917   2.799   4.587  0.00  0.00    +0.111 A 
ATOM     11  C   UNL     1      10.954   1.574   5.227  0.00  0.00    +0.020 A 
ATOM     12  C   UNL     1       9.787   1.063   5.774  0.00  0.00    +0.008 A 
ENDBRANCH   3   7
TORSDOF 1
ENDMDL
MODEL 5
REMARK VINA RESULT:    -1.438      2.292      4.096
REMARK INTER + INTRA:          -1.723
REMARK INTER:                  -1.481
REMARK INTRA:                  -0.242
REMARK UNBOUND:                -0.201
REMARK  Name = Nicotine.pdb
REMARK  2 active torsions:
REMARK  status: ('A' for Active; 'I' for Inactive)
REMARK    1  A    between atoms: C_3  and  C_6
REMARK    2  A    between atoms: N_4  and  C_12
REMARK                            x       y       z     vdW  Elec       q    Type
REMARK                         _______ _______ _______ _____ _____    ______ ____
ROOT
ATOM      1  C   UNL     1       7.823   2.394   4.639  0.00  0.00    +0.017 C 
ATOM      2  C   UNL     1       8.523   1.105   4.135  0.00  0.00    +0.025 C 
ATOM      3  C   UNL     1       7.759  -0.016   4.872  0.00  0.00    +0.088 C 
ATOM      4  N   UNL     1       7.136   0.590   6.063  0.00  0.00    -0.298 NA
ATOM      5  C   UNL     1       7.502   2.022   6.108  0.00  0.00    +0.085 C 
ATOM      6  C   UNL     1       5.678   0.418   6.041  0.00  0.00    +0.105 C 
ENDROOT
BRANCH   3   7
ATOM      7  C   UNL     1       8.717  -1.102   5.288  0.00  0.00    -0.012 A 
ATOM      8  C   UNL     1       8.397  -2.431   5.086  0.00  0.00    +0.115 A 
ATOM      9  N   UNL     1       9.230  -3.388   5.447  0.00  0.00    -0.263 NA
ATOM     10  C   UNL     1      10.391  -3.119   6.011  0.00  0.00    +0.111 A 
ATOM     11  C   UNL     1      10.779  -1.813   6.244  0.00  0.00    +0.020 A 
ATOM     12  C   UNL     1       9.932  -0.780   5.873  0.00  0.00    +0.008 A 
ENDBRANCH   3   7
TORSDOF 1
ENDMDL
