MODEL 1
REMARK VINA RESULT:    18.268      0.000      0.000
REMARK INTER + INTRA:          19.123
REMARK INTER:                  19.336
REMARK INTRA:                  -0.214
REMARK UNBOUND:                -0.214
REMARK  Name = Nicotine.pdb
REMARK  2 active torsions:
REMARK  status: ('A' for Active; 'I' for Inactive)
REMARK    1  A    between atoms: C_3  and  C_6
REMARK    2  A    between atoms: N_4  and  C_12
REMARK                            x       y       z     vdW  Elec       q    Type
REMARK                         _______ _______ _______ _____ _____    ______ ____
ROOT
ATOM      1  C   UNL     1       3.691   0.656   6.242  0.00  0.00    +0.017 C 
ATOM      2  C   UNL     1       4.109   0.286   4.795  0.00  0.00    +0.025 C 
ATOM      3  C   UNL     1       2.853   0.639   3.970  0.00  0.00    +0.088 C 
ATOM      4  N   UNL     1       1.706   0.633   4.896  0.00  0.00    -0.298 NA
ATOM      5  C   UNL     1       2.191   0.268   6.244  0.00  0.00    +0.085 C 
ATOM      6  C   UNL     1       1.035   1.939   4.913  0.00  0.00    +0.105 C 
ENDROOT
BRANCH   3   7
ATOM      7  C   UNL     1       2.645  -0.387   2.887  0.00  0.00    -0.012 A 
ATOM      8  C   UNL     1       3.567  -0.523   1.866  0.00  0.00    +0.115 A 
ATOM      9  N   UNL     1       3.393  -1.419   0.914  0.00  0.00    -0.263 NA
ATOM     10  C   UNL     1       2.343  -2.215   0.896  0.00  0.00    +0.111 A 
ATOM     11  C   UNL     1       1.379  -2.138   1.884  0.00  0.00    +0.020 A 
ATOM     12  C   UNL     1       1.531  -1.211   2.904  0.00  0.00    +0.008 A 
ENDBRANCH   3   7
TORSDOF 1
ENDMDL
MODEL 2
REMARK VINA RESULT:    18.501      3.362      4.611
REMARK INTER + INTRA:          19.369
REMARK INTER:                  19.585
REMARK INTRA:                  -0.216
REMARK UNBOUND:                -0.214
REMARK  Name = Nicotine.pdb
REMARK  2 active torsions:
REMARK  status: ('A' for Active; 'I' for Inactive)
REMARK    1  A    between atoms: C_3  and  C_6
REMARK    2  A    between atoms: N_4  and  C_12
REMARK                            x       y       z     vdW  Elec       q    Type
REMARK                         _______ _______ _______ _____ _____    ______ ____
ROOT
ATOM      1  C   UNL     1       7.950  -2.338   2.464  0.00  0.00    +0.017 C 
ATOM      2  C   UNL     1       6.731  -2.984   1.754  0.00  0.00    +0.025 C 
ATOM      3  C   UNL     1       6.091  -1.793   1.010  0.00  0.00    +0.088 C 
ATOM      4  N   UNL     1       6.532  -0.563   1.694  0.00  0.00    -0.298 NA
ATOM      5  C   UNL     1       7.391  -0.942   2.836  0.00  0.00    +0.085 C 
ATOM      6  C   UNL     1       7.245   0.327   0.769  0.00  0.00    +0.105 C 
ENDROOT
BRANCH   3   7
ATOM      7  C   UNL     1       4.589  -1.902   1.066  0.00  0.00    -0.012 A 
ATOM      8  C   UNL     1       3.812  -0.771   1.232  0.00  0.00    +0.115 A 
ATOM      9  N   UNL     1       2.497  -0.857   1.281  0.00  0.00    -0.263 NA
ATOM     10  C   UNL     1       1.874  -2.014   1.176  0.00  0.00    +0.111 A 
ATOM     11  C   UNL     1       2.585  -3.188   1.007  0.00  0.00    +0.020 A 
ATOM     12  C   UNL     1       3.969  -3.136   0.945  0.00  0.00    +0.008 A 
ENDBRANCH   3   7
TORSDOF 1
ENDMDL
MODEL 3
REMARK VINA RESULT:    19.160      3.413      5.306
REMARK INTER + INTRA:          20.067
REMARK INTER:                  20.283
REMARK INTRA:                  -0.216
REMARK UNBOUND:                -0.214
REMARK  Name = Nicotine.pdb
REMARK  2 active torsions:
REMARK  status: ('A' for Active; 'I' for Inactive)
REMARK    1  A    between atoms: C_3  and  C_6
REMARK    2  A    between atoms: N_4  and  C_12
REMARK                            x       y       z     vdW  Elec       q    Type
REMARK                         _______ _______ _______ _____ _____    ______ ____
ROOT
ATOM      1  C   UNL     1       2.114  -1.213   1.474  0.00  0.00    +0.017 C 
ATOM      2  C   UNL     1       3.574  -0.710   1.318  0.00  0.00    +0.025 C 
ATOM      3  C   UNL     1       4.301  -1.936   0.724  0.00  0.00    +0.088 C 
ATOM      4  N   UNL     1       3.502  -3.126   1.067  0.00  0.00    -0.298 NA
ATOM      5  C   UNL     1       2.334  -2.696   1.864  0.00  0.00    +0.085 C 
ATOM      6  C   UNL     1       3.080  -3.843  -0.143  0.00  0.00    +0.105 C 
ENDROOT
BRANCH   3   7
ATOM      7  C   UNL     1       5.680  -2.052   1.320  0.00  0.00    -0.012 A 
ATOM      8  C   UNL     1       6.246  -3.295   1.535  0.00  0.00    +0.115 A 
ATOM      9  N   UNL     1       7.452  -3.406   2.057  0.00  0.00    -0.263 NA
ATOM     10  C   UNL     1       8.162  -2.347   2.392  0.00  0.00    +0.111 A 
ATOM     11  C   UNL     1       7.662  -1.072   2.206  0.00  0.00    +0.020 A 
ATOM     12  C   UNL     1       6.399  -0.916   1.655  0.00  0.00    +0.008 A 
ENDBRANCH   3   7
TORSDOF 1
ENDMDL
MODEL 4
REMARK VINA RESULT:    19.442      1.066      1.911
REMARK INTER + INTRA:          20.365
REMARK INTER:                  20.588
REMARK INTRA:                  -0.223
REMARK UNBOUND:                -0.214
REMARK  Name = Nicotine.pdb
REMARK  2 active torsions:
REMARK  status: ('A' for Active; 'I' for Inactive)
REMARK    1  A    between atoms: C_3  and  C_6
REMARK    2  A    between atoms: N_4  and  C_12
REMARK                            x       y       z     vdW  Elec       q    Type
REMARK                         _______ _______ _______ _____ _____    ______ ____
ROOT
ATOM      1  C   UNL     1       1.153   1.733   5.981  0.00  0.00    +0.017 C 
ATOM      2  C   UNL     1       0.839   0.549   5.029  0.00  0.00    +0.025 C 
ATOM      3  C   UNL     1       2.218  -0.119   4.839  0.00  0.00    +0.088 C 
ATOM      4  N   UNL     1       3.241   0.896   5.147  0.00  0.00    -0.298 NA
ATOM      5  C   UNL     1       2.560   2.162   5.493  0.00  0.00    +0.085 C 
ATOM      6  C   UNL     1       4.112   0.451   6.242  0.00  0.00    +0.105 C 
ENDROOT
BRANCH   3   7
ATOM      7  C   UNL     1       2.369  -0.586   3.415  0.00  0.00    -0.012 A 
ATOM      8  C   UNL     1       3.420  -0.134   2.639  0.00  0.00    +0.115 A 
ATOM      9  N   UNL     1       3.560  -0.538   1.391  0.00  0.00    -0.263 NA
ATOM     10  C   UNL     1       2.712  -1.381   0.836  0.00  0.00    +0.111 A 
ATOM     11  C   UNL     1       1.636  -1.876   1.551  0.00  0.00    +0.020 A 
ATOM     12  C   UNL     1       1.460  -1.478   2.867  0.00  0.00    +0.008 A 
ENDBRANCH   3   7
TORSDOF 1
ENDMDL
MODEL 5
REMARK VINA RESULT:    19.849      2.587      4.869
REMARK INTER + INTRA:          20.796
REMARK INTER:                  20.976
REMARK INTRA:                  -0.180
REMARK UNBOUND:                -0.214
REMARK  Name = Nicotine.pdb
REMARK  2 active torsions:
REMARK  status: ('A' for Active; 'I' for Inactive)
REMARK    1  A    between atoms: C_3  and  C_6
REMARK    2  A    between atoms: N_4  and  C_12
REMARK                            x       y       z     vdW  Elec       q    Type
REMARK                         _______ _______ _______ _____ _____    ______ ____
ROOT
ATOM      1  C   UNL     1       2.703  -3.088   0.722  0.00  0.00    +0.017 C 
ATOM      2  C   UNL     1       4.224  -2.924   0.975  0.00  0.00    +0.025 C 
ATOM      3  C   UNL     1       4.295  -1.662   1.861  0.00  0.00    +0.088 C 
ATOM      4  N   UNL     1       3.056  -0.896   1.630  0.00  0.00    -0.298 NA
ATOM      5  C   UNL     1       2.240  -1.613   0.627  0.00  0.00    +0.085 C 
ATOM      6  C   UNL     1       2.310  -0.711   2.881  0.00  0.00    +0.105 C 
ENDROOT
BRANCH   3   7
ATOM      7  C   UNL     1       5.491  -0.831   1.476  0.00  0.00    -0.012 A 
ATOM      8  C   UNL     1       5.370   0.179   0.541  0.00  0.00    +0.115 A 
ATOM      9  N   UNL     1       6.413   0.911   0.199  0.00  0.00    -0.263 NA
ATOM     10  C   UNL     1       7.603   0.711   0.729  0.00  0.00    +0.111 A 
ATOM     11  C   UNL     1       7.801  -0.281   1.671  0.00  0.00    +0.020 A 
ATOM     12  C   UNL     1       6.727  -1.067   2.059  0.00  0.00    +0.008 A 
ENDBRANCH   3   7
TORSDOF 1
ENDMDL
