MODEL 1
REMARK VINA RESULT:    -2.886      0.000      0.000
REMARK INTER + INTRA:          -3.257
REMARK INTER:                  -3.055
REMARK INTRA:                  -0.203
REMARK UNBOUND:                -0.203
REMARK  Name = Nicotine.pdb
REMARK  2 active torsions:
REMARK  status: ('A' for Active; 'I' for Inactive)
REMARK    1  A    between atoms: C_3  and  C_6
REMARK    2  A    between atoms: N_4  and  C_12
REMARK                            x       y       z     vdW  Elec       q    Type
REMARK                         _______ _______ _______ _____ _____    ______ ____
ROOT
ATOM      1  C   UNL     1       9.279  -5.470   1.558  0.00  0.00    +0.017 C 
ATOM      2  C   UNL     1      10.363  -4.596   2.242  0.00  0.00    +0.025 C 
ATOM      3  C   UNL     1       9.918  -4.585   3.720  0.00  0.00    +0.088 C 
ATOM      4  N   UNL     1       8.478  -4.896   3.745  0.00  0.00    -0.298 NA
ATOM      5  C   UNL     1       8.010  -5.073   2.353  0.00  0.00    +0.085 C 
ATOM      6  C   UNL     1       8.212  -6.097   4.547  0.00  0.00    +0.105 C 
ENDROOT
BRANCH   3   7
ATOM      7  C   UNL     1      10.160  -3.223   4.317  0.00  0.00    -0.012 A 
ATOM      8  C   UNL     1       9.824  -2.081   3.614  0.00  0.00    +0.115 A 
ATOM      9  N   UNL     1      10.032  -0.886   4.130  0.00  0.00    -0.263 NA
ATOM     10  C   UNL     1      10.565  -0.730   5.326  0.00  0.00    +0.111 A 
ATOM     11  C   UNL     1      10.926  -1.825   6.088  0.00  0.00    +0.020 A 
ATOM     12  C   UNL     1      10.717  -3.099   5.581  0.00  0.00    +0.008 A 
ENDBRANCH   3   7
TORSDOF 1
ENDMDL
MODEL 2
REMARK VINA RESULT:    -1.895      1.562      4.372
REMARK INTER + INTRA:          -2.208
REMARK INTER:                  -2.005
REMARK INTRA:                  -0.203
REMARK UNBOUND:                -0.203
REMARK  Name = Nicotine.pdb
REMARK  2 active torsions:
REMARK  status: ('A' for Active; 'I' for Inactive)
REMARK    1  A    between atoms: C_3  and  C_6
REMARK    2  A    between atoms: N_4  and  C_12
REMARK                            x       y       z     vdW  Elec       q    Type
REMARK                         _______ _______ _______ _____ _____    ______ ____
ROOT
ATOM      1  C   UNL     1      10.171  -1.804   4.950  0.00  0.00    +0.017 C 
ATOM      2  C   UNL     1       9.522  -2.241   3.611  0.00  0.00    +0.025 C 
ATOM      3  C   UNL     1       9.201  -3.731   3.851  0.00  0.00    +0.088 C 
ATOM      4  N   UNL     1      10.086  -4.201   4.932  0.00  0.00    -0.298 NA
ATOM      5  C   UNL     1      10.954  -3.079   5.350  0.00  0.00    +0.085 C 
ATOM      6  C   UNL     1       9.307  -4.715   6.066  0.00  0.00    +0.105 C 
ENDROOT
BRANCH   3   7
ATOM      7  C   UNL     1       9.460  -4.521   2.595  0.00  0.00    -0.012 A 
ATOM      8  C   UNL     1       8.410  -5.083   1.893  0.00  0.00    +0.115 A 
ATOM      9  N   UNL     1       8.628  -5.776   0.792  0.00  0.00    -0.263 NA
ATOM     10  C   UNL     1       9.845  -5.961   0.320  0.00  0.00    +0.111 A 
ATOM     11  C   UNL     1      10.944  -5.428   0.967  0.00  0.00    +0.020 A 
ATOM     12  C   UNL     1      10.753  -4.689   2.125  0.00  0.00    +0.008 A 
ENDBRANCH   3   7
TORSDOF 1
ENDMDL
MODEL 3
REMARK VINA RESULT:     0.060      1.874      4.271
REMARK INTER + INTRA:          -0.139
REMARK INTER:                   0.074
REMARK INTRA:                  -0.213
REMARK UNBOUND:                -0.203
REMARK  Name = Nicotine.pdb
REMARK  2 active torsions:
REMARK  status: ('A' for Active; 'I' for Inactive)
REMARK    1  A    between atoms: C_3  and  C_6
REMARK    2  A    between atoms: N_4  and  C_12
REMARK                            x       y       z     vdW  Elec       q    Type
REMARK                         _______ _______ _______ _____ _____    ______ ____
ROOT
ATOM      1  C   UNL     1       9.398  -0.327   3.364  0.00  0.00    +0.017 C 
ATOM      2  C   UNL     1       8.927  -1.757   3.739  0.00  0.00    +0.025 C 
ATOM      3  C   UNL     1       9.717  -2.055   5.031  0.00  0.00    +0.088 C 
ATOM      4  N   UNL     1      10.898  -1.172   5.034  0.00  0.00    -0.298 NA
ATOM      5  C   UNL     1      10.885  -0.364   3.796  0.00  0.00    +0.085 C 
ATOM      6  C   UNL     1      10.910  -0.312   6.225  0.00  0.00    +0.105 C 
ENDROOT
BRANCH   3   7
ATOM      7  C   UNL     1      10.154  -3.497   5.044  0.00  0.00    -0.012 A 
ATOM      8  C   UNL     1      10.478  -4.140   3.864  0.00  0.00    +0.115 A 
ATOM      9  N   UNL     1      10.861  -5.402   3.866  0.00  0.00    -0.263 NA
ATOM     10  C   UNL     1      10.950  -6.097   4.982  0.00  0.00    +0.111 A 
ATOM     11  C   UNL     1      10.642  -5.521   6.201  0.00  0.00    +0.020 A 
ATOM     12  C   UNL     1      10.241  -4.195   6.239  0.00  0.00    +0.008 A 
ENDBRANCH   3   7
TORSDOF 1
ENDMDL
