MODEL 1
REMARK VINA RESULT:    -3.299      0.000      0.000
REMARK INTER + INTRA:          -3.746
REMARK INTER:                  -3.491
REMARK INTRA:                  -0.254
REMARK UNBOUND:                -0.254
REMARK  Name = Nicotine.pdb
REMARK  2 active torsions:
REMARK  status: ('A' for Active; 'I' for Inactive)
REMARK    1  A    between atoms: C_3  and  C_6
REMARK    2  A    between atoms: N_4  and  C_12
REMARK                            x       y       z     vdW  Elec       q    Type
REMARK                         _______ _______ _______ _____ _____    ______ ____
ROOT
ATOM      1  C   UNL     1       1.659   4.603  -6.608  0.00  0.00    +0.017 C 
ATOM      2  C   UNL     1       0.985   3.230  -6.871  0.00  0.00    +0.025 C 
ATOM      3  C   UNL     1      -0.507   3.518  -6.603  0.00  0.00    +0.088 C 
ATOM      4  N   UNL     1      -0.573   4.708  -5.736  0.00  0.00    -0.298 NA
ATOM      5  C   UNL     1       0.805   5.150  -5.436  0.00  0.00    +0.085 C 
ATOM      6  C   UNL     1      -1.345   5.783  -6.373  0.00  0.00    +0.105 C 
ENDROOT
BRANCH   3   7
ATOM      7  C   UNL     1      -1.141   2.340  -5.910  0.00  0.00    -0.012 A 
ATOM      8  C   UNL     1      -2.475   2.043  -6.114  0.00  0.00    +0.115 A 
ATOM      9  N   UNL     1      -3.037   1.014  -5.511  0.00  0.00    -0.263 NA
ATOM     10  C   UNL     1      -2.357   0.232  -4.695  0.00  0.00    +0.111 A 
ATOM     11  C   UNL     1      -1.018   0.467  -4.443  0.00  0.00    +0.020 A 
ATOM     12  C   UNL     1      -0.392   1.537  -5.063  0.00  0.00    +0.008 A 
ENDBRANCH   3   7
TORSDOF 1
ENDMDL
MODEL 2
REMARK VINA RESULT:    -3.046      1.510      4.484
REMARK INTER + INTRA:          -3.478
REMARK INTER:                  -3.263
REMARK INTRA:                  -0.215
REMARK UNBOUND:                -0.254
REMARK  Name = Nicotine.pdb
REMARK  2 active torsions:
REMARK  status: ('A' for Active; 'I' for Inactive)
REMARK    1  A    between atoms: C_3  and  C_6
REMARK    2  A    between atoms: N_4  and  C_12
REMARK                            x       y       z     vdW  Elec       q    Type
REMARK                         _______ _______ _______ _____ _____    ______ ____
ROOT
ATOM      1  C   UNL     1      -2.115   2.500  -7.181  0.00  0.00    +0.017 C 
ATOM      2  C   UNL     1      -0.817   3.346  -7.255  0.00  0.00    +0.025 C 
ATOM      3  C   UNL     1      -0.076   2.959  -5.957  0.00  0.00    +0.088 C 
ATOM      4  N   UNL     1      -1.086   2.443  -5.015  0.00  0.00    -0.298 NA
ATOM      5  C   UNL     1      -2.414   2.517  -5.661  0.00  0.00    +0.085 C 
ATOM      6  C   UNL     1      -0.774   1.066  -4.609  0.00  0.00    +0.105 C 
ENDROOT
BRANCH   3   7
ATOM      7  C   UNL     1       0.600   4.171  -5.372  0.00  0.00    -0.012 A 
ATOM      8  C   UNL     1       0.160   5.441  -5.693  0.00  0.00    +0.115 A 
ATOM      9  N   UNL     1       0.746   6.507  -5.185  0.00  0.00    -0.263 NA
ATOM     10  C   UNL     1       1.768   6.408  -4.358  0.00  0.00    +0.111 A 
ATOM     11  C   UNL     1       2.264   5.171  -3.990  0.00  0.00    +0.020 A 
ATOM     12  C   UNL     1       1.669   4.027  -4.500  0.00  0.00    +0.008 A 
ENDBRANCH   3   7
TORSDOF 1
ENDMDL
MODEL 3
REMARK VINA RESULT:    -3.002      1.809      3.002
REMARK INTER + INTRA:          -3.432
REMARK INTER:                  -3.261
REMARK INTRA:                  -0.171
REMARK UNBOUND:                -0.254
REMARK  Name = Nicotine.pdb
REMARK  2 active torsions:
REMARK  status: ('A' for Active; 'I' for Inactive)
REMARK    1  A    between atoms: C_3  and  C_6
REMARK    2  A    between atoms: N_4  and  C_12
REMARK                            x       y       z     vdW  Elec       q    Type
REMARK                         _______ _______ _______ _____ _____    ______ ____
ROOT
ATOM      1  C   UNL     1       3.012   6.214  -4.329  0.00  0.00    +0.017 C 
ATOM      2  C   UNL     1       2.109   5.030  -3.895  0.00  0.00    +0.025 C 
ATOM      3  C   UNL     1       2.072   4.141  -5.156  0.00  0.00    +0.088 C 
ATOM      4  N   UNL     1       2.404   5.000  -6.306  0.00  0.00    -0.298 NA
ATOM      5  C   UNL     1       2.617   6.379  -5.818  0.00  0.00    +0.085 C 
ATOM      6  C   UNL     1       3.591   4.502  -7.012  0.00  0.00    +0.105 C 
ENDROOT
BRANCH   3   7
ATOM      7  C   UNL     1       0.695   3.556  -5.332  0.00  0.00    -0.012 A 
ATOM      8  C   UNL     1      -0.306   4.293  -5.935  0.00  0.00    +0.115 A 
ATOM      9  N   UNL     1      -1.514   3.789  -6.092  0.00  0.00    -0.263 NA
ATOM     10  C   UNL     1      -1.816   2.572  -5.685  0.00  0.00    +0.111 A 
ATOM     11  C   UNL     1      -0.866   1.775  -5.073  0.00  0.00    +0.020 A 
ATOM     12  C   UNL     1       0.417   2.269  -4.895  0.00  0.00    +0.008 A 
ENDBRANCH   3   7
TORSDOF 1
ENDMDL
MODEL 4
REMARK VINA RESULT:    -2.957      2.602      4.423
REMARK INTER + INTRA:          -3.385
REMARK INTER:                  -3.170
REMARK INTRA:                  -0.215
REMARK UNBOUND:                -0.254
REMARK  Name = Nicotine.pdb
REMARK  2 active torsions:
REMARK  status: ('A' for Active; 'I' for Inactive)
REMARK    1  A    between atoms: C_3  and  C_6
REMARK    2  A    between atoms: N_4  and  C_12
REMARK                            x       y       z     vdW  Elec       q    Type
REMARK                         _______ _______ _______ _____ _____    ______ ____
ROOT
ATOM      1  C   UNL     1      -1.791  -0.422  -2.917  0.00  0.00    +0.017 C 
ATOM      2  C   UNL     1      -2.603  -0.404  -4.239  0.00  0.00    +0.025 C 
ATOM      3  C   UNL     1      -1.987   0.784  -5.009  0.00  0.00    +0.088 C 
ATOM      4  N   UNL     1      -1.349   1.665  -4.014  0.00  0.00    -0.298 NA
ATOM      5  C   UNL     1      -1.563   1.090  -2.669  0.00  0.00    +0.085 C 
ATOM      6  C   UNL     1       0.084   1.826  -4.296  0.00  0.00    +0.105 C 
ENDROOT
BRANCH   3   7
ATOM      7  C   UNL     1      -3.068   1.535  -5.742  0.00  0.00    -0.012 A 
ATOM      8  C   UNL     1      -2.956   2.897  -5.948  0.00  0.00    +0.115 A 
ATOM      9  N   UNL     1      -3.897   3.562  -6.589  0.00  0.00    -0.263 NA
ATOM     10  C   UNL     1      -4.974   2.963  -7.055  0.00  0.00    +0.111 A 
ATOM     11  C   UNL     1      -5.156   1.602  -6.887  0.00  0.00    +0.020 A 
ATOM     12  C   UNL     1      -4.185   0.869  -6.223  0.00  0.00    +0.008 A 
ENDBRANCH   3   7
TORSDOF 1
ENDMDL
MODEL 5
REMARK VINA RESULT:    -2.919      2.356      3.683
REMARK INTER + INTRA:          -3.344
REMARK INTER:                  -3.135
REMARK INTRA:                  -0.209
REMARK UNBOUND:                -0.254
REMARK  Name = Nicotine.pdb
REMARK  2 active torsions:
REMARK  status: ('A' for Active; 'I' for Inactive)
REMARK    1  A    between atoms: C_3  and  C_6
REMARK    2  A    between atoms: N_4  and  C_12
REMARK                            x       y       z     vdW  Elec       q    Type
REMARK                         _______ _______ _______ _____ _____    ______ ____
ROOT
ATOM      1  C   UNL     1       3.758   6.793  -6.159  0.00  0.00    +0.017 C 
ATOM      2  C   UNL     1       2.372   6.214  -6.547  0.00  0.00    +0.025 C 
ATOM      3  C   UNL     1       1.760   5.835  -5.181  0.00  0.00    +0.088 C 
ATOM      4  N   UNL     1       2.876   5.667  -4.233  0.00  0.00    -0.298 NA
ATOM      5  C   UNL     1       4.146   5.899  -4.955  0.00  0.00    +0.085 C 
ATOM      6  C   UNL     1       2.742   6.584  -3.094  0.00  0.00    +0.105 C 
ENDROOT
BRANCH   3   7
ATOM      7  C   UNL     1       0.991   4.545  -5.304  0.00  0.00    -0.012 A 
ATOM      8  C   UNL     1       1.469   3.388  -4.719  0.00  0.00    +0.115 A 
ATOM      9  N   UNL     1       0.802   2.255  -4.822  0.00  0.00    -0.263 NA
ATOM     10  C   UNL     1      -0.337   2.178  -5.480  0.00  0.00    +0.111 A 
ATOM     11  C   UNL     1      -0.877   3.294  -6.091  0.00  0.00    +0.020 A 
ATOM     12  C   UNL     1      -0.207   4.505  -6.000  0.00  0.00    +0.008 A 
ENDBRANCH   3   7
TORSDOF 1
ENDMDL
MODEL 6
REMARK VINA RESULT:    -2.719      2.131      4.963
REMARK INTER + INTRA:          -3.132
REMARK INTER:                  -2.950
REMARK INTRA:                  -0.182
REMARK UNBOUND:                -0.254
REMARK  Name = Nicotine.pdb
REMARK  2 active torsions:
REMARK  status: ('A' for Active; 'I' for Inactive)
REMARK    1  A    between atoms: C_3  and  C_6
REMARK    2  A    between atoms: N_4  and  C_12
REMARK                            x       y       z     vdW  Elec       q    Type
REMARK                         _______ _______ _______ _____ _____    ______ ____
ROOT
ATOM      1  C   UNL     1      -0.286   1.561  -5.686  0.00  0.00    +0.017 C 
ATOM      2  C   UNL     1       0.517   2.481  -4.729  0.00  0.00    +0.025 C 
ATOM      3  C   UNL     1       0.436   3.858  -5.422  0.00  0.00    +0.088 C 
ATOM      4  N   UNL     1       0.151   3.614  -6.847  0.00  0.00    -0.298 NA
ATOM      5  C   UNL     1       0.079   2.154  -7.070  0.00  0.00    +0.085 C 
ATOM      6  C   UNL     1      -1.097   4.272  -7.256  0.00  0.00    +0.105 C 
ENDROOT
BRANCH   3   7
ATOM      7  C   UNL     1       1.748   4.584  -5.277  0.00  0.00    -0.012 A 
ATOM      8  C   UNL     1       2.712   4.489  -6.262  0.00  0.00    +0.115 A 
ATOM      9  N   UNL     1       3.864   5.121  -6.143  0.00  0.00    -0.263 NA
ATOM     10  C   UNL     1       4.141   5.862  -5.089  0.00  0.00    +0.111 A 
ATOM     11  C   UNL     1       3.226   6.005  -4.063  0.00  0.00    +0.020 A 
ATOM     12  C   UNL     1       2.002   5.360  -4.156  0.00  0.00    +0.008 A 
ENDBRANCH   3   7
TORSDOF 1
ENDMDL
MODEL 7
REMARK VINA RESULT:    -2.643      3.919      6.646
REMARK INTER + INTRA:          -3.052
REMARK INTER:                  -2.803
REMARK INTRA:                  -0.249
REMARK UNBOUND:                -0.254
REMARK  Name = Nicotine.pdb
REMARK  2 active torsions:
REMARK  status: ('A' for Active; 'I' for Inactive)
REMARK    1  A    between atoms: C_3  and  C_6
REMARK    2  A    between atoms: N_4  and  C_12
REMARK                            x       y       z     vdW  Elec       q    Type
REMARK                         _______ _______ _______ _____ _____    ______ ____
ROOT
ATOM      1  C   UNL     1       1.373   6.300  -6.529  0.00  0.00    +0.017 C 
ATOM      2  C   UNL     1       2.804   5.940  -7.006  0.00  0.00    +0.025 C 
ATOM      3  C   UNL     1       3.214   4.803  -6.046  0.00  0.00    +0.088 C 
ATOM      4  N   UNL     1       2.379   4.928  -4.838  0.00  0.00    -0.298 NA
ATOM      5  C   UNL     1       1.494   6.102  -4.997  0.00  0.00    +0.085 C 
ATOM      6  C   UNL     1       1.597   3.706  -4.609  0.00  0.00    +0.105 C 
ENDROOT
BRANCH   3   7
ATOM      7  C   UNL     1       4.669   4.939  -5.681  0.00  0.00    -0.012 A 
ATOM      8  C   UNL     1       5.472   3.818  -5.577  0.00  0.00    +0.115 A 
ATOM      9  N   UNL     1       6.746   3.928  -5.258  0.00  0.00    -0.263 NA
ATOM     10  C   UNL     1       7.304   5.100  -5.027  0.00  0.00    +0.111 A 
ATOM     11  C   UNL     1       6.565   6.265  -5.114  0.00  0.00    +0.020 A 
ATOM     12  C   UNL     1       5.223   6.189  -5.452  0.00  0.00    +0.008 A 
ENDBRANCH   3   7
TORSDOF 1
ENDMDL
MODEL 8
REMARK VINA RESULT:    -2.487      1.284      2.044
REMARK INTER + INTRA:          -2.887
REMARK INTER:                  -2.691
REMARK INTRA:                  -0.196
REMARK UNBOUND:                -0.254
REMARK  Name = Nicotine.pdb
REMARK  2 active torsions:
REMARK  status: ('A' for Active; 'I' for Inactive)
REMARK    1  A    between atoms: C_3  and  C_6
REMARK    2  A    between atoms: N_4  and  C_12
REMARK                            x       y       z     vdW  Elec       q    Type
REMARK                         _______ _______ _______ _____ _____    ______ ____
ROOT
ATOM      1  C   UNL     1       2.158   4.776  -4.187  0.00  0.00    +0.017 C 
ATOM      2  C   UNL     1       1.584   3.339  -4.295  0.00  0.00    +0.025 C 
ATOM      3  C   UNL     1       0.871   3.352  -5.664  0.00  0.00    +0.088 C 
ATOM      4  N   UNL     1       0.574   4.759  -5.989  0.00  0.00    -0.298 NA
ATOM      5  C   UNL     1       1.048   5.609  -4.875  0.00  0.00    +0.085 C 
ATOM      6  C   UNL     1       1.204   5.151  -7.256  0.00  0.00    +0.105 C 
ENDROOT
BRANCH   3   7
ATOM      7  C   UNL     1      -0.410   2.563  -5.582  0.00  0.00    -0.012 A 
ATOM      8  C   UNL     1      -0.441   1.346  -4.926  0.00  0.00    +0.115 A 
ATOM      9  N   UNL     1      -1.558   0.649  -4.850  0.00  0.00    -0.263 NA
ATOM     10  C   UNL     1      -2.681   1.078  -5.391  0.00  0.00    +0.111 A 
ATOM     11  C   UNL     1      -2.727   2.286  -6.062  0.00  0.00    +0.020 A 
ATOM     12  C   UNL     1      -1.574   3.049  -6.158  0.00  0.00    +0.008 A 
ENDBRANCH   3   7
TORSDOF 1
ENDMDL
MODEL 9
REMARK VINA RESULT:    -2.428      3.053      5.891
REMARK INTER + INTRA:          -2.825
REMARK INTER:                  -2.610
REMARK INTRA:                  -0.215
REMARK UNBOUND:                -0.254
REMARK  Name = Nicotine.pdb
REMARK  2 active torsions:
REMARK  status: ('A' for Active; 'I' for Inactive)
REMARK    1  A    between atoms: C_3  and  C_6
REMARK    2  A    between atoms: N_4  and  C_12
REMARK                            x       y       z     vdW  Elec       q    Type
REMARK                         _______ _______ _______ _____ _____    ______ ____
ROOT
ATOM      1  C   UNL     1       0.231   3.338  -5.305  0.00  0.00    +0.017 C 
ATOM      2  C   UNL     1       1.564   3.663  -4.581  0.00  0.00    +0.025 C 
ATOM      3  C   UNL     1       1.732   5.178  -4.828  0.00  0.00    +0.088 C 
ATOM      4  N   UNL     1       0.933   5.518  -6.018  0.00  0.00    -0.298 NA
ATOM      5  C   UNL     1       0.302   4.283  -6.531  0.00  0.00    +0.085 C 
ATOM      6  C   UNL     1      -0.078   6.534  -5.701  0.00  0.00    +0.105 C 
ENDROOT
BRANCH   3   7
ATOM      7  C   UNL     1       3.184   5.499  -5.074  0.00  0.00    -0.012 A 
ATOM      8  C   UNL     1       4.028   4.548  -5.615  0.00  0.00    +0.115 A 
ATOM      9  N   UNL     1       5.300   4.821  -5.834  0.00  0.00    -0.263 NA
ATOM     10  C   UNL     1       5.814   6.000  -5.548  0.00  0.00    +0.111 A 
ATOM     11  C   UNL     1       5.031   7.001  -5.005  0.00  0.00    +0.020 A 
ATOM     12  C   UNL     1       3.688   6.753  -4.766  0.00  0.00    +0.008 A 
ENDBRANCH   3   7
TORSDOF 1
ENDMDL
MODEL 10
REMARK VINA RESULT:    -2.298     13.707     14.776
REMARK INTER + INTRA:          -2.687
REMARK INTER:                  -2.476
REMARK INTRA:                  -0.211
REMARK UNBOUND:                -0.254
REMARK  Name = Nicotine.pdb
REMARK  2 active torsions:
REMARK  status: ('A' for Active; 'I' for Inactive)
REMARK    1  A    between atoms: C_3  and  C_6
REMARK    2  A    between atoms: N_4  and  C_12
REMARK                            x       y       z     vdW  Elec       q    Type
REMARK                         _______ _______ _______ _____ _____    ______ ____
ROOT
ATOM      1  C   UNL     1       8.015  -0.359   6.244  0.00  0.00    +0.017 C 
ATOM      2  C   UNL     1       8.804  -1.257   5.255  0.00  0.00    +0.025 C 
ATOM      3  C   UNL     1       9.818  -0.277   4.629  0.00  0.00    +0.088 C 
ATOM      4  N   UNL     1       9.273   1.082   4.796  0.00  0.00    -0.298 NA
ATOM      5  C   UNL     1       7.962   0.984   5.472  0.00  0.00    +0.085 C 
ATOM      6  C   UNL     1      10.197   1.930   5.560  0.00  0.00    +0.105 C 
ENDROOT
BRANCH   3   7
ATOM      7  C   UNL     1       9.991  -0.585   3.164  0.00  0.00    -0.012 A 
ATOM      8  C   UNL     1      10.639  -1.738   2.764  0.00  0.00    +0.115 A 
ATOM      9  N   UNL     1      10.794  -2.015   1.484  0.00  0.00    -0.263 NA
ATOM     10  C   UNL     1      10.343  -1.212   0.541  0.00  0.00    +0.111 A 
ATOM     11  C   UNL     1       9.684  -0.040   0.865  0.00  0.00    +0.020 A 
ATOM     12  C   UNL     1       9.498   0.282   2.201  0.00  0.00    +0.008 A 
ENDBRANCH   3   7
TORSDOF 1
ENDMDL
