MODEL 1
REMARK VINA RESULT:    -4.605      0.000      0.000
REMARK INTER + INTRA:          -5.074
REMARK INTER:                  -4.875
REMARK INTRA:                  -0.199
REMARK UNBOUND:                -0.199
REMARK  Name = Nicotine.pdb
REMARK  2 active torsions:
REMARK  status: ('A' for Active; 'I' for Inactive)
REMARK    1  A    between atoms: C_3  and  C_6
REMARK    2  A    between atoms: N_4  and  C_12
REMARK                            x       y       z     vdW  Elec       q    Type
REMARK                         _______ _______ _______ _____ _____    ______ ____
ROOT
ATOM      1  C   UNL     1       9.161   2.845   1.795  0.00  0.00    +0.017 C 
ATOM      2  C   UNL     1       8.285   3.772   0.911  0.00  0.00    +0.025 C 
ATOM      3  C   UNL     1       8.466   3.176  -0.501  0.00  0.00    +0.088 C 
ATOM      4  N   UNL     1       9.727   2.413  -0.495  0.00  0.00    -0.298 NA
ATOM      5  C   UNL     1      10.342   2.531   0.844  0.00  0.00    +0.085 C 
ATOM      6  C   UNL     1       9.493   1.006  -0.846  0.00  0.00    +0.105 C 
ENDROOT
BRANCH   3   7
ATOM      7  C   UNL     1       8.541   4.285  -1.519  0.00  0.00    -0.012 A 
ATOM      8  C   UNL     1       9.353   5.381  -1.300  0.00  0.00    +0.115 A 
ATOM      9  N   UNL     1       9.425   6.355  -2.186  0.00  0.00    -0.263 NA
ATOM     10  C   UNL     1       8.731   6.326  -3.306  0.00  0.00    +0.111 A 
ATOM     11  C   UNL     1       7.897   5.261  -3.594  0.00  0.00    +0.020 A 
ATOM     12  C   UNL     1       7.800   4.216  -2.689  0.00  0.00    +0.008 A 
ENDBRANCH   3   7
TORSDOF 1
ENDMDL
MODEL 2
REMARK VINA RESULT:    -4.117      1.022      4.666
REMARK INTER + INTRA:          -4.556
REMARK INTER:                  -4.344
REMARK INTRA:                  -0.212
REMARK UNBOUND:                -0.199
REMARK  Name = Nicotine.pdb
REMARK  2 active torsions:
REMARK  status: ('A' for Active; 'I' for Inactive)
REMARK    1  A    between atoms: C_3  and  C_6
REMARK    2  A    between atoms: N_4  and  C_12
REMARK                            x       y       z     vdW  Elec       q    Type
REMARK                         _______ _______ _______ _____ _____    ______ ____
ROOT
ATOM      1  C   UNL     1       8.094   5.205  -4.362  0.00  0.00    +0.017 C 
ATOM      2  C   UNL     1       7.610   4.244  -3.244  0.00  0.00    +0.025 C 
ATOM      3  C   UNL     1       8.271   4.826  -1.976  0.00  0.00    +0.088 C 
ATOM      4  N   UNL     1       9.431   5.623  -2.415  0.00  0.00    -0.298 NA
ATOM      5  C   UNL     1       9.530   5.539  -3.888  0.00  0.00    +0.085 C 
ATOM      6  C   UNL     1       9.308   7.018  -1.974  0.00  0.00    +0.105 C 
ENDROOT
BRANCH   3   7
ATOM      7  C   UNL     1       8.727   3.707  -1.076  0.00  0.00    -0.012 A 
ATOM      8  C   UNL     1       9.215   2.531  -1.615  0.00  0.00    +0.115 A 
ATOM      9  N   UNL     1       9.616   1.547  -0.834  0.00  0.00    -0.263 NA
ATOM     10  C   UNL     1       9.570   1.642   0.480  0.00  0.00    +0.111 A 
ATOM     11  C   UNL     1       9.095   2.787   1.090  0.00  0.00    +0.020 A 
ATOM     12  C   UNL     1       8.669   3.845   0.302  0.00  0.00    +0.008 A 
ENDBRANCH   3   7
TORSDOF 1
ENDMDL
MODEL 3
REMARK VINA RESULT:    -4.065      1.648      4.497
REMARK INTER + INTRA:          -4.502
REMARK INTER:                  -4.304
REMARK INTRA:                  -0.198
REMARK UNBOUND:                -0.199
REMARK  Name = Nicotine.pdb
REMARK  2 active torsions:
REMARK  status: ('A' for Active; 'I' for Inactive)
REMARK    1  A    between atoms: C_3  and  C_6
REMARK    2  A    between atoms: N_4  and  C_12
REMARK                            x       y       z     vdW  Elec       q    Type
REMARK                         _______ _______ _______ _____ _____    ______ ____
ROOT
ATOM      1  C   UNL     1      10.811   4.132  -3.687  0.00  0.00    +0.017 C 
ATOM      2  C   UNL     1      10.712   3.033  -2.598  0.00  0.00    +0.025 C 
ATOM      3  C   UNL     1       9.252   3.155  -2.112  0.00  0.00    +0.088 C 
ATOM      4  N   UNL     1       8.792   4.515  -2.450  0.00  0.00    -0.298 NA
ATOM      5  C   UNL     1       9.905   5.242  -3.096  0.00  0.00    +0.085 C 
ATOM      6  C   UNL     1       7.613   4.470  -3.325  0.00  0.00    +0.105 C 
ENDROOT
BRANCH   3   7
ATOM      7  C   UNL     1       9.188   2.946  -0.621  0.00  0.00    -0.012 A 
ATOM      8  C   UNL     1       9.891   1.914  -0.029  0.00  0.00    +0.115 A 
ATOM      9  N   UNL     1       9.840   1.725   1.275  0.00  0.00    -0.263 NA
ATOM     10  C   UNL     1       9.124   2.503   2.061  0.00  0.00    +0.111 A 
ATOM     11  C   UNL     1       8.395   3.556   1.541  0.00  0.00    +0.020 A 
ATOM     12  C   UNL     1       8.427   3.790   0.175  0.00  0.00    +0.008 A 
ENDBRANCH   3   7
TORSDOF 1
ENDMDL
MODEL 4
REMARK VINA RESULT:    -3.949      1.579      4.481
REMARK INTER + INTRA:          -4.379
REMARK INTER:                  -4.169
REMARK INTRA:                  -0.209
REMARK UNBOUND:                -0.199
REMARK  Name = Nicotine.pdb
REMARK  2 active torsions:
REMARK  status: ('A' for Active; 'I' for Inactive)
REMARK    1  A    between atoms: C_3  and  C_6
REMARK    2  A    between atoms: N_4  and  C_12
REMARK                            x       y       z     vdW  Elec       q    Type
REMARK                         _______ _______ _______ _____ _____    ______ ____
ROOT
ATOM      1  C   UNL     1       7.974   6.533  -4.485  0.00  0.00    +0.017 C 
ATOM      2  C   UNL     1       8.521   6.543  -3.033  0.00  0.00    +0.025 C 
ATOM      3  C   UNL     1       9.535   5.379  -3.036  0.00  0.00    +0.088 C 
ATOM      4  N   UNL     1       9.161   4.478  -4.141  0.00  0.00    -0.298 NA
ATOM      5  C   UNL     1       7.953   5.017  -4.801  0.00  0.00    +0.085 C 
ATOM      6  C   UNL     1      10.264   4.332  -5.099  0.00  0.00    +0.105 C 
ENDROOT
BRANCH   3   7
ATOM      7  C   UNL     1       9.470   4.639  -1.725  0.00  0.00    -0.012 A 
ATOM      8  C   UNL     1      10.564   4.619  -0.880  0.00  0.00    +0.115 A 
ATOM      9  N   UNL     1      10.515   3.974   0.270  0.00  0.00    -0.263 NA
ATOM     10  C   UNL     1       9.434   3.328   0.657  0.00  0.00    +0.111 A 
ATOM     11  C   UNL     1       8.301   3.305  -0.136  0.00  0.00    +0.020 A 
ATOM     12  C   UNL     1       8.313   3.976  -1.349  0.00  0.00    +0.008 A 
ENDBRANCH   3   7
TORSDOF 1
ENDMDL
MODEL 5
REMARK VINA RESULT:    -3.821      1.610      1.815
REMARK INTER + INTRA:          -4.244
REMARK INTER:                  -4.023
REMARK INTRA:                  -0.221
REMARK UNBOUND:                -0.199
REMARK  Name = Nicotine.pdb
REMARK  2 active torsions:
REMARK  status: ('A' for Active; 'I' for Inactive)
REMARK    1  A    between atoms: C_3  and  C_6
REMARK    2  A    between atoms: N_4  and  C_12
REMARK                            x       y       z     vdW  Elec       q    Type
REMARK                         _______ _______ _______ _____ _____    ______ ____
ROOT
ATOM      1  C   UNL     1       8.770   3.567   0.535  0.00  0.00    +0.017 C 
ATOM      2  C   UNL     1       8.043   4.020  -0.759  0.00  0.00    +0.025 C 
ATOM      3  C   UNL     1       8.644   3.094  -1.837  0.00  0.00    +0.088 C 
ATOM      4  N   UNL     1       9.944   2.619  -1.330  0.00  0.00    -0.298 NA
ATOM      5  C   UNL     1      10.182   3.227  -0.003  0.00  0.00    +0.085 C 
ATOM      6  C   UNL     1       9.974   1.152  -1.251  0.00  0.00    +0.105 C 
ENDROOT
BRANCH   3   7
ATOM      7  C   UNL     1       8.843   3.862  -3.119  0.00  0.00    -0.012 A 
ATOM      8  C   UNL     1      10.109   4.021  -3.649  0.00  0.00    +0.115 A 
ATOM      9  N   UNL     1      10.291   4.691  -4.770  0.00  0.00    -0.263 NA
ATOM     10  C   UNL     1       9.284   5.232  -5.426  0.00  0.00    +0.111 A 
ATOM     11  C   UNL     1       7.989   5.114  -4.957  0.00  0.00    +0.020 A 
ATOM     12  C   UNL     1       7.758   4.412  -3.784  0.00  0.00    +0.008 A 
ENDBRANCH   3   7
TORSDOF 1
ENDMDL
MODEL 6
REMARK VINA RESULT:    -3.486      1.780      4.688
REMARK INTER + INTRA:          -3.889
REMARK INTER:                  -3.717
REMARK INTRA:                  -0.173
REMARK UNBOUND:                -0.199
REMARK  Name = Nicotine.pdb
REMARK  2 active torsions:
REMARK  status: ('A' for Active; 'I' for Inactive)
REMARK    1  A    between atoms: C_3  and  C_6
REMARK    2  A    between atoms: N_4  and  C_12
REMARK                            x       y       z     vdW  Elec       q    Type
REMARK                         _______ _______ _______ _____ _____    ______ ____
ROOT
ATOM      1  C   UNL     1       9.310   7.028  -3.099  0.00  0.00    +0.017 C 
ATOM      2  C   UNL     1      10.209   5.850  -2.640  0.00  0.00    +0.025 C 
ATOM      3  C   UNL     1       9.589   4.637  -3.367  0.00  0.00    +0.088 C 
ATOM      4  N   UNL     1       8.196   4.989  -3.694  0.00  0.00    -0.298 NA
ATOM      5  C   UNL     1       7.920   6.348  -3.181  0.00  0.00    +0.085 C 
ATOM      6  C   UNL     1       7.959   4.913  -5.141  0.00  0.00    +0.105 C 
ENDROOT
BRANCH   3   7
ATOM      7  C   UNL     1       9.617   3.430  -2.465  0.00  0.00    -0.012 A 
ATOM      8  C   UNL     1       8.587   3.201  -1.572  0.00  0.00    +0.115 A 
ATOM      9  N   UNL     1       8.604   2.147  -0.779  0.00  0.00    -0.263 NA
ATOM     10  C   UNL     1       9.593   1.276  -0.805  0.00  0.00    +0.111 A 
ATOM     11  C   UNL     1      10.656   1.438  -1.673  0.00  0.00    +0.020 A 
ATOM     12  C   UNL     1      10.671   2.532  -2.525  0.00  0.00    +0.008 A 
ENDBRANCH   3   7
TORSDOF 1
ENDMDL
MODEL 7
REMARK VINA RESULT:    -2.543      1.764      2.273
REMARK INTER + INTRA:          -2.891
REMARK INTER:                  -2.697
REMARK INTRA:                  -0.194
REMARK UNBOUND:                -0.199
REMARK  Name = Nicotine.pdb
REMARK  2 active torsions:
REMARK  status: ('A' for Active; 'I' for Inactive)
REMARK    1  A    between atoms: C_3  and  C_6
REMARK    2  A    between atoms: N_4  and  C_12
REMARK                            x       y       z     vdW  Elec       q    Type
REMARK                         _______ _______ _______ _____ _____    ______ ____
ROOT
ATOM      1  C   UNL     1       7.872   3.315   1.184  0.00  0.00    +0.017 C 
ATOM      2  C   UNL     1       8.008   3.504  -0.350  0.00  0.00    +0.025 C 
ATOM      3  C   UNL     1       9.514   3.272  -0.596  0.00  0.00    +0.088 C 
ATOM      4  N   UNL     1      10.209   3.519   0.681  0.00  0.00    -0.298 NA
ATOM      5  C   UNL     1       9.206   3.915   1.693  0.00  0.00    +0.085 C 
ATOM      6  C   UNL     1      10.953   2.330   1.114  0.00  0.00    +0.105 C 
ENDROOT
BRANCH   3   7
ATOM      7  C   UNL     1      10.015   4.229  -1.647  0.00  0.00    -0.012 A 
ATOM      8  C   UNL     1       9.992   3.875  -2.983  0.00  0.00    +0.115 A 
ATOM      9  N   UNL     1      10.428   4.706  -3.909  0.00  0.00    -0.263 NA
ATOM     10  C   UNL     1      10.900   5.898  -3.603  0.00  0.00    +0.111 A 
ATOM     11  C   UNL     1      10.954   6.322  -2.288  0.00  0.00    +0.020 A 
ATOM     12  C   UNL     1      10.499   5.477  -1.287  0.00  0.00    +0.008 A 
ENDBRANCH   3   7
TORSDOF 1
ENDMDL
MODEL 8
REMARK VINA RESULT:    -2.531      2.091      3.215
REMARK INTER + INTRA:          -2.878
REMARK INTER:                  -2.694
REMARK INTRA:                  -0.184
REMARK UNBOUND:                -0.199
REMARK  Name = Nicotine.pdb
REMARK  2 active torsions:
REMARK  status: ('A' for Active; 'I' for Inactive)
REMARK    1  A    between atoms: C_3  and  C_6
REMARK    2  A    between atoms: N_4  and  C_12
REMARK                            x       y       z     vdW  Elec       q    Type
REMARK                         _______ _______ _______ _____ _____    ______ ____
ROOT
ATOM      1  C   UNL     1       9.104   3.495  -0.151  0.00  0.00    +0.017 C 
ATOM      2  C   UNL     1       9.262   3.047  -1.627  0.00  0.00    +0.025 C 
ATOM      3  C   UNL     1       9.973   4.250  -2.281  0.00  0.00    +0.088 C 
ATOM      4  N   UNL     1       9.703   5.428  -1.437  0.00  0.00    -0.298 NA
ATOM      5  C   UNL     1       8.841   5.013  -0.311  0.00  0.00    +0.085 C 
ATOM      6  C   UNL     1      10.954   6.026  -0.951  0.00  0.00    +0.105 C 
ENDROOT
BRANCH   3   7
ATOM      7  C   UNL     1       9.428   4.476  -3.668  0.00  0.00    -0.012 A 
ATOM      8  C   UNL     1       8.077   4.692  -3.862  0.00  0.00    +0.115 A 
ATOM      9  N   UNL     1       7.593   4.890  -5.072  0.00  0.00    -0.263 NA
ATOM     10  C   UNL     1       8.369   4.891  -6.138  0.00  0.00    +0.111 A 
ATOM     11  C   UNL     1       9.730   4.682  -6.022  0.00  0.00    +0.020 A 
ATOM     12  C   UNL     1      10.277   4.475  -4.765  0.00  0.00    +0.008 A 
ENDBRANCH   3   7
TORSDOF 1
ENDMDL
MODEL 9
REMARK VINA RESULT:    -1.671      2.328      3.881
REMARK INTER + INTRA:          -1.967
REMARK INTER:                  -1.749
REMARK INTRA:                  -0.219
REMARK UNBOUND:                -0.199
REMARK  Name = Nicotine.pdb
REMARK  2 active torsions:
REMARK  status: ('A' for Active; 'I' for Inactive)
REMARK    1  A    between atoms: C_3  and  C_6
REMARK    2  A    between atoms: N_4  and  C_12
REMARK                            x       y       z     vdW  Elec       q    Type
REMARK                         _______ _______ _______ _____ _____    ______ ____
ROOT
ATOM      1  C   UNL     1       9.611   5.317  -0.728  0.00  0.00    +0.017 C 
ATOM      2  C   UNL     1       9.820   6.351  -1.866  0.00  0.00    +0.025 C 
ATOM      3  C   UNL     1       8.782   5.920  -2.923  0.00  0.00    +0.088 C 
ATOM      4  N   UNL     1       8.466   4.502  -2.672  0.00  0.00    -0.298 NA
ATOM      5  C   UNL     1       9.279   4.034  -1.530  0.00  0.00    +0.085 C 
ATOM      6  C   UNL     1       7.033   4.319  -2.410  0.00  0.00    +0.105 C 
ENDROOT
BRANCH   3   7
ATOM      7  C   UNL     1       9.359   6.082  -4.305  0.00  0.00    -0.012 A 
ATOM      8  C   UNL     1       8.800   5.416  -5.378  0.00  0.00    +0.115 A 
ATOM      9  N   UNL     1       9.299   5.552  -6.592  0.00  0.00    -0.263 NA
ATOM     10  C   UNL     1      10.342   6.322  -6.829  0.00  0.00    +0.111 A 
ATOM     11  C   UNL     1      10.954   7.021  -5.805  0.00  0.00    +0.020 A 
ATOM     12  C   UNL     1      10.454   6.906  -4.517  0.00  0.00    +0.008 A 
ENDBRANCH   3   7
TORSDOF 1
ENDMDL
