MODEL 1
REMARK VINA RESULT:    -3.876      0.000      0.000
REMARK INTER + INTRA:          -4.299
REMARK INTER:                  -4.103
REMARK INTRA:                  -0.196
REMARK UNBOUND:                -0.196
REMARK  Name = Nicotine.pdb
REMARK  2 active torsions:
REMARK  status: ('A' for Active; 'I' for Inactive)
REMARK    1  A    between atoms: C_3  and  C_6
REMARK    2  A    between atoms: N_4  and  C_12
REMARK                            x       y       z     vdW  Elec       q    Type
REMARK                         _______ _______ _______ _____ _____    ______ ____
ROOT
ATOM      1  C   UNL     1       9.022   3.775  -1.032  0.00  0.00    +0.017 C 
ATOM      2  C   UNL     1       9.501   3.790  -2.507  0.00  0.00    +0.025 C 
ATOM      3  C   UNL     1       8.219   4.152  -3.286  0.00  0.00    +0.088 C 
ATOM      4  N   UNL     1       7.073   3.796  -2.430  0.00  0.00    -0.298 NA
ATOM      5  C   UNL     1       7.587   3.208  -1.175  0.00  0.00    +0.085 C 
ATOM      6  C   UNL     1       6.233   4.969  -2.157  0.00  0.00    +0.105 C 
ENDROOT
BRANCH   3   7
ATOM      7  C   UNL     1       8.162   3.371  -4.573  0.00  0.00    -0.012 A 
ATOM      8  C   UNL     1       9.293   3.228  -5.354  0.00  0.00    +0.115 A 
ATOM      9  N   UNL     1       9.252   2.546  -6.482  0.00  0.00    -0.263 NA
ATOM     10  C   UNL     1       8.141   1.978  -6.908  0.00  0.00    +0.111 A 
ATOM     11  C   UNL     1       6.971   2.078  -6.180  0.00  0.00    +0.020 A 
ATOM     12  C   UNL     1       6.977   2.783  -4.986  0.00  0.00    +0.008 A 
ENDBRANCH   3   7
TORSDOF 1
ENDMDL
MODEL 2
REMARK VINA RESULT:    -3.809      7.010      9.158
REMARK INTER + INTRA:          -4.228
REMARK INTER:                  -4.003
REMARK INTRA:                  -0.226
REMARK UNBOUND:                -0.196
REMARK  Name = Nicotine.pdb
REMARK  2 active torsions:
REMARK  status: ('A' for Active; 'I' for Inactive)
REMARK    1  A    between atoms: C_3  and  C_6
REMARK    2  A    between atoms: N_4  and  C_12
REMARK                            x       y       z     vdW  Elec       q    Type
REMARK                         _______ _______ _______ _____ _____    ______ ____
ROOT
ATOM      1  C   UNL     1       9.477  -3.646   4.266  0.00  0.00    +0.017 C 
ATOM      2  C   UNL     1       9.579  -2.119   4.007  0.00  0.00    +0.025 C 
ATOM      3  C   UNL     1       8.154  -1.617   4.326  0.00  0.00    +0.088 C 
ATOM      4  N   UNL     1       7.245  -2.770   4.193  0.00  0.00    -0.298 NA
ATOM      5  C   UNL     1       8.036  -3.950   3.784  0.00  0.00    +0.085 C 
ATOM      6  C   UNL     1       6.531  -3.025   5.451  0.00  0.00    +0.105 C 
ENDROOT
BRANCH   3   7
ATOM      7  C   UNL     1       7.761  -0.537   3.352  0.00  0.00    -0.012 A 
ATOM      8  C   UNL     1       6.455  -0.089   3.296  0.00  0.00    +0.115 A 
ATOM      9  N   UNL     1       6.102   0.857   2.446  0.00  0.00    -0.263 NA
ATOM     10  C   UNL     1       6.972   1.407   1.622  0.00  0.00    +0.111 A 
ATOM     11  C   UNL     1       8.296   1.010   1.621  0.00  0.00    +0.020 A 
ATOM     12  C   UNL     1       8.705   0.023   2.504  0.00  0.00    +0.008 A 
ENDBRANCH   3   7
TORSDOF 1
ENDMDL
MODEL 3
REMARK VINA RESULT:    -3.772      2.329      3.775
REMARK INTER + INTRA:          -4.189
REMARK INTER:                  -3.969
REMARK INTRA:                  -0.221
REMARK UNBOUND:                -0.196
REMARK  Name = Nicotine.pdb
REMARK  2 active torsions:
REMARK  status: ('A' for Active; 'I' for Inactive)
REMARK    1  A    between atoms: C_3  and  C_6
REMARK    2  A    between atoms: N_4  and  C_12
REMARK                            x       y       z     vdW  Elec       q    Type
REMARK                         _______ _______ _______ _____ _____    ______ ____
ROOT
ATOM      1  C   UNL     1       3.814   5.752  -0.733  0.00  0.00    +0.017 C 
ATOM      2  C   UNL     1       5.288   5.622  -1.200  0.00  0.00    +0.025 C 
ATOM      3  C   UNL     1       5.166   5.625  -2.739  0.00  0.00    +0.088 C 
ATOM      4  N   UNL     1       3.791   5.208  -3.069  0.00  0.00    -0.298 NA
ATOM      5  C   UNL     1       3.070   4.923  -1.810  0.00  0.00    +0.085 C 
ATOM      6  C   UNL     1       3.099   6.241  -3.850  0.00  0.00    +0.105 C 
ENDROOT
BRANCH   3   7
ATOM      7  C   UNL     1       6.154   4.656  -3.334  0.00  0.00    -0.012 A 
ATOM      8  C   UNL     1       6.012   4.225  -4.639  0.00  0.00    +0.115 A 
ATOM      9  N   UNL     1       6.872   3.377  -5.168  0.00  0.00    -0.263 NA
ATOM     10  C   UNL     1       7.895   2.909  -4.480  0.00  0.00    +0.111 A 
ATOM     11  C   UNL     1       8.102   3.295  -3.169  0.00  0.00    +0.020 A 
ATOM     12  C   UNL     1       7.221   4.190  -2.581  0.00  0.00    +0.008 A 
ENDBRANCH   3   7
TORSDOF 1
ENDMDL
MODEL 4
REMARK VINA RESULT:    -3.772      1.312      4.666
REMARK INTER + INTRA:          -4.189
REMARK INTER:                  -3.988
REMARK INTRA:                  -0.201
REMARK UNBOUND:                -0.196
REMARK  Name = Nicotine.pdb
REMARK  2 active torsions:
REMARK  status: ('A' for Active; 'I' for Inactive)
REMARK    1  A    between atoms: C_3  and  C_6
REMARK    2  A    between atoms: N_4  and  C_12
REMARK                            x       y       z     vdW  Elec       q    Type
REMARK                         _______ _______ _______ _____ _____    ______ ____
ROOT
ATOM      1  C   UNL     1       7.974   1.773  -7.227  0.00  0.00    +0.017 C 
ATOM      2  C   UNL     1       6.939   2.130  -6.127  0.00  0.00    +0.025 C 
ATOM      3  C   UNL     1       7.294   3.591  -5.778  0.00  0.00    +0.088 C 
ATOM      4  N   UNL     1       8.693   3.810  -6.184  0.00  0.00    -0.298 NA
ATOM      5  C   UNL     1       9.225   2.548  -6.742  0.00  0.00    +0.085 C 
ATOM      6  C   UNL     1       8.794   4.902  -7.160  0.00  0.00    +0.105 C 
ENDROOT
BRANCH   3   7
ATOM      7  C   UNL     1       7.148   3.813  -4.295  0.00  0.00    -0.012 A 
ATOM      8  C   UNL     1       6.121   4.597  -3.803  0.00  0.00    +0.115 A 
ATOM      9  N   UNL     1       5.987   4.796  -2.506  0.00  0.00    -0.263 NA
ATOM     10  C   UNL     1       6.818   4.263  -1.633  0.00  0.00    +0.111 A 
ATOM     11  C   UNL     1       7.868   3.467  -2.050  0.00  0.00    +0.020 A 
ATOM     12  C   UNL     1       8.038   3.230  -3.406  0.00  0.00    +0.008 A 
ENDBRANCH   3   7
TORSDOF 1
ENDMDL
MODEL 5
REMARK VINA RESULT:    -3.770      2.204      5.097
REMARK INTER + INTRA:          -4.187
REMARK INTER:                  -3.931
REMARK INTRA:                  -0.256
REMARK UNBOUND:                -0.196
REMARK  Name = Nicotine.pdb
REMARK  2 active torsions:
REMARK  status: ('A' for Active; 'I' for Inactive)
REMARK    1  A    between atoms: C_3  and  C_6
REMARK    2  A    between atoms: N_4  and  C_12
REMARK                            x       y       z     vdW  Elec       q    Type
REMARK                         _______ _______ _______ _____ _____    ______ ____
ROOT
ATOM      1  C   UNL     1       7.175   4.343  -5.904  0.00  0.00    +0.017 C 
ATOM      2  C   UNL     1       6.353   5.373  -5.085  0.00  0.00    +0.025 C 
ATOM      3  C   UNL     1       6.606   4.937  -3.626  0.00  0.00    +0.088 C 
ATOM      4  N   UNL     1       7.011   3.520  -3.658  0.00  0.00    -0.298 NA
ATOM      5  C   UNL     1       6.994   3.056  -5.061  0.00  0.00    +0.085 C 
ATOM      6  C   UNL     1       8.339   3.337  -3.058  0.00  0.00    +0.105 C 
ENDROOT
BRANCH   3   7
ATOM      7  C   UNL     1       5.344   5.093  -2.818  0.00  0.00    -0.012 A 
ATOM      8  C   UNL     1       5.401   5.155  -1.438  0.00  0.00    +0.115 A 
ATOM      9  N   UNL     1       4.302   5.292  -0.723  0.00  0.00    -0.263 NA
ATOM     10  C   UNL     1       3.113   5.375  -1.288  0.00  0.00    +0.111 A 
ATOM     11  C   UNL     1       2.978   5.322  -2.663  0.00  0.00    +0.020 A 
ATOM     12  C   UNL     1       4.113   5.183  -3.448  0.00  0.00    +0.008 A 
ENDBRANCH   3   7
TORSDOF 1
ENDMDL
MODEL 6
REMARK VINA RESULT:    -3.720      2.059      2.992
REMARK INTER + INTRA:          -4.134
REMARK INTER:                  -3.878
REMARK INTRA:                  -0.255
REMARK UNBOUND:                -0.196
REMARK  Name = Nicotine.pdb
REMARK  2 active torsions:
REMARK  status: ('A' for Active; 'I' for Inactive)
REMARK    1  A    between atoms: C_3  and  C_6
REMARK    2  A    between atoms: N_4  and  C_12
REMARK                            x       y       z     vdW  Elec       q    Type
REMARK                         _______ _______ _______ _____ _____    ______ ____
ROOT
ATOM      1  C   UNL     1       7.945   2.585   0.996  0.00  0.00    +0.017 C 
ATOM      2  C   UNL     1       8.407   3.323  -0.288  0.00  0.00    +0.025 C 
ATOM      3  C   UNL     1       7.125   4.044  -0.755  0.00  0.00    +0.088 C 
ATOM      4  N   UNL     1       5.980   3.328  -0.164  0.00  0.00    -0.298 NA
ATOM      5  C   UNL     1       6.495   2.186   0.622  0.00  0.00    +0.085 C 
ATOM      6  C   UNL     1       5.173   4.223   0.674  0.00  0.00    +0.105 C 
ENDROOT
BRANCH   3   7
ATOM      7  C   UNL     1       7.034   4.007  -2.258  0.00  0.00    -0.012 A 
ATOM      8  C   UNL     1       6.158   4.841  -2.927  0.00  0.00    +0.115 A 
ATOM      9  N   UNL     1       6.072   4.815  -4.243  0.00  0.00    -0.263 NA
ATOM     10  C   UNL     1       6.810   4.000  -4.969  0.00  0.00    +0.111 A 
ATOM     11  C   UNL     1       7.710   3.137  -4.370  0.00  0.00    +0.020 A 
ATOM     12  C   UNL     1       7.831   3.140  -2.989  0.00  0.00    +0.008 A 
ENDBRANCH   3   7
TORSDOF 1
ENDMDL
MODEL 7
REMARK VINA RESULT:    -3.675      2.272      4.669
REMARK INTER + INTRA:          -4.087
REMARK INTER:                  -3.896
REMARK INTRA:                  -0.190
REMARK UNBOUND:                -0.196
REMARK  Name = Nicotine.pdb
REMARK  2 active torsions:
REMARK  status: ('A' for Active; 'I' for Inactive)
REMARK    1  A    between atoms: C_3  and  C_6
REMARK    2  A    between atoms: N_4  and  C_12
REMARK                            x       y       z     vdW  Elec       q    Type
REMARK                         _______ _______ _______ _____ _____    ______ ____
ROOT
ATOM      1  C   UNL     1       8.702   3.141  -4.858  0.00  0.00    +0.017 C 
ATOM      2  C   UNL     1       7.303   2.951  -4.215  0.00  0.00    +0.025 C 
ATOM      3  C   UNL     1       6.480   4.103  -4.830  0.00  0.00    +0.088 C 
ATOM      4  N   UNL     1       7.435   5.135  -5.273  0.00  0.00    -0.298 NA
ATOM      5  C   UNL     1       8.803   4.685  -4.939  0.00  0.00    +0.085 C 
ATOM      6  C   UNL     1       7.302   5.392  -6.713  0.00  0.00    +0.105 C 
ENDROOT
BRANCH   3   7
ATOM      7  C   UNL     1       5.548   4.677  -3.794  0.00  0.00    -0.012 A 
ATOM      8  C   UNL     1       6.035   5.092  -2.569  0.00  0.00    +0.115 A 
ATOM      9  N   UNL     1       5.226   5.596  -1.657  0.00  0.00    -0.263 NA
ATOM     10  C   UNL     1       3.932   5.722  -1.873  0.00  0.00    +0.111 A 
ATOM     11  C   UNL     1       3.373   5.329  -3.074  0.00  0.00    +0.020 A 
ATOM     12  C   UNL     1       4.193   4.800  -4.059  0.00  0.00    +0.008 A 
ENDBRANCH   3   7
TORSDOF 1
ENDMDL
MODEL 8
REMARK VINA RESULT:    -3.642      3.311      5.712
REMARK INTER + INTRA:          -4.052
REMARK INTER:                  -3.854
REMARK INTRA:                  -0.198
REMARK UNBOUND:                -0.196
REMARK  Name = Nicotine.pdb
REMARK  2 active torsions:
REMARK  status: ('A' for Active; 'I' for Inactive)
REMARK    1  A    between atoms: C_3  and  C_6
REMARK    2  A    between atoms: N_4  and  C_12
REMARK                            x       y       z     vdW  Elec       q    Type
REMARK                         _______ _______ _______ _____ _____    ______ ____
ROOT
ATOM      1  C   UNL     1       3.092   5.900  -3.077  0.00  0.00    +0.017 C 
ATOM      2  C   UNL     1       3.753   5.839  -1.675  0.00  0.00    +0.025 C 
ATOM      3  C   UNL     1       5.206   5.426  -1.994  0.00  0.00    +0.088 C 
ATOM      4  N   UNL     1       5.194   4.768  -3.312  0.00  0.00    -0.298 NA
ATOM      5  C   UNL     1       3.801   4.733  -3.808  0.00  0.00    +0.085 C 
ATOM      6  C   UNL     1       6.073   5.467  -4.258  0.00  0.00    +0.105 C 
ENDROOT
BRANCH   3   7
ATOM      7  C   UNL     1       5.708   4.468  -0.945  0.00  0.00    -0.012 A 
ATOM      8  C   UNL     1       4.922   4.151   0.147  0.00  0.00    +0.115 A 
ATOM      9  N   UNL     1       5.355   3.313   1.069  0.00  0.00    -0.263 NA
ATOM     10  C   UNL     1       6.543   2.748   0.989  0.00  0.00    +0.111 A 
ATOM     11  C   UNL     1       7.385   3.016  -0.074  0.00  0.00    +0.020 A 
ATOM     12  C   UNL     1       6.962   3.888  -1.066  0.00  0.00    +0.008 A 
ENDBRANCH   3   7
TORSDOF 1
ENDMDL
MODEL 9
REMARK VINA RESULT:    -3.637      3.936      4.854
REMARK INTER + INTRA:          -4.046
REMARK INTER:                  -3.859
REMARK INTRA:                  -0.187
REMARK UNBOUND:                -0.196
REMARK  Name = Nicotine.pdb
REMARK  2 active torsions:
REMARK  status: ('A' for Active; 'I' for Inactive)
REMARK    1  A    between atoms: C_3  and  C_6
REMARK    2  A    between atoms: N_4  and  C_12
REMARK                            x       y       z     vdW  Elec       q    Type
REMARK                         _______ _______ _______ _____ _____    ______ ____
ROOT
ATOM      1  C   UNL     1       7.561   2.584   0.316  0.00  0.00    +0.017 C 
ATOM      2  C   UNL     1       7.264   3.706  -0.714  0.00  0.00    +0.025 C 
ATOM      3  C   UNL     1       6.049   4.431  -0.097  0.00  0.00    +0.088 C 
ATOM      4  N   UNL     1       5.396   3.483   0.823  0.00  0.00    -0.298 NA
ATOM      5  C   UNL     1       6.134   2.203   0.783  0.00  0.00    +0.085 C 
ATOM      6  C   UNL     1       5.348   4.021   2.189  0.00  0.00    +0.105 C 
ENDROOT
BRANCH   3   7
ATOM      7  C   UNL     1       5.088   4.837  -1.184  0.00  0.00    -0.012 A 
ATOM      8  C   UNL     1       5.556   5.176  -2.440  0.00  0.00    +0.115 A 
ATOM      9  N   UNL     1       4.722   5.533  -3.397  0.00  0.00    -0.263 NA
ATOM     10  C   UNL     1       3.420   5.581  -3.199  0.00  0.00    +0.111 A 
ATOM     11  C   UNL     1       2.878   5.256  -1.969  0.00  0.00    +0.020 A 
ATOM     12  C   UNL     1       3.724   4.871  -0.940  0.00  0.00    +0.008 A 
ENDBRANCH   3   7
TORSDOF 1
ENDMDL
MODEL 10
REMARK VINA RESULT:    -3.530      4.293      7.076
REMARK INTER + INTRA:          -3.933
REMARK INTER:                  -3.709
REMARK INTRA:                  -0.224
REMARK UNBOUND:                -0.196
REMARK  Name = Nicotine.pdb
REMARK  2 active torsions:
REMARK  status: ('A' for Active; 'I' for Inactive)
REMARK    1  A    between atoms: C_3  and  C_6
REMARK    2  A    between atoms: N_4  and  C_12
REMARK                            x       y       z     vdW  Elec       q    Type
REMARK                         _______ _______ _______ _____ _____    ______ ____
ROOT
ATOM      1  C   UNL     1       4.364   5.955   0.498  0.00  0.00    +0.017 C 
ATOM      2  C   UNL     1       4.919   5.266   1.773  0.00  0.00    +0.025 C 
ATOM      3  C   UNL     1       5.922   4.239   1.204  0.00  0.00    +0.088 C 
ATOM      4  N   UNL     1       5.535   3.979  -0.194  0.00  0.00    -0.298 NA
ATOM      5  C   UNL     1       4.328   4.775  -0.505  0.00  0.00    +0.085 C 
ATOM      6  C   UNL     1       6.632   4.303  -1.114  0.00  0.00    +0.105 C 
ENDROOT
BRANCH   3   7
ATOM      7  C   UNL     1       5.857   2.963   2.002  0.00  0.00    -0.012 A 
ATOM      8  C   UNL     1       6.475   1.817   1.539  0.00  0.00    +0.115 A 
ATOM      9  N   UNL     1       6.424   0.696   2.232  0.00  0.00    -0.263 NA
ATOM     10  C   UNL     1       5.786   0.621   3.383  0.00  0.00    +0.111 A 
ATOM     11  C   UNL     1       5.145   1.727   3.910  0.00  0.00    +0.020 A 
ATOM     12  C   UNL     1       5.182   2.924   3.213  0.00  0.00    +0.008 A 
ENDBRANCH   3   7
TORSDOF 1
ENDMDL
