MODEL 1
REMARK VINA RESULT:    -3.315      0.000      0.000
REMARK INTER + INTRA:          -3.727
REMARK INTER:                  -3.509
REMARK INTRA:                  -0.219
REMARK UNBOUND:                -0.219
REMARK  Name = Nicotine.pdb
REMARK  2 active torsions:
REMARK  status: ('A' for Active; 'I' for Inactive)
REMARK    1  A    between atoms: C_3  and  C_6
REMARK    2  A    between atoms: N_4  and  C_12
REMARK                            x       y       z     vdW  Elec       q    Type
REMARK                         _______ _______ _______ _____ _____    ______ ____
ROOT
ATOM      1  C   UNL     1       5.628  -5.513  -2.314  0.00  0.00    +0.017 C 
ATOM      2  C   UNL     1       4.304  -5.111  -1.613  0.00  0.00    +0.025 C 
ATOM      3  C   UNL     1       4.783  -4.589  -0.242  0.00  0.00    +0.088 C 
ATOM      4  N   UNL     1       6.110  -5.178   0.011  0.00  0.00    -0.298 NA
ATOM      5  C   UNL     1       6.460  -6.056  -1.125  0.00  0.00    +0.085 C 
ATOM      6  C   UNL     1       7.123  -4.132   0.201  0.00  0.00    +0.105 C 
ENDROOT
BRANCH   3   7
ATOM      7  C   UNL     1       3.818  -5.015   0.834  0.00  0.00    -0.012 A 
ATOM      8  C   UNL     1       4.204  -5.012   2.161  0.00  0.00    +0.115 A 
ATOM      9  N   UNL     1       3.365  -5.383   3.109  0.00  0.00    -0.263 NA
ATOM     10  C   UNL     1       2.136  -5.770   2.833  0.00  0.00    +0.111 A 
ATOM     11  C   UNL     1       1.678  -5.798   1.529  0.00  0.00    +0.020 A 
ATOM     12  C   UNL     1       2.529  -5.410   0.507  0.00  0.00    +0.008 A 
ENDBRANCH   3   7
TORSDOF 1
ENDMDL
MODEL 2
REMARK VINA RESULT:    -3.258      2.177      5.400
REMARK INTER + INTRA:          -3.667
REMARK INTER:                  -3.472
REMARK INTRA:                  -0.195
REMARK UNBOUND:                -0.219
REMARK  Name = Nicotine.pdb
REMARK  2 active torsions:
REMARK  status: ('A' for Active; 'I' for Inactive)
REMARK    1  A    between atoms: C_3  and  C_6
REMARK    2  A    between atoms: N_4  and  C_12
REMARK                            x       y       z     vdW  Elec       q    Type
REMARK                         _______ _______ _______ _____ _____    ______ ____
ROOT
ATOM      1  C   UNL     1       4.264  -5.239  -1.442  0.00  0.00    +0.017 C 
ATOM      2  C   UNL     1       5.678  -5.193  -2.078  0.00  0.00    +0.025 C 
ATOM      3  C   UNL     1       6.613  -5.295  -0.854  0.00  0.00    +0.088 C 
ATOM      4  N   UNL     1       5.843  -4.851   0.322  0.00  0.00    -0.298 NA
ATOM      5  C   UNL     1       4.489  -4.458  -0.123  0.00  0.00    +0.085 C 
ATOM      6  C   UNL     1       5.778  -5.909   1.338  0.00  0.00    +0.105 C 
ENDROOT
BRANCH   3   7
ATOM      7  C   UNL     1       7.812  -4.403  -1.050  0.00  0.00    -0.012 A 
ATOM      8  C   UNL     1       8.437  -4.331  -2.280  0.00  0.00    +0.115 A 
ATOM      9  N   UNL     1       9.487  -3.553  -2.460  0.00  0.00    -0.263 NA
ATOM     10  C   UNL     1       9.980  -2.819  -1.483  0.00  0.00    +0.111 A 
ATOM     11  C   UNL     1       9.407  -2.838  -0.224  0.00  0.00    +0.020 A 
ATOM     12  C   UNL     1       8.299  -3.640   0.001  0.00  0.00    +0.008 A 
ENDBRANCH   3   7
TORSDOF 1
ENDMDL
MODEL 3
REMARK VINA RESULT:    -3.233      2.551      4.226
REMARK INTER + INTRA:          -3.641
REMARK INTER:                  -3.385
REMARK INTRA:                  -0.255
REMARK UNBOUND:                -0.219
REMARK  Name = Nicotine.pdb
REMARK  2 active torsions:
REMARK  status: ('A' for Active; 'I' for Inactive)
REMARK    1  A    between atoms: C_3  and  C_6
REMARK    2  A    between atoms: N_4  and  C_12
REMARK                            x       y       z     vdW  Elec       q    Type
REMARK                         _______ _______ _______ _____ _____    ______ ____
ROOT
ATOM      1  C   UNL     1       9.705  -3.961   0.911  0.00  0.00    +0.017 C 
ATOM      2  C   UNL     1       8.558  -3.465  -0.007  0.00  0.00    +0.025 C 
ATOM      3  C   UNL     1       7.307  -4.120   0.616  0.00  0.00    +0.088 C 
ATOM      4  N   UNL     1       7.765  -5.286   1.393  0.00  0.00    -0.298 NA
ATOM      5  C   UNL     1       9.233  -5.395   1.256  0.00  0.00    +0.085 C 
ATOM      6  C   UNL     1       7.374  -5.167   2.803  0.00  0.00    +0.105 C 
ENDROOT
BRANCH   3   7
ATOM      7  C   UNL     1       6.365  -4.566  -0.472  0.00  0.00    -0.012 A 
ATOM      8  C   UNL     1       5.004  -4.620  -0.240  0.00  0.00    +0.115 A 
ATOM      9  N   UNL     1       4.172  -5.008  -1.187  0.00  0.00    -0.263 NA
ATOM     10  C   UNL     1       4.600  -5.359  -2.384  0.00  0.00    +0.111 A 
ATOM     11  C   UNL     1       5.948  -5.329  -2.690  0.00  0.00    +0.020 A 
ATOM     12  C   UNL     1       6.851  -4.921  -1.721  0.00  0.00    +0.008 A 
ENDBRANCH   3   7
TORSDOF 1
ENDMDL
MODEL 4
REMARK VINA RESULT:    -3.157      2.617      4.400
REMARK INTER + INTRA:          -3.560
REMARK INTER:                  -3.371
REMARK INTRA:                  -0.188
REMARK UNBOUND:                -0.219
REMARK  Name = Nicotine.pdb
REMARK  2 active torsions:
REMARK  status: ('A' for Active; 'I' for Inactive)
REMARK    1  A    between atoms: C_3  and  C_6
REMARK    2  A    between atoms: N_4  and  C_12
REMARK                            x       y       z     vdW  Elec       q    Type
REMARK                         _______ _______ _______ _____ _____    ______ ____
ROOT
ATOM      1  C   UNL     1       9.961  -2.778  -0.459  0.00  0.00    +0.017 C 
ATOM      2  C   UNL     1       8.671  -3.414   0.122  0.00  0.00    +0.025 C 
ATOM      3  C   UNL     1       8.441  -4.633  -0.795  0.00  0.00    +0.088 C 
ATOM      4  N   UNL     1       9.148  -4.367  -2.061  0.00  0.00    -0.298 NA
ATOM      5  C   UNL     1       9.779  -3.033  -1.976  0.00  0.00    +0.085 C 
ATOM      6  C   UNL     1      10.147  -5.407  -2.335  0.00  0.00    +0.105 C 
ENDROOT
BRANCH   3   7
ATOM      7  C   UNL     1       6.967  -4.808  -1.056  0.00  0.00    -0.012 A 
ATOM      8  C   UNL     1       6.042  -4.495  -0.078  0.00  0.00    +0.115 A 
ATOM      9  N   UNL     1       4.751  -4.645  -0.298  0.00  0.00    -0.263 NA
ATOM     10  C   UNL     1       4.292  -5.096  -1.449  0.00  0.00    +0.111 A 
ATOM     11  C   UNL     1       5.157  -5.430  -2.474  0.00  0.00    +0.020 A 
ATOM     12  C   UNL     1       6.522  -5.281  -2.281  0.00  0.00    +0.008 A 
ENDBRANCH   3   7
TORSDOF 1
ENDMDL
MODEL 5
REMARK VINA RESULT:    -3.091      2.188      3.695
REMARK INTER + INTRA:          -3.491
REMARK INTER:                  -3.294
REMARK INTRA:                  -0.197
REMARK UNBOUND:                -0.219
REMARK  Name = Nicotine.pdb
REMARK  2 active torsions:
REMARK  status: ('A' for Active; 'I' for Inactive)
REMARK    1  A    between atoms: C_3  and  C_6
REMARK    2  A    between atoms: N_4  and  C_12
REMARK                            x       y       z     vdW  Elec       q    Type
REMARK                         _______ _______ _______ _____ _____    ______ ____
ROOT
ATOM      1  C   UNL     1       4.273  -5.155  -1.424  0.00  0.00    +0.017 C 
ATOM      2  C   UNL     1       4.687  -4.503  -0.078  0.00  0.00    +0.025 C 
ATOM      3  C   UNL     1       6.218  -4.367  -0.216  0.00  0.00    +0.088 C 
ATOM      4  N   UNL     1       6.656  -5.347  -1.226  0.00  0.00    -0.298 NA
ATOM      5  C   UNL     1       5.472  -6.096  -1.698  0.00  0.00    +0.085 C 
ATOM      6  C   UNL     1       7.339  -4.682  -2.344  0.00  0.00    +0.105 C 
ENDROOT
BRANCH   3   7
ATOM      7  C   UNL     1       6.880  -4.661   1.105  0.00  0.00    -0.012 A 
ATOM      8  C   UNL     1       6.116  -4.895   2.233  0.00  0.00    +0.115 A 
ATOM      9  N   UNL     1       6.687  -5.153   3.393  0.00  0.00    -0.263 NA
ATOM     10  C   UNL     1       7.998  -5.198   3.526  0.00  0.00    +0.111 A 
ATOM     11  C   UNL     1       8.827  -4.974   2.442  0.00  0.00    +0.020 A 
ATOM     12  C   UNL     1       8.262  -4.705   1.205  0.00  0.00    +0.008 A 
ENDBRANCH   3   7
TORSDOF 1
ENDMDL
MODEL 6
REMARK VINA RESULT:    -3.045      3.111      6.208
REMARK INTER + INTRA:          -3.442
REMARK INTER:                  -3.220
REMARK INTRA:                  -0.222
REMARK UNBOUND:                -0.219
REMARK  Name = Nicotine.pdb
REMARK  2 active torsions:
REMARK  status: ('A' for Active; 'I' for Inactive)
REMARK    1  A    between atoms: C_3  and  C_6
REMARK    2  A    between atoms: N_4  and  C_12
REMARK                            x       y       z     vdW  Elec       q    Type
REMARK                         _______ _______ _______ _____ _____    ______ ____
ROOT
ATOM      1  C   UNL     1       5.926  -5.170  -1.464  0.00  0.00    +0.017 C 
ATOM      2  C   UNL     1       7.317  -4.826  -2.059  0.00  0.00    +0.025 C 
ATOM      3  C   UNL     1       8.211  -4.710  -0.807  0.00  0.00    +0.088 C 
ATOM      4  N   UNL     1       7.325  -4.431   0.338  0.00  0.00    -0.298 NA
ATOM      5  C   UNL     1       5.933  -4.345  -0.153  0.00  0.00    +0.085 C 
ATOM      6  C   UNL     1       7.457  -5.468   1.371  0.00  0.00    +0.105 C 
ENDROOT
BRANCH   3   7
ATOM      7  C   UNL     1       9.195  -3.582  -0.982  0.00  0.00    -0.012 A 
ATOM      8  C   UNL     1       9.310  -2.599  -0.017  0.00  0.00    +0.115 A 
ATOM      9  N   UNL     1      10.169  -1.609  -0.162  0.00  0.00    -0.263 NA
ATOM     10  C   UNL     1      10.945  -1.515  -1.223  0.00  0.00    +0.111 A 
ATOM     11  C   UNL     1      10.886  -2.461  -2.230  0.00  0.00    +0.020 A 
ATOM     12  C   UNL     1       9.999  -3.519  -2.109  0.00  0.00    +0.008 A 
ENDBRANCH   3   7
TORSDOF 1
ENDMDL
MODEL 7
REMARK VINA RESULT:    -2.829      1.793      3.146
REMARK INTER + INTRA:          -3.213
REMARK INTER:                  -3.020
REMARK INTRA:                  -0.194
REMARK UNBOUND:                -0.219
REMARK  Name = Nicotine.pdb
REMARK  2 active torsions:
REMARK  status: ('A' for Active; 'I' for Inactive)
REMARK    1  A    between atoms: C_3  and  C_6
REMARK    2  A    between atoms: N_4  and  C_12
REMARK                            x       y       z     vdW  Elec       q    Type
REMARK                         _______ _______ _______ _____ _____    ______ ____
ROOT
ATOM      1  C   UNL     1       9.707  -4.181   0.785  0.00  0.00    +0.017 C 
ATOM      2  C   UNL     1       8.708  -4.976   1.665  0.00  0.00    +0.025 C 
ATOM      3  C   UNL     1       7.508  -5.192   0.720  0.00  0.00    +0.088 C 
ATOM      4  N   UNL     1       7.580  -4.152  -0.322  0.00  0.00    -0.298 NA
ATOM      5  C   UNL     1       8.751  -3.292  -0.049  0.00  0.00    +0.085 C 
ATOM      6  C   UNL     1       7.667  -4.752  -1.660  0.00  0.00    +0.105 C 
ENDROOT
BRANCH   3   7
ATOM      7  C   UNL     1       6.219  -5.060   1.489  0.00  0.00    -0.012 A 
ATOM      8  C   UNL     1       6.234  -4.956   2.867  0.00  0.00    +0.115 A 
ATOM      9  N   UNL     1       5.111  -4.841   3.547  0.00  0.00    -0.263 NA
ATOM     10  C   UNL     1       3.937  -4.820   2.948  0.00  0.00    +0.111 A 
ATOM     11  C   UNL     1       3.842  -4.919   1.573  0.00  0.00    +0.020 A 
ATOM     12  C   UNL     1       5.002  -5.036   0.823  0.00  0.00    +0.008 A 
ENDBRANCH   3   7
TORSDOF 1
ENDMDL
MODEL 8
REMARK VINA RESULT:    -2.823      2.161      5.408
REMARK INTER + INTRA:          -3.207
REMARK INTER:                  -2.986
REMARK INTRA:                  -0.220
REMARK UNBOUND:                -0.219
REMARK  Name = Nicotine.pdb
REMARK  2 active torsions:
REMARK  status: ('A' for Active; 'I' for Inactive)
REMARK    1  A    between atoms: C_3  and  C_6
REMARK    2  A    between atoms: N_4  and  C_12
REMARK                            x       y       z     vdW  Elec       q    Type
REMARK                         _______ _______ _______ _____ _____    ______ ____
ROOT
ATOM      1  C   UNL     1       0.712  -5.275   5.860  0.00  0.00    +0.017 C 
ATOM      2  C   UNL     1       0.979  -5.936   4.482  0.00  0.00    +0.025 C 
ATOM      3  C   UNL     1       2.515  -5.864   4.354  0.00  0.00    +0.088 C 
ATOM      4  N   UNL     1       2.978  -4.784   5.244  0.00  0.00    -0.298 NA
ATOM      5  C   UNL     1       1.799  -4.172   5.893  0.00  0.00    +0.085 C 
ATOM      6  C   UNL     1       3.925  -5.294   6.244  0.00  0.00    +0.105 C 
ENDROOT
BRANCH   3   7
ATOM      7  C   UNL     1       2.897  -5.556   2.930  0.00  0.00    -0.012 A 
ATOM      8  C   UNL     1       4.177  -5.131   2.625  0.00  0.00    +0.115 A 
ATOM      9  N   UNL     1       4.519  -4.859   1.381  0.00  0.00    -0.263 NA
ATOM     10  C   UNL     1       3.664  -4.979   0.385  0.00  0.00    +0.111 A 
ATOM     11  C   UNL     1       2.367  -5.399   0.612  0.00  0.00    +0.020 A 
ATOM     12  C   UNL     1       1.972  -5.700   1.907  0.00  0.00    +0.008 A 
ENDBRANCH   3   7
TORSDOF 1
ENDMDL
MODEL 9
REMARK VINA RESULT:    -2.691      3.142      6.563
REMARK INTER + INTRA:          -3.067
REMARK INTER:                  -2.854
REMARK INTRA:                  -0.213
REMARK UNBOUND:                -0.219
REMARK  Name = Nicotine.pdb
REMARK  2 active torsions:
REMARK  status: ('A' for Active; 'I' for Inactive)
REMARK    1  A    between atoms: C_3  and  C_6
REMARK    2  A    between atoms: N_4  and  C_12
REMARK                            x       y       z     vdW  Elec       q    Type
REMARK                         _______ _______ _______ _____ _____    ______ ____
ROOT
ATOM      1  C   UNL     1       7.784  -5.577   1.918  0.00  0.00    +0.017 C 
ATOM      2  C   UNL     1       8.648  -4.329   1.596  0.00  0.00    +0.025 C 
ATOM      3  C   UNL     1       7.987  -3.769   0.319  0.00  0.00    +0.088 C 
ATOM      4  N   UNL     1       7.248  -4.877  -0.313  0.00  0.00    -0.298 NA
ATOM      5  C   UNL     1       7.445  -6.097   0.499  0.00  0.00    +0.085 C 
ATOM      6  C   UNL     1       5.822  -4.554  -0.442  0.00  0.00    +0.105 C 
ENDROOT
BRANCH   3   7
ATOM      7  C   UNL     1       9.044  -3.252  -0.622  0.00  0.00    -0.012 A 
ATOM      8  C   UNL     1       9.286  -3.895  -1.821  0.00  0.00    +0.115 A 
ATOM      9  N   UNL     1      10.210  -3.449  -2.651  0.00  0.00    -0.263 NA
ATOM     10  C   UNL     1      10.934  -2.383  -2.374  0.00  0.00    +0.111 A 
ATOM     11  C   UNL     1      10.748  -1.688  -1.193  0.00  0.00    +0.020 A 
ATOM     12  C   UNL     1       9.782  -2.124  -0.299  0.00  0.00    +0.008 A 
ENDBRANCH   3   7
TORSDOF 1
ENDMDL
MODEL 10
REMARK VINA RESULT:    -2.615      1.770      2.388
REMARK INTER + INTRA:          -2.987
REMARK INTER:                  -2.772
REMARK INTRA:                  -0.215
REMARK UNBOUND:                -0.219
REMARK  Name = Nicotine.pdb
REMARK  2 active torsions:
REMARK  status: ('A' for Active; 'I' for Inactive)
REMARK    1  A    between atoms: C_3  and  C_6
REMARK    2  A    between atoms: N_4  and  C_12
REMARK                            x       y       z     vdW  Elec       q    Type
REMARK                         _______ _______ _______ _____ _____    ______ ____
ROOT
ATOM      1  C   UNL     1       7.893  -5.286  -2.393  0.00  0.00    +0.017 C 
ATOM      2  C   UNL     1       6.558  -4.957  -1.675  0.00  0.00    +0.025 C 
ATOM      3  C   UNL     1       7.022  -4.236  -0.392  0.00  0.00    +0.088 C 
ATOM      4  N   UNL     1       8.416  -4.642  -0.142  0.00  0.00    -0.298 NA
ATOM      5  C   UNL     1       8.824  -5.597  -1.194  0.00  0.00    +0.085 C 
ATOM      6  C   UNL     1       9.308  -3.475  -0.114  0.00  0.00    +0.105 C 
ENDROOT
BRANCH   3   7
ATOM      7  C   UNL     1       6.152  -4.643   0.769  0.00  0.00    -0.012 A 
ATOM      8  C   UNL     1       6.672  -4.696   2.048  0.00  0.00    +0.115 A 
ATOM      9  N   UNL     1       5.917  -5.052   3.069  0.00  0.00    -0.263 NA
ATOM     10  C   UNL     1       4.647  -5.370   2.915  0.00  0.00    +0.111 A 
ATOM     11  C   UNL     1       4.057  -5.340   1.665  0.00  0.00    +0.020 A 
ATOM     12  C   UNL     1       4.818  -4.965   0.569  0.00  0.00    +0.008 A 
ENDBRANCH   3   7
TORSDOF 1
ENDMDL
