MODEL 1
REMARK VINA RESULT:    10.939      0.000      0.000
REMARK INTER + INTRA:          11.375
REMARK INTER:                  11.578
REMARK INTRA:                  -0.203
REMARK UNBOUND:                -0.203
REMARK  Name = Nicotine.pdb
REMARK  2 active torsions:
REMARK  status: ('A' for Active; 'I' for Inactive)
REMARK    1  A    between atoms: C_3  and  C_6
REMARK    2  A    between atoms: N_4  and  C_12
REMARK                            x       y       z     vdW  Elec       q    Type
REMARK                         _______ _______ _______ _____ _____    ______ ____
ROOT
ATOM      1  C   UNL     1      -5.171   6.735  -2.960  0.00  0.00    +0.017 C 
ATOM      2  C   UNL     1      -5.064   7.028  -1.441  0.00  0.00    +0.025 C 
ATOM      3  C   UNL     1      -3.970   6.043  -0.974  0.00  0.00    +0.088 C 
ATOM      4  N   UNL     1      -3.914   4.952  -1.963  0.00  0.00    -0.298 NA
ATOM      5  C   UNL     1      -4.936   5.205  -3.002  0.00  0.00    +0.085 C 
ATOM      6  C   UNL     1      -2.574   4.847  -2.556  0.00  0.00    +0.105 C 
ENDROOT
BRANCH   3   7
ATOM      7  C   UNL     1      -4.324   5.490   0.382  0.00  0.00    -0.012 A 
ATOM      8  C   UNL     1      -4.768   4.187   0.511  0.00  0.00    +0.115 A 
ATOM      9  N   UNL     1      -5.080   3.695   1.694  0.00  0.00    -0.263 NA
ATOM     10  C   UNL     1      -4.982   4.417   2.793  0.00  0.00    +0.111 A 
ATOM     11  C   UNL     1      -4.545   5.727   2.742  0.00  0.00    +0.020 A 
ATOM     12  C   UNL     1      -4.203   6.278   1.516  0.00  0.00    +0.008 A 
ENDBRANCH   3   7
TORSDOF 1
ENDMDL
MODEL 2
REMARK VINA RESULT:    12.368      1.259      2.321
REMARK INTER + INTRA:          12.888
REMARK INTER:                  13.109
REMARK INTRA:                  -0.221
REMARK UNBOUND:                -0.203
REMARK  Name = Nicotine.pdb
REMARK  2 active torsions:
REMARK  status: ('A' for Active; 'I' for Inactive)
REMARK    1  A    between atoms: C_3  and  C_6
REMARK    2  A    between atoms: N_4  and  C_12
REMARK                            x       y       z     vdW  Elec       q    Type
REMARK                         _______ _______ _______ _____ _____    ______ ____
ROOT
ATOM      1  C   UNL     1      -2.861   4.765  -2.752  0.00  0.00    +0.017 C 
ATOM      2  C   UNL     1      -3.536   4.124  -1.511  0.00  0.00    +0.025 C 
ATOM      3  C   UNL     1      -4.588   5.178  -1.106  0.00  0.00    +0.088 C 
ATOM      4  N   UNL     1      -4.151   6.470  -1.665  0.00  0.00    -0.298 NA
ATOM      5  C   UNL     1      -2.868   6.267  -2.372  0.00  0.00    +0.085 C 
ATOM      6  C   UNL     1      -5.168   7.026  -2.567  0.00  0.00    +0.105 C 
ENDROOT
BRANCH   3   7
ATOM      7  C   UNL     1      -4.671   5.270   0.396  0.00  0.00    -0.012 A 
ATOM      8  C   UNL     1      -4.363   6.452   1.042  0.00  0.00    +0.115 A 
ATOM      9  N   UNL     1      -4.432   6.541   2.356  0.00  0.00    -0.263 NA
ATOM     10  C   UNL     1      -4.795   5.515   3.101  0.00  0.00    +0.111 A 
ATOM     11  C   UNL     1      -5.118   4.301   2.525  0.00  0.00    +0.020 A 
ATOM     12  C   UNL     1      -5.062   4.172   1.146  0.00  0.00    +0.008 A 
ENDBRANCH   3   7
TORSDOF 1
ENDMDL
MODEL 3
REMARK VINA RESULT:    12.913      1.390      4.756
REMARK INTER + INTRA:          13.465
REMARK INTER:                  13.719
REMARK INTRA:                  -0.254
REMARK UNBOUND:                -0.203
REMARK  Name = Nicotine.pdb
REMARK  2 active torsions:
REMARK  status: ('A' for Active; 'I' for Inactive)
REMARK    1  A    between atoms: C_3  and  C_6
REMARK    2  A    between atoms: N_4  and  C_12
REMARK                            x       y       z     vdW  Elec       q    Type
REMARK                         _______ _______ _______ _____ _____    ______ ____
ROOT
ATOM      1  C   UNL     1      -3.680   3.974   3.106  0.00  0.00    +0.017 C 
ATOM      2  C   UNL     1      -3.086   4.396   1.736  0.00  0.00    +0.025 C 
ATOM      3  C   UNL     1      -3.841   5.705   1.419  0.00  0.00    +0.088 C 
ATOM      4  N   UNL     1      -5.092   5.687   2.197  0.00  0.00    -0.298 NA
ATOM      5  C   UNL     1      -5.156   4.421   2.958  0.00  0.00    +0.085 C 
ATOM      6  C   UNL     1      -5.170   6.846   3.096  0.00  0.00    +0.105 C 
ENDROOT
BRANCH   3   7
ATOM      7  C   UNL     1      -4.153   5.772  -0.054  0.00  0.00    -0.012 A 
ATOM      8  C   UNL     1      -4.578   6.957  -0.625  0.00  0.00    +0.115 A 
ATOM      9  N   UNL     1      -4.853   7.025  -1.913  0.00  0.00    -0.263 NA
ATOM     10  C   UNL     1      -4.736   5.976  -2.703  0.00  0.00    +0.111 A 
ATOM     11  C   UNL     1      -4.316   4.757  -2.203  0.00  0.00    +0.020 A 
ATOM     12  C   UNL     1      -4.013   4.649  -0.855  0.00  0.00    +0.008 A 
ENDBRANCH   3   7
TORSDOF 1
ENDMDL
