MODEL 1
REMARK VINA RESULT:    -3.575      0.000      0.000
REMARK INTER + INTRA:          -3.955
REMARK INTER:                  -3.784
REMARK INTRA:                  -0.171
REMARK UNBOUND:                -0.171
REMARK  Name = Nicotine.pdb
REMARK  2 active torsions:
REMARK  status: ('A' for Active; 'I' for Inactive)
REMARK    1  A    between atoms: C_3  and  C_6
REMARK    2  A    between atoms: N_4  and  C_12
REMARK                            x       y       z     vdW  Elec       q    Type
REMARK                         _______ _______ _______ _____ _____    ______ ____
ROOT
ATOM      1  C   UNL     1      10.416   5.004  -0.468  0.00  0.00    +0.017 C 
ATOM      2  C   UNL     1       9.685   5.123  -1.831  0.00  0.00    +0.025 C 
ATOM      3  C   UNL     1       8.328   4.439  -1.558  0.00  0.00    +0.088 C 
ATOM      4  N   UNL     1       8.515   3.542  -0.403  0.00  0.00    -0.298 NA
ATOM      5  C   UNL     1       9.926   3.621   0.031  0.00  0.00    +0.085 C 
ATOM      6  C   UNL     1       7.606   3.898   0.693  0.00  0.00    +0.105 C 
ENDROOT
BRANCH   3   7
ATOM      7  C   UNL     1       7.903   3.643  -2.764  0.00  0.00    -0.012 A 
ATOM      8  C   UNL     1       8.606   2.513  -3.139  0.00  0.00    +0.115 A 
ATOM      9  N   UNL     1       8.241   1.810  -4.193  0.00  0.00    -0.263 NA
ATOM     10  C   UNL     1       7.201   2.152  -4.928  0.00  0.00    +0.111 A 
ATOM     11  C   UNL     1       6.450   3.269  -4.614  0.00  0.00    +0.020 A 
ATOM     12  C   UNL     1       6.800   4.030  -3.510  0.00  0.00    +0.008 A 
ENDBRANCH   3   7
TORSDOF 1
ENDMDL
MODEL 2
REMARK VINA RESULT:    -3.517      1.461      2.225
REMARK INTER + INTRA:          -3.894
REMARK INTER:                  -3.701
REMARK INTRA:                  -0.193
REMARK UNBOUND:                -0.171
REMARK  Name = Nicotine.pdb
REMARK  2 active torsions:
REMARK  status: ('A' for Active; 'I' for Inactive)
REMARK    1  A    between atoms: C_3  and  C_6
REMARK    2  A    between atoms: N_4  and  C_12
REMARK                            x       y       z     vdW  Elec       q    Type
REMARK                         _______ _______ _______ _____ _____    ______ ____
ROOT
ATOM      1  C   UNL     1       8.743   5.597  -0.842  0.00  0.00    +0.017 C 
ATOM      2  C   UNL     1       7.636   4.746  -1.520  0.00  0.00    +0.025 C 
ATOM      3  C   UNL     1       8.404   3.496  -1.999  0.00  0.00    +0.088 C 
ATOM      4  N   UNL     1       9.825   3.871  -2.109  0.00  0.00    -0.298 NA
ATOM      5  C   UNL     1       9.965   5.297  -1.746  0.00  0.00    +0.085 C 
ATOM      6  C   UNL     1      10.662   3.024  -1.250  0.00  0.00    +0.105 C 
ENDROOT
BRANCH   3   7
ATOM      7  C   UNL     1       7.882   3.057  -3.342  0.00  0.00    -0.012 A 
ATOM      8  C   UNL     1       6.745   3.636  -3.874  0.00  0.00    +0.115 A 
ATOM      9  N   UNL     1       6.282   3.259  -5.049  0.00  0.00    -0.263 NA
ATOM     10  C   UNL     1       6.877   2.322  -5.760  0.00  0.00    +0.111 A 
ATOM     11  C   UNL     1       8.019   1.698  -5.294  0.00  0.00    +0.020 A 
ATOM     12  C   UNL     1       8.539   2.072  -4.064  0.00  0.00    +0.008 A 
ENDBRANCH   3   7
TORSDOF 1
ENDMDL
MODEL 3
REMARK VINA RESULT:    -3.434      1.340      4.553
REMARK INTER + INTRA:          -3.806
REMARK INTER:                  -3.590
REMARK INTRA:                  -0.216
REMARK UNBOUND:                -0.171
REMARK  Name = Nicotine.pdb
REMARK  2 active torsions:
REMARK  status: ('A' for Active; 'I' for Inactive)
REMARK    1  A    between atoms: C_3  and  C_6
REMARK    2  A    between atoms: N_4  and  C_12
REMARK                            x       y       z     vdW  Elec       q    Type
REMARK                         _______ _______ _______ _____ _____    ______ ____
ROOT
ATOM      1  C   UNL     1       5.701   2.530  -5.344  0.00  0.00    +0.017 C 
ATOM      2  C   UNL     1       6.257   3.747  -4.558  0.00  0.00    +0.025 C 
ATOM      3  C   UNL     1       7.642   3.254  -4.089  0.00  0.00    +0.088 C 
ATOM      4  N   UNL     1       7.607   1.781  -4.094  0.00  0.00    -0.298 NA
ATOM      5  C   UNL     1       6.259   1.344  -4.519  0.00  0.00    +0.085 C 
ATOM      6  C   UNL     1       8.642   1.232  -4.979  0.00  0.00    +0.105 C 
ENDROOT
BRANCH   3   7
ATOM      7  C   UNL     1       7.921   3.757  -2.697  0.00  0.00    -0.012 A 
ATOM      8  C   UNL     1       8.815   3.092  -1.879  0.00  0.00    +0.115 A 
ATOM      9  N   UNL     1       9.065   3.525  -0.659  0.00  0.00    -0.263 NA
ATOM     10  C   UNL     1       8.477   4.600  -0.172  0.00  0.00    +0.111 A 
ATOM     11  C   UNL     1       7.572   5.318  -0.931  0.00  0.00    +0.020 A 
ATOM     12  C   UNL     1       7.288   4.895  -2.220  0.00  0.00    +0.008 A 
ENDBRANCH   3   7
TORSDOF 1
ENDMDL
MODEL 4
REMARK VINA RESULT:    -3.373      1.596      4.776
REMARK INTER + INTRA:          -3.742
REMARK INTER:                  -3.524
REMARK INTRA:                  -0.217
REMARK UNBOUND:                -0.171
REMARK  Name = Nicotine.pdb
REMARK  2 active torsions:
REMARK  status: ('A' for Active; 'I' for Inactive)
REMARK    1  A    between atoms: C_3  and  C_6
REMARK    2  A    between atoms: N_4  and  C_12
REMARK                            x       y       z     vdW  Elec       q    Type
REMARK                         _______ _______ _______ _____ _____    ______ ____
ROOT
ATOM      1  C   UNL     1       8.306   1.463  -6.233  0.00  0.00    +0.017 C 
ATOM      2  C   UNL     1       8.853   1.734  -4.807  0.00  0.00    +0.025 C 
ATOM      3  C   UNL     1       7.585   2.126  -4.018  0.00  0.00    +0.088 C 
ATOM      4  N   UNL     1       6.587   2.591  -4.998  0.00  0.00    -0.298 NA
ATOM      5  C   UNL     1       7.188   2.529  -6.347  0.00  0.00    +0.085 C 
ATOM      6  C   UNL     1       5.363   1.783  -4.928  0.00  0.00    +0.105 C 
ENDROOT
BRANCH   3   7
ATOM      7  C   UNL     1       7.907   3.232  -3.047  0.00  0.00    -0.012 A 
ATOM      8  C   UNL     1       7.012   4.265  -2.842  0.00  0.00    +0.115 A 
ATOM      9  N   UNL     1       7.286   5.237  -1.994  0.00  0.00    -0.263 NA
ATOM     10  C   UNL     1       8.414   5.265  -1.313  0.00  0.00    +0.111 A 
ATOM     11  C   UNL     1       9.357   4.266  -1.465  0.00  0.00    +0.020 A 
ATOM     12  C   UNL     1       9.102   3.224  -2.343  0.00  0.00    +0.008 A 
ENDBRANCH   3   7
TORSDOF 1
ENDMDL
MODEL 5
REMARK VINA RESULT:    -3.284      1.643      4.691
REMARK INTER + INTRA:          -3.647
REMARK INTER:                  -3.446
REMARK INTRA:                  -0.202
REMARK UNBOUND:                -0.171
REMARK  Name = Nicotine.pdb
REMARK  2 active torsions:
REMARK  status: ('A' for Active; 'I' for Inactive)
REMARK    1  A    between atoms: C_3  and  C_6
REMARK    2  A    between atoms: N_4  and  C_12
REMARK                            x       y       z     vdW  Elec       q    Type
REMARK                         _______ _______ _______ _____ _____    ______ ____
ROOT
ATOM      1  C   UNL     1       7.108   3.674  -3.882  0.00  0.00    +0.017 C 
ATOM      2  C   UNL     1       6.938   4.708  -2.739  0.00  0.00    +0.025 C 
ATOM      3  C   UNL     1       8.170   4.444  -1.846  0.00  0.00    +0.088 C 
ATOM      4  N   UNL     1       8.625   3.071  -2.125  0.00  0.00    -0.298 NA
ATOM      5  C   UNL     1       7.719   2.468  -3.125  0.00  0.00    +0.085 C 
ATOM      6  C   UNL     1      10.015   3.062  -2.599  0.00  0.00    +0.105 C 
ENDROOT
BRANCH   3   7
ATOM      7  C   UNL     1       7.788   4.575  -0.394  0.00  0.00    -0.012 A 
ATOM      8  C   UNL     1       7.682   5.823   0.191  0.00  0.00    +0.115 A 
ATOM      9  N   UNL     1       7.349   5.946   1.461  0.00  0.00    -0.263 NA
ATOM     10  C   UNL     1       7.106   4.895   2.219  0.00  0.00    +0.111 A 
ATOM     11  C   UNL     1       7.192   3.615   1.703  0.00  0.00    +0.020 A 
ATOM     12  C   UNL     1       7.534   3.447   0.370  0.00  0.00    +0.008 A 
ENDBRANCH   3   7
TORSDOF 1
ENDMDL
MODEL 6
REMARK VINA RESULT:    -3.226      3.743      5.872
REMARK INTER + INTRA:          -3.586
REMARK INTER:                  -3.333
REMARK INTRA:                  -0.253
REMARK UNBOUND:                -0.171
REMARK  Name = Nicotine.pdb
REMARK  2 active torsions:
REMARK  status: ('A' for Active; 'I' for Inactive)
REMARK    1  A    between atoms: C_3  and  C_6
REMARK    2  A    between atoms: N_4  and  C_12
REMARK                            x       y       z     vdW  Elec       q    Type
REMARK                         _______ _______ _______ _____ _____    ______ ____
ROOT
ATOM      1  C   UNL     1       5.917   6.960   5.184  0.00  0.00    +0.017 C 
ATOM      2  C   UNL     1       5.674   6.645   3.684  0.00  0.00    +0.025 C 
ATOM      3  C   UNL     1       5.923   5.124   3.605  0.00  0.00    +0.088 C 
ATOM      4  N   UNL     1       6.767   4.758   4.756  0.00  0.00    -0.298 NA
ATOM      5  C   UNL     1       7.070   5.983   5.526  0.00  0.00    +0.085 C 
ATOM      6  C   UNL     1       6.102   3.756   5.600  0.00  0.00    +0.105 C 
ENDROOT
BRANCH   3   7
ATOM      7  C   UNL     1       6.634   4.787   2.319  0.00  0.00    -0.012 A 
ATOM      8  C   UNL     1       6.749   3.473   1.908  0.00  0.00    +0.115 A 
ATOM      9  N   UNL     1       7.369   3.169   0.784  0.00  0.00    -0.263 NA
ATOM     10  C   UNL     1       7.901   4.098   0.014  0.00  0.00    +0.111 A 
ATOM     11  C   UNL     1       7.824   5.434   0.360  0.00  0.00    +0.020 A 
ATOM     12  C   UNL     1       7.175   5.791   1.531  0.00  0.00    +0.008 A 
ENDBRANCH   3   7
TORSDOF 1
ENDMDL
MODEL 7
REMARK VINA RESULT:    -3.210      1.513      2.129
REMARK INTER + INTRA:          -3.569
REMARK INTER:                  -3.324
REMARK INTRA:                  -0.244
REMARK UNBOUND:                -0.171
REMARK  Name = Nicotine.pdb
REMARK  2 active torsions:
REMARK  status: ('A' for Active; 'I' for Inactive)
REMARK    1  A    between atoms: C_3  and  C_6
REMARK    2  A    between atoms: N_4  and  C_12
REMARK                            x       y       z     vdW  Elec       q    Type
REMARK                         _______ _______ _______ _____ _____    ______ ____
ROOT
ATOM      1  C   UNL     1      10.008   4.130   1.371  0.00  0.00    +0.017 C 
ATOM      2  C   UNL     1      10.078   4.140  -0.179  0.00  0.00    +0.025 C 
ATOM      3  C   UNL     1       8.802   4.911  -0.578  0.00  0.00    +0.088 C 
ATOM      4  N   UNL     1       7.860   4.813   0.551  0.00  0.00    -0.298 NA
ATOM      5  C   UNL     1       8.484   3.998   1.615  0.00  0.00    +0.085 C 
ATOM      6  C   UNL     1       7.497   6.145   1.052  0.00  0.00    +0.105 C 
ENDROOT
BRANCH   3   7
ATOM      7  C   UNL     1       8.194   4.293  -1.810  0.00  0.00    -0.012 A 
ATOM      8  C   UNL     1       7.077   4.858  -2.398  0.00  0.00    +0.115 A 
ATOM      9  N   UNL     1       6.539   4.323  -3.476  0.00  0.00    -0.263 NA
ATOM     10  C   UNL     1       7.037   3.238  -4.034  0.00  0.00    +0.111 A 
ATOM     11  C   UNL     1       8.152   2.617  -3.503  0.00  0.00    +0.020 A 
ATOM     12  C   UNL     1       8.749   3.154  -2.373  0.00  0.00    +0.008 A 
ENDBRANCH   3   7
TORSDOF 1
ENDMDL
MODEL 8
REMARK VINA RESULT:    -3.177      2.644      5.197
REMARK INTER + INTRA:          -3.534
REMARK INTER:                  -3.339
REMARK INTRA:                  -0.195
REMARK UNBOUND:                -0.171
REMARK  Name = Nicotine.pdb
REMARK  2 active torsions:
REMARK  status: ('A' for Active; 'I' for Inactive)
REMARK    1  A    between atoms: C_3  and  C_6
REMARK    2  A    between atoms: N_4  and  C_12
REMARK                            x       y       z     vdW  Elec       q    Type
REMARK                         _______ _______ _______ _____ _____    ______ ____
ROOT
ATOM      1  C   UNL     1       8.910   3.887  -1.830  0.00  0.00    +0.017 C 
ATOM      2  C   UNL     1       7.618   4.390  -1.133  0.00  0.00    +0.025 C 
ATOM      3  C   UNL     1       8.131   5.536  -0.236  0.00  0.00    +0.088 C 
ATOM      4  N   UNL     1       9.569   5.304  -0.010  0.00  0.00    -0.298 NA
ATOM      5  C   UNL     1       9.959   4.057  -0.703  0.00  0.00    +0.085 C 
ATOM      6  C   UNL     1      10.368   6.442  -0.483  0.00  0.00    +0.105 C 
ENDROOT
BRANCH   3   7
ATOM      7  C   UNL     1       7.396   5.527   1.079  0.00  0.00    -0.012 A 
ATOM      8  C   UNL     1       7.278   4.357   1.805  0.00  0.00    +0.115 A 
ATOM      9  N   UNL     1       6.637   4.340   2.958  0.00  0.00    -0.263 NA
ATOM     10  C   UNL     1       6.086   5.427   3.460  0.00  0.00    +0.111 A 
ATOM     11  C   UNL     1       6.164   6.634   2.791  0.00  0.00    +0.020 A 
ATOM     12  C   UNL     1       6.835   6.692   1.579  0.00  0.00    +0.008 A 
ENDBRANCH   3   7
TORSDOF 1
ENDMDL
MODEL 9
REMARK VINA RESULT:    -3.137      3.450      6.439
REMARK INTER + INTRA:          -3.491
REMARK INTER:                  -3.255
REMARK INTRA:                  -0.237
REMARK UNBOUND:                -0.171
REMARK  Name = Nicotine.pdb
REMARK  2 active torsions:
REMARK  status: ('A' for Active; 'I' for Inactive)
REMARK    1  A    between atoms: C_3  and  C_6
REMARK    2  A    between atoms: N_4  and  C_12
REMARK                            x       y       z     vdW  Elec       q    Type
REMARK                         _______ _______ _______ _____ _____    ______ ____
ROOT
ATOM      1  C   UNL     1       7.719   5.486  -0.391  0.00  0.00    +0.017 C 
ATOM      2  C   UNL     1       7.252   6.169   0.922  0.00  0.00    +0.025 C 
ATOM      3  C   UNL     1       7.902   5.297   2.017  0.00  0.00    +0.088 C 
ATOM      4  N   UNL     1       8.183   3.980   1.418  0.00  0.00    -0.298 NA
ATOM      5  C   UNL     1       7.714   3.991   0.016  0.00  0.00    +0.085 C 
ATOM      6  C   UNL     1       9.614   3.661   1.493  0.00  0.00    +0.105 C 
ENDROOT
BRANCH   3   7
ATOM      7  C   UNL     1       6.955   5.142   3.178  0.00  0.00    -0.012 A 
ATOM      8  C   UNL     1       7.298   4.355   4.261  0.00  0.00    +0.115 A 
ATOM      9  N   UNL     1       6.475   4.214   5.281  0.00  0.00    -0.263 NA
ATOM     10  C   UNL     1       5.301   4.812   5.312  0.00  0.00    +0.111 A 
ATOM     11  C   UNL     1       4.889   5.616   4.265  0.00  0.00    +0.020 A 
ATOM     12  C   UNL     1       5.730   5.792   3.178  0.00  0.00    +0.008 A 
ENDBRANCH   3   7
TORSDOF 1
ENDMDL
MODEL 10
REMARK VINA RESULT:    -3.134      3.791      6.169
REMARK INTER + INTRA:          -3.488
REMARK INTER:                  -3.289
REMARK INTRA:                  -0.199
REMARK UNBOUND:                -0.171
REMARK  Name = Nicotine.pdb
REMARK  2 active torsions:
REMARK  status: ('A' for Active; 'I' for Inactive)
REMARK    1  A    between atoms: C_3  and  C_6
REMARK    2  A    between atoms: N_4  and  C_12
REMARK                            x       y       z     vdW  Elec       q    Type
REMARK                         _______ _______ _______ _____ _____    ______ ____
ROOT
ATOM      1  C   UNL     1       5.507   4.134   5.866  0.00  0.00    +0.017 C 
ATOM      2  C   UNL     1       6.517   3.548   4.844  0.00  0.00    +0.025 C 
ATOM      3  C   UNL     1       7.091   4.807   4.161  0.00  0.00    +0.088 C 
ATOM      4  N   UNL     1       6.110   5.891   4.348  0.00  0.00    -0.298 NA
ATOM      5  C   UNL     1       4.950   5.354   5.090  0.00  0.00    +0.085 C 
ATOM      6  C   UNL     1       6.709   7.028   5.060  0.00  0.00    +0.105 C 
ENDROOT
BRANCH   3   7
ATOM      7  C   UNL     1       7.295   4.546   2.691  0.00  0.00    -0.012 A 
ATOM      8  C   UNL     1       7.021   3.301   2.158  0.00  0.00    +0.115 A 
ATOM      9  N   UNL     1       7.196   3.065   0.872  0.00  0.00    -0.263 NA
ATOM     10  C   UNL     1       7.637   3.996   0.050  0.00  0.00    +0.111 A 
ATOM     11  C   UNL     1       7.932   5.265   0.511  0.00  0.00    +0.020 A 
ATOM     12  C   UNL     1       7.754   5.553   1.856  0.00  0.00    +0.008 A 
ENDBRANCH   3   7
TORSDOF 1
ENDMDL
