MODEL 1
REMARK VINA RESULT:    -4.046      0.000      0.000
REMARK INTER + INTRA:          -4.498
REMARK INTER:                  -4.283
REMARK INTRA:                  -0.215
REMARK UNBOUND:                -0.215
REMARK  Name = Nicotine.pdb
REMARK  2 active torsions:
REMARK  status: ('A' for Active; 'I' for Inactive)
REMARK    1  A    between atoms: C_3  and  C_6
REMARK    2  A    between atoms: N_4  and  C_12
REMARK                            x       y       z     vdW  Elec       q    Type
REMARK                         _______ _______ _______ _____ _____    ______ ____
ROOT
ATOM      1  C   UNL     1      10.293   6.715   2.397  0.00  0.00    +0.017 C 
ATOM      2  C   UNL     1       8.903   6.243   2.900  0.00  0.00    +0.025 C 
ATOM      3  C   UNL     1       8.462   5.241   1.812  0.00  0.00    +0.088 C 
ATOM      4  N   UNL     1       9.217   5.566   0.588  0.00  0.00    -0.298 NA
ATOM      5  C   UNL     1      10.081   6.733   0.863  0.00  0.00    +0.085 C 
ATOM      6  C   UNL     1      10.012   4.416   0.138  0.00  0.00    +0.105 C 
ENDROOT
BRANCH   3   7
ATOM      7  C   UNL     1       6.984   5.380   1.556  0.00  0.00    -0.012 A 
ATOM      8  C   UNL     1       6.338   6.573   1.820  0.00  0.00    +0.115 A 
ATOM      9  N   UNL     1       5.044   6.703   1.600  0.00  0.00    -0.263 NA
ATOM     10  C   UNL     1       4.319   5.710   1.122  0.00  0.00    +0.111 A 
ATOM     11  C   UNL     1       4.896   4.488   0.834  0.00  0.00    +0.020 A 
ATOM     12  C   UNL     1       6.255   4.315   1.048  0.00  0.00    +0.008 A 
ENDBRANCH   3   7
TORSDOF 1
ENDMDL
MODEL 2
REMARK VINA RESULT:    -3.976      1.954      4.659
REMARK INTER + INTRA:          -4.424
REMARK INTER:                  -4.196
REMARK INTRA:                  -0.228
REMARK UNBOUND:                -0.215
REMARK  Name = Nicotine.pdb
REMARK  2 active torsions:
REMARK  status: ('A' for Active; 'I' for Inactive)
REMARK    1  A    between atoms: C_3  and  C_6
REMARK    2  A    between atoms: N_4  and  C_12
REMARK                            x       y       z     vdW  Elec       q    Type
REMARK                         _______ _______ _______ _____ _____    ______ ____
ROOT
ATOM      1  C   UNL     1       5.600   4.017   1.338  0.00  0.00    +0.017 C 
ATOM      2  C   UNL     1       7.134   4.216   1.456  0.00  0.00    +0.025 C 
ATOM      3  C   UNL     1       7.366   5.564   0.740  0.00  0.00    +0.088 C 
ATOM      4  N   UNL     1       6.223   5.778  -0.166  0.00  0.00    -0.298 NA
ATOM      5  C   UNL     1       5.314   4.617  -0.061  0.00  0.00    +0.085 C 
ATOM      6  C   UNL     1       5.522   7.028   0.157  0.00  0.00    +0.105 C 
ENDROOT
BRANCH   3   7
ATOM      7  C   UNL     1       8.647   5.510  -0.051  0.00  0.00    -0.012 A 
ATOM      8  C   UNL     1       8.980   6.540  -0.911  0.00  0.00    +0.115 A 
ATOM      9  N   UNL     1      10.100   6.501  -1.607  0.00  0.00    -0.263 NA
ATOM     10  C   UNL     1      10.939   5.489  -1.513  0.00  0.00    +0.111 A 
ATOM     11  C   UNL     1      10.673   4.424  -0.674  0.00  0.00    +0.020 A 
ATOM     12  C   UNL     1       9.508   4.432   0.078  0.00  0.00    +0.008 A 
ENDBRANCH   3   7
TORSDOF 1
ENDMDL
MODEL 3
REMARK VINA RESULT:    -3.717      1.067      1.808
REMARK INTER + INTRA:          -4.149
REMARK INTER:                  -3.951
REMARK INTRA:                  -0.199
REMARK UNBOUND:                -0.215
REMARK  Name = Nicotine.pdb
REMARK  2 active torsions:
REMARK  status: ('A' for Active; 'I' for Inactive)
REMARK    1  A    between atoms: C_3  and  C_6
REMARK    2  A    between atoms: N_4  and  C_12
REMARK                            x       y       z     vdW  Elec       q    Type
REMARK                         _______ _______ _______ _____ _____    ______ ____
ROOT
ATOM      1  C   UNL     1      10.255   6.719  -0.188  0.00  0.00    +0.017 C 
ATOM      2  C   UNL     1       8.728   6.991  -0.228  0.00  0.00    +0.025 C 
ATOM      3  C   UNL     1       8.298   6.773   1.239  0.00  0.00    +0.088 C 
ATOM      4  N   UNL     1       9.319   5.919   1.871  0.00  0.00    -0.298 NA
ATOM      5  C   UNL     1      10.343   5.581   0.859  0.00  0.00    +0.085 C 
ATOM      6  C   UNL     1       9.925   6.591   3.029  0.00  0.00    +0.105 C 
ENDROOT
BRANCH   3   7
ATOM      7  C   UNL     1       6.956   6.088   1.283  0.00  0.00    -0.012 A 
ATOM      8  C   UNL     1       5.828   6.786   1.670  0.00  0.00    +0.115 A 
ATOM      9  N   UNL     1       4.650   6.195   1.711  0.00  0.00    -0.263 NA
ATOM     10  C   UNL     1       4.500   4.925   1.390  0.00  0.00    +0.111 A 
ATOM     11  C   UNL     1       5.584   4.163   0.994  0.00  0.00    +0.020 A 
ATOM     12  C   UNL     1       6.837   4.752   0.933  0.00  0.00    +0.008 A 
ENDBRANCH   3   7
TORSDOF 1
ENDMDL
MODEL 4
REMARK VINA RESULT:    -3.604      1.027      4.521
REMARK INTER + INTRA:          -4.030
REMARK INTER:                  -3.775
REMARK INTRA:                  -0.255
REMARK UNBOUND:                -0.215
REMARK  Name = Nicotine.pdb
REMARK  2 active torsions:
REMARK  status: ('A' for Active; 'I' for Inactive)
REMARK    1  A    between atoms: C_3  and  C_6
REMARK    2  A    between atoms: N_4  and  C_12
REMARK                            x       y       z     vdW  Elec       q    Type
REMARK                         _______ _______ _______ _____ _____    ______ ____
ROOT
ATOM      1  C   UNL     1       4.887   4.462   0.579  0.00  0.00    +0.017 C 
ATOM      2  C   UNL     1       6.314   4.008   0.983  0.00  0.00    +0.025 C 
ATOM      3  C   UNL     1       6.856   5.223   1.766  0.00  0.00    +0.088 C 
ATOM      4  N   UNL     1       6.078   6.400   1.338  0.00  0.00    -0.298 NA
ATOM      5  C   UNL     1       5.102   5.973   0.313  0.00  0.00    +0.085 C 
ATOM      6  C   UNL     1       5.402   7.028   2.480  0.00  0.00    +0.105 C 
ENDROOT
BRANCH   3   7
ATOM      7  C   UNL     1       8.314   5.428   1.448  0.00  0.00    -0.012 A 
ATOM      8  C   UNL     1       9.097   6.238   2.250  0.00  0.00    +0.115 A 
ATOM      9  N   UNL     1      10.374   6.422   1.979  0.00  0.00    -0.263 NA
ATOM     10  C   UNL     1      10.953   5.848   0.943  0.00  0.00    +0.111 A 
ATOM     11  C   UNL     1      10.235   5.025   0.097  0.00  0.00    +0.020 A 
ATOM     12  C   UNL     1       8.890   4.803   0.353  0.00  0.00    +0.008 A 
ENDBRANCH   3   7
TORSDOF 1
ENDMDL
MODEL 5
REMARK VINA RESULT:    -3.358      1.435      4.407
REMARK INTER + INTRA:          -3.770
REMARK INTER:                  -3.560
REMARK INTRA:                  -0.210
REMARK UNBOUND:                -0.215
REMARK  Name = Nicotine.pdb
REMARK  2 active torsions:
REMARK  status: ('A' for Active; 'I' for Inactive)
REMARK    1  A    between atoms: C_3  and  C_6
REMARK    2  A    between atoms: N_4  and  C_12
REMARK                            x       y       z     vdW  Elec       q    Type
REMARK                         _______ _______ _______ _____ _____    ______ ____
ROOT
ATOM      1  C   UNL     1       3.829   6.323   2.366  0.00  0.00    +0.017 C 
ATOM      2  C   UNL     1       5.175   7.027   2.049  0.00  0.00    +0.025 C 
ATOM      3  C   UNL     1       5.799   6.114   0.972  0.00  0.00    +0.088 C 
ATOM      4  N   UNL     1       5.177   4.785   1.112  0.00  0.00    -0.298 NA
ATOM      5  C   UNL     1       4.220   4.830   2.238  0.00  0.00    +0.085 C 
ATOM      6  C   UNL     1       4.510   4.383  -0.133  0.00  0.00    +0.105 C 
ENDROOT
BRANCH   3   7
ATOM      7  C   UNL     1       7.287   6.011   1.188  0.00  0.00    -0.012 A 
ATOM      8  C   UNL     1       7.869   6.553   2.318  0.00  0.00    +0.115 A 
ATOM      9  N   UNL     1       9.170   6.466   2.514  0.00  0.00    -0.263 NA
ATOM     10  C   UNL     1       9.963   5.866   1.649  0.00  0.00    +0.111 A 
ATOM     11  C   UNL     1       9.453   5.300   0.496  0.00  0.00    +0.020 A 
ATOM     12  C   UNL     1       8.089   5.367   0.258  0.00  0.00    +0.008 A 
ENDBRANCH   3   7
TORSDOF 1
ENDMDL
MODEL 6
REMARK VINA RESULT:    -3.280      9.103     11.193
REMARK INTER + INTRA:          -3.687
REMARK INTER:                  -3.439
REMARK INTRA:                  -0.248
REMARK UNBOUND:                -0.215
REMARK  Name = Nicotine.pdb
REMARK  2 active torsions:
REMARK  status: ('A' for Active; 'I' for Inactive)
REMARK    1  A    between atoms: C_3  and  C_6
REMARK    2  A    between atoms: N_4  and  C_12
REMARK                            x       y       z     vdW  Elec       q    Type
REMARK                         _______ _______ _______ _____ _____    ______ ____
ROOT
ATOM      1  C   UNL     1      10.016   0.904  -4.411  0.00  0.00    +0.017 C 
ATOM      2  C   UNL     1      10.953  -0.316  -4.614  0.00  0.00    +0.025 C 
ATOM      3  C   UNL     1      10.361  -1.004  -5.862  0.00  0.00    +0.088 C 
ATOM      4  N   UNL     1       8.955  -0.576  -5.972  0.00  0.00    -0.298 NA
ATOM      5  C   UNL     1       8.646   0.321  -4.838  0.00  0.00    +0.085 C 
ATOM      6  C   UNL     1       8.706   0.092  -7.256  0.00  0.00    +0.105 C 
ENDROOT
BRANCH   3   7
ATOM      7  C   UNL     1      10.432  -2.501  -5.704  0.00  0.00    -0.012 A 
ATOM      8  C   UNL     1      10.781  -3.301  -6.775  0.00  0.00    +0.115 A 
ATOM      9  N   UNL     1      10.846  -4.612  -6.646  0.00  0.00    -0.263 NA
ATOM     10  C   UNL     1      10.582  -5.209  -5.500  0.00  0.00    +0.111 A 
ATOM     11  C   UNL     1      10.226  -4.474  -4.385  0.00  0.00    +0.020 A 
ATOM     12  C   UNL     1      10.153  -3.093  -4.482  0.00  0.00    +0.008 A 
ENDBRANCH   3   7
TORSDOF 1
ENDMDL
MODEL 7
REMARK VINA RESULT:    -3.071      8.372      9.399
REMARK INTER + INTRA:          -3.466
REMARK INTER:                  -3.273
REMARK INTRA:                  -0.193
REMARK UNBOUND:                -0.215
REMARK  Name = Nicotine.pdb
REMARK  2 active torsions:
REMARK  status: ('A' for Active; 'I' for Inactive)
REMARK    1  A    between atoms: C_3  and  C_6
REMARK    2  A    between atoms: N_4  and  C_12
REMARK                            x       y       z     vdW  Elec       q    Type
REMARK                         _______ _______ _______ _____ _____    ______ ____
ROOT
ATOM      1  C   UNL     1      10.587  -1.905  -6.592  0.00  0.00    +0.017 C 
ATOM      2  C   UNL     1      10.008  -0.617  -7.233  0.00  0.00    +0.025 C 
ATOM      3  C   UNL     1       9.898   0.348  -6.033  0.00  0.00    +0.088 C 
ATOM      4  N   UNL     1       9.849  -0.477  -4.813  0.00  0.00    -0.298 NA
ATOM      5  C   UNL     1       9.899  -1.901  -5.205  0.00  0.00    +0.085 C 
ATOM      6  C   UNL     1      10.954  -0.141  -3.905  0.00  0.00    +0.105 C 
ENDROOT
BRANCH   3   7
ATOM      7  C   UNL     1       8.640   1.169  -6.150  0.00  0.00    -0.012 A 
ATOM      8  C   UNL     1       8.671   2.416  -6.745  0.00  0.00    +0.115 A 
ATOM      9  N   UNL     1       7.574   3.140  -6.851  0.00  0.00    -0.263 NA
ATOM     10  C   UNL     1       6.413   2.711  -6.398  0.00  0.00    +0.111 A 
ATOM     11  C   UNL     1       6.304   1.474  -5.791  0.00  0.00    +0.020 A 
ATOM     12  C   UNL     1       7.435   0.681  -5.666  0.00  0.00    +0.008 A 
ENDBRANCH   3   7
TORSDOF 1
ENDMDL
MODEL 8
REMARK VINA RESULT:    -2.116      1.452      2.117
REMARK INTER + INTRA:          -2.454
REMARK INTER:                  -2.206
REMARK INTRA:                  -0.248
REMARK UNBOUND:                -0.215
REMARK  Name = Nicotine.pdb
REMARK  2 active torsions:
REMARK  status: ('A' for Active; 'I' for Inactive)
REMARK    1  A    between atoms: C_3  and  C_6
REMARK    2  A    between atoms: N_4  and  C_12
REMARK                            x       y       z     vdW  Elec       q    Type
REMARK                         _______ _______ _______ _____ _____    ______ ____
ROOT
ATOM      1  C   UNL     1       9.730   5.457   1.252  0.00  0.00    +0.017 C 
ATOM      2  C   UNL     1       8.277   4.982   1.517  0.00  0.00    +0.025 C 
ATOM      3  C   UNL     1       7.454   5.796   0.495  0.00  0.00    +0.088 C 
ATOM      4  N   UNL     1       8.251   6.983   0.139  0.00  0.00    -0.298 NA
ATOM      5  C   UNL     1       9.513   6.952   0.909  0.00  0.00    +0.085 C 
ATOM      6  C   UNL     1       8.517   7.025  -1.305  0.00  0.00    +0.105 C 
ENDROOT
BRANCH   3   7
ATOM      7  C   UNL     1       6.147   6.221   1.113  0.00  0.00    -0.012 A 
ATOM      8  C   UNL     1       4.981   6.190   0.371  0.00  0.00    +0.115 A 
ATOM      9  N   UNL     1       3.833   6.560   0.903  0.00  0.00    -0.263 NA
ATOM     10  C   UNL     1       3.749   6.971   2.153  0.00  0.00    +0.111 A 
ATOM     11  C   UNL     1       4.873   7.028   2.956  0.00  0.00    +0.020 A 
ATOM     12  C   UNL     1       6.097   6.642   2.433  0.00  0.00    +0.008 A 
ENDBRANCH   3   7
TORSDOF 1
ENDMDL
MODEL 9
REMARK VINA RESULT:    -2.010      9.109      9.927
REMARK INTER + INTRA:          -2.343
REMARK INTER:                  -2.133
REMARK INTRA:                  -0.210
REMARK UNBOUND:                -0.215
REMARK  Name = Nicotine.pdb
REMARK  2 active torsions:
REMARK  status: ('A' for Active; 'I' for Inactive)
REMARK    1  A    between atoms: C_3  and  C_6
REMARK    2  A    between atoms: N_4  and  C_12
REMARK                            x       y       z     vdW  Elec       q    Type
REMARK                         _______ _______ _______ _____ _____    ______ ____
ROOT
ATOM      1  C   UNL     1       8.616  -1.521  -4.631  0.00  0.00    +0.017 C 
ATOM      2  C   UNL     1       8.048  -0.290  -5.385  0.00  0.00    +0.025 C 
ATOM      3  C   UNL     1       9.044  -0.107  -6.550  0.00  0.00    +0.088 C 
ATOM      4  N   UNL     1      10.306  -0.758  -6.153  0.00  0.00    -0.298 NA
ATOM      5  C   UNL     1      10.143  -1.309  -4.791  0.00  0.00    +0.085 C 
ATOM      6  C   UNL     1      10.679  -1.810  -7.107  0.00  0.00    +0.105 C 
ENDROOT
BRANCH   3   7
ATOM      7  C   UNL     1       9.278   1.360  -6.799  0.00  0.00    -0.012 A 
ATOM      8  C   UNL     1       8.212   2.209  -7.028  0.00  0.00    +0.115 A 
ATOM      9  N   UNL     1       8.409   3.495  -7.246  0.00  0.00    -0.263 NA
ATOM     10  C   UNL     1       9.618   4.020  -7.256  0.00  0.00    +0.111 A 
ATOM     11  C   UNL     1      10.733   3.232  -7.034  0.00  0.00    +0.020 A 
ATOM     12  C   UNL     1      10.565   1.877  -6.796  0.00  0.00    +0.008 A 
ENDBRANCH   3   7
TORSDOF 1
ENDMDL
