MODEL 1
REMARK VINA RESULT:    11.381      0.000      0.000
REMARK INTER + INTRA:          11.854
REMARK INTER:                  12.046
REMARK INTRA:                  -0.192
REMARK UNBOUND:                -0.192
REMARK  Name = Nicotine.pdb
REMARK  2 active torsions:
REMARK  status: ('A' for Active; 'I' for Inactive)
REMARK    1  A    between atoms: C_3  and  C_6
REMARK    2  A    between atoms: N_4  and  C_12
REMARK                            x       y       z     vdW  Elec       q    Type
REMARK                         _______ _______ _______ _____ _____    ______ ____
ROOT
ATOM      1  C   UNL     1       9.617   3.914  -2.710  0.00  0.00    +0.017 C 
ATOM      2  C   UNL     1       8.545   4.320  -1.665  0.00  0.00    +0.025 C 
ATOM      3  C   UNL     1       9.030   5.706  -1.189  0.00  0.00    +0.088 C 
ATOM      4  N   UNL     1      10.473   5.786  -1.478  0.00  0.00    -0.298 NA
ATOM      5  C   UNL     1      10.904   4.509  -2.084  0.00  0.00    +0.085 C 
ATOM      6  C   UNL     1      10.770   6.918  -2.366  0.00  0.00    +0.105 C 
ENDROOT
BRANCH   3   7
ATOM      7  C   UNL     1       8.793   5.851   0.292  0.00  0.00    -0.012 A 
ATOM      8  C   UNL     1       8.056   4.905   0.978  0.00  0.00    +0.115 A 
ATOM      9  N   UNL     1       7.844   5.025   2.275  0.00  0.00    -0.263 NA
ATOM     10  C   UNL     1       8.321   6.043   2.963  0.00  0.00    +0.111 A 
ATOM     11  C   UNL     1       9.068   7.028   2.345  0.00  0.00    +0.020 A 
ATOM     12  C   UNL     1       9.316   6.933   0.984  0.00  0.00    +0.008 A 
ENDBRANCH   3   7
TORSDOF 1
ENDMDL
MODEL 2
REMARK VINA RESULT:    12.884      1.337      1.649
REMARK INTER + INTRA:          13.445
REMARK INTER:                  13.661
REMARK INTRA:                  -0.216
REMARK UNBOUND:                -0.192
REMARK  Name = Nicotine.pdb
REMARK  2 active torsions:
REMARK  status: ('A' for Active; 'I' for Inactive)
REMARK    1  A    between atoms: C_3  and  C_6
REMARK    2  A    between atoms: N_4  and  C_12
REMARK                            x       y       z     vdW  Elec       q    Type
REMARK                         _______ _______ _______ _____ _____    ______ ____
ROOT
ATOM      1  C   UNL     1       9.161   3.269  -2.747  0.00  0.00    +0.017 C 
ATOM      2  C   UNL     1       8.386   4.146  -1.730  0.00  0.00    +0.025 C 
ATOM      3  C   UNL     1       9.211   5.450  -1.695  0.00  0.00    +0.088 C 
ATOM      4  N   UNL     1      10.571   5.118  -2.159  0.00  0.00    -0.298 NA
ATOM      5  C   UNL     1      10.628   3.671  -2.453  0.00  0.00    +0.085 C 
ATOM      6  C   UNL     1      10.932   5.911  -3.342  0.00  0.00    +0.105 C 
ENDROOT
BRANCH   3   7
ATOM      7  C   UNL     1       9.265   5.986  -0.288  0.00  0.00    -0.012 A 
ATOM      8  C   UNL     1      10.426   6.556   0.199  0.00  0.00    +0.115 A 
ATOM      9  N   UNL     1      10.481   7.028   1.429  0.00  0.00    -0.263 NA
ATOM     10  C   UNL     1       9.441   6.976   2.239  0.00  0.00    +0.111 A 
ATOM     11  C   UNL     1       8.246   6.421   1.821  0.00  0.00    +0.020 A 
ATOM     12  C   UNL     1       8.149   5.919   0.532  0.00  0.00    +0.008 A 
ENDBRANCH   3   7
TORSDOF 1
ENDMDL
