MODEL 1
REMARK VINA RESULT:     0.090      0.000      0.000
REMARK INTER + INTRA:          -0.089
REMARK INTER:                   0.096
REMARK INTRA:                  -0.184
REMARK UNBOUND:                -0.184
REMARK  Name = Nicotine.pdb
REMARK  2 active torsions:
REMARK  status: ('A' for Active; 'I' for Inactive)
REMARK    1  A    between atoms: C_3  and  C_6
REMARK    2  A    between atoms: N_4  and  C_12
REMARK                            x       y       z     vdW  Elec       q    Type
REMARK                         _______ _______ _______ _____ _____    ______ ____
ROOT
ATOM      1  C   UNL     1       3.968   3.375   4.692  0.00  0.00    +0.017 C 
ATOM      2  C   UNL     1       5.258   3.095   5.506  0.00  0.00    +0.025 C 
ATOM      3  C   UNL     1       5.544   4.453   6.182  0.00  0.00    +0.088 C 
ATOM      4  N   UNL     1       4.863   5.490   5.384  0.00  0.00    -0.298 NA
ATOM      5  C   UNL     1       4.195   4.838   4.238  0.00  0.00    +0.085 C 
ATOM      6  C   UNL     1       3.898   6.236   6.202  0.00  0.00    +0.105 C 
ENDROOT
BRANCH   3   7
ATOM      7  C   UNL     1       7.028   4.713   6.204  0.00  0.00    -0.012 A 
ATOM      8  C   UNL     1       7.922   3.660   6.217  0.00  0.00    +0.115 A 
ATOM      9  N   UNL     1       9.222   3.879   6.236  0.00  0.00    -0.263 NA
ATOM     10  C   UNL     1       9.719   5.100   6.244  0.00  0.00    +0.111 A 
ATOM     11  C   UNL     1       8.887   6.203   6.231  0.00  0.00    +0.020 A 
ATOM     12  C   UNL     1       7.514   6.012   6.205  0.00  0.00    +0.008 A 
ENDBRANCH   3   7
TORSDOF 1
ENDMDL
MODEL 2
REMARK VINA RESULT:     0.441      1.379      2.198
REMARK INTER + INTRA:           0.283
REMARK INTER:                   0.497
REMARK INTRA:                  -0.214
REMARK UNBOUND:                -0.184
REMARK  Name = Nicotine.pdb
REMARK  2 active torsions:
REMARK  status: ('A' for Active; 'I' for Inactive)
REMARK    1  A    between atoms: C_3  and  C_6
REMARK    2  A    between atoms: N_4  and  C_12
REMARK                            x       y       z     vdW  Elec       q    Type
REMARK                         _______ _______ _______ _____ _____    ______ ____
ROOT
ATOM      1  C   UNL     1       3.808   4.944   4.529  0.00  0.00    +0.017 C 
ATOM      2  C   UNL     1       5.280   5.097   4.062  0.00  0.00    +0.025 C 
ATOM      3  C   UNL     1       6.024   4.044   4.911  0.00  0.00    +0.088 C 
ATOM      4  N   UNL     1       5.195   3.774   6.099  0.00  0.00    -0.298 NA
ATOM      5  C   UNL     1       3.989   4.628   6.035  0.00  0.00    +0.085 C 
ATOM      6  C   UNL     1       4.831   2.354   6.176  0.00  0.00    +0.105 C 
ENDROOT
BRANCH   3   7
ATOM      7  C   UNL     1       7.367   4.582   5.333  0.00  0.00    -0.012 A 
ATOM      8  C   UNL     1       7.658   5.926   5.190  0.00  0.00    +0.115 A 
ATOM      9  N   UNL     1       8.830   6.405   5.557  0.00  0.00    -0.263 NA
ATOM     10  C   UNL     1       9.766   5.631   6.070  0.00  0.00    +0.111 A 
ATOM     11  C   UNL     1       9.547   4.277   6.244  0.00  0.00    +0.020 A 
ATOM     12  C   UNL     1       8.324   3.738   5.874  0.00  0.00    +0.008 A 
ENDBRANCH   3   7
TORSDOF 1
ENDMDL
MODEL 3
REMARK VINA RESULT:     2.005      2.029      3.572
REMARK INTER + INTRA:           1.938
REMARK INTER:                   2.153
REMARK INTRA:                  -0.216
REMARK UNBOUND:                -0.184
REMARK  Name = Nicotine.pdb
REMARK  2 active torsions:
REMARK  status: ('A' for Active; 'I' for Inactive)
REMARK    1  A    between atoms: C_3  and  C_6
REMARK    2  A    between atoms: N_4  and  C_12
REMARK                            x       y       z     vdW  Elec       q    Type
REMARK                         _______ _______ _______ _____ _____    ______ ____
ROOT
ATOM      1  C   UNL     1       3.101   1.453   4.663  0.00  0.00    +0.017 C 
ATOM      2  C   UNL     1       3.687   2.813   4.201  0.00  0.00    +0.025 C 
ATOM      3  C   UNL     1       4.996   2.921   5.012  0.00  0.00    +0.088 C 
ATOM      4  N   UNL     1       4.853   2.046   6.190  0.00  0.00    -0.298 NA
ATOM      5  C   UNL     1       3.512   1.427   6.156  0.00  0.00    +0.085 C 
ATOM      6  C   UNL     1       5.906   1.023   6.217  0.00  0.00    +0.105 C 
ENDROOT
BRANCH   3   7
ATOM      7  C   UNL     1       5.211   4.346   5.452  0.00  0.00    -0.012 A 
ATOM      8  C   UNL     1       4.150   5.230   5.501  0.00  0.00    +0.115 A 
ATOM      9  N   UNL     1       4.329   6.479   5.885  0.00  0.00    -0.263 NA
ATOM     10  C   UNL     1       5.516   6.932   6.236  0.00  0.00    +0.111 A 
ATOM     11  C   UNL     1       6.624   6.106   6.213  0.00  0.00    +0.020 A 
ATOM     12  C   UNL     1       6.473   4.785   5.820  0.00  0.00    +0.008 A 
ENDBRANCH   3   7
TORSDOF 1
ENDMDL
