MODEL 1
REMARK VINA RESULT:    -3.861      0.000      0.000
REMARK INTER + INTRA:          -4.279
REMARK INTER:                  -4.086
REMARK INTRA:                  -0.193
REMARK UNBOUND:                -0.193
REMARK  Name = Nicotine.pdb
REMARK  2 active torsions:
REMARK  status: ('A' for Active; 'I' for Inactive)
REMARK    1  A    between atoms: C_3  and  C_6
REMARK    2  A    between atoms: N_4  and  C_12
REMARK                            x       y       z     vdW  Elec       q    Type
REMARK                         _______ _______ _______ _____ _____    ______ ____
ROOT
ATOM      1  C   UNL     1       9.443   6.537   0.914  0.00  0.00    +0.017 C 
ATOM      2  C   UNL     1       8.588   6.704  -0.370  0.00  0.00    +0.025 C 
ATOM      3  C   UNL     1       7.145   6.755   0.178  0.00  0.00    +0.088 C 
ATOM      4  N   UNL     1       7.157   6.106   1.501  0.00  0.00    -0.298 NA
ATOM      5  C   UNL     1       8.531   5.636   1.783  0.00  0.00    +0.085 C 
ATOM      6  C   UNL     1       6.692   7.028   2.545  0.00  0.00    +0.105 C 
ENDROOT
BRANCH   3   7
ATOM      7  C   UNL     1       6.218   6.013  -0.750  0.00  0.00    -0.012 A 
ATOM      8  C   UNL     1       5.422   6.706  -1.643  0.00  0.00    +0.115 A 
ATOM      9  N   UNL     1       4.608   6.065  -2.458  0.00  0.00    -0.263 NA
ATOM     10  C   UNL     1       4.519   4.749  -2.456  0.00  0.00    +0.111 A 
ATOM     11  C   UNL     1       5.285   3.990  -1.591  0.00  0.00    +0.020 A 
ATOM     12  C   UNL     1       6.156   4.629  -0.723  0.00  0.00    +0.008 A 
ENDBRANCH   3   7
TORSDOF 1
ENDMDL
MODEL 2
REMARK VINA RESULT:    -3.695      1.630      4.724
REMARK INTER + INTRA:          -4.104
REMARK INTER:                  -3.888
REMARK INTRA:                  -0.217
REMARK UNBOUND:                -0.193
REMARK  Name = Nicotine.pdb
REMARK  2 active torsions:
REMARK  status: ('A' for Active; 'I' for Inactive)
REMARK    1  A    between atoms: C_3  and  C_6
REMARK    2  A    between atoms: N_4  and  C_12
REMARK                            x       y       z     vdW  Elec       q    Type
REMARK                         _______ _______ _______ _____ _____    ______ ____
ROOT
ATOM      1  C   UNL     1       4.957   4.756  -1.019  0.00  0.00    +0.017 C 
ATOM      2  C   UNL     1       5.363   5.855  -0.002  0.00  0.00    +0.025 C 
ATOM      3  C   UNL     1       6.783   6.246  -0.463  0.00  0.00    +0.088 C 
ATOM      4  N   UNL     1       7.319   5.113  -1.238  0.00  0.00    -0.298 NA
ATOM      5  C   UNL     1       6.308   4.035  -1.256  0.00  0.00    +0.085 C 
ATOM      6  C   UNL     1       7.671   5.528  -2.603  0.00  0.00    +0.105 C 
ENDROOT
BRANCH   3   7
ATOM      7  C   UNL     1       7.657   6.508   0.736  0.00  0.00    -0.012 A 
ATOM      8  C   UNL     1       9.034   6.464   0.621  0.00  0.00    +0.115 A 
ATOM      9  N   UNL     1       9.806   6.692   1.665  0.00  0.00    -0.263 NA
ATOM     10  C   UNL     1       9.303   6.967   2.852  0.00  0.00    +0.111 A 
ATOM     11  C   UNL     1       7.935   7.028   3.044  0.00  0.00    +0.020 A 
ATOM     12  C   UNL     1       7.092   6.800   1.968  0.00  0.00    +0.008 A 
ENDBRANCH   3   7
TORSDOF 1
ENDMDL
MODEL 3
REMARK VINA RESULT:    -3.461      2.845      4.536
REMARK INTER + INTRA:          -3.857
REMARK INTER:                  -3.625
REMARK INTRA:                  -0.232
REMARK UNBOUND:                -0.193
REMARK  Name = Nicotine.pdb
REMARK  2 active torsions:
REMARK  status: ('A' for Active; 'I' for Inactive)
REMARK    1  A    between atoms: C_3  and  C_6
REMARK    2  A    between atoms: N_4  and  C_12
REMARK                            x       y       z     vdW  Elec       q    Type
REMARK                         _______ _______ _______ _____ _____    ______ ____
ROOT
ATOM      1  C   UNL     1       5.433   3.768  -1.267  0.00  0.00    +0.017 C 
ATOM      2  C   UNL     1       6.955   4.069  -1.267  0.00  0.00    +0.025 C 
ATOM      3  C   UNL     1       7.015   5.559  -1.664  0.00  0.00    +0.088 C 
ATOM      4  N   UNL     1       5.759   5.874  -2.368  0.00  0.00    -0.298 NA
ATOM      5  C   UNL     1       4.941   4.645  -2.446  0.00  0.00    +0.085 C 
ATOM      6  C   UNL     1       5.028   6.951  -1.686  0.00  0.00    +0.105 C 
ENDROOT
BRANCH   3   7
ATOM      7  C   UNL     1       8.189   5.800  -2.576  0.00  0.00    -0.012 A 
ATOM      8  C   UNL     1       9.092   6.810  -2.302  0.00  0.00    +0.115 A 
ATOM      9  N   UNL     1      10.123   7.028  -3.095  0.00  0.00    -0.263 NA
ATOM     10  C   UNL     1      10.334   6.299  -4.173  0.00  0.00    +0.111 A 
ATOM     11  C   UNL     1       9.475   5.270  -4.511  0.00  0.00    +0.020 A 
ATOM     12  C   UNL     1       8.383   5.008  -3.698  0.00  0.00    +0.008 A 
ENDBRANCH   3   7
TORSDOF 1
ENDMDL
MODEL 4
REMARK VINA RESULT:    -3.265      2.732      3.915
REMARK INTER + INTRA:          -3.649
REMARK INTER:                  -3.433
REMARK INTRA:                  -0.216
REMARK UNBOUND:                -0.193
REMARK  Name = Nicotine.pdb
REMARK  2 active torsions:
REMARK  status: ('A' for Active; 'I' for Inactive)
REMARK    1  A    between atoms: C_3  and  C_6
REMARK    2  A    between atoms: N_4  and  C_12
REMARK                            x       y       z     vdW  Elec       q    Type
REMARK                         _______ _______ _______ _____ _____    ______ ____
ROOT
ATOM      1  C   UNL     1       4.884   5.103  -0.730  0.00  0.00    +0.017 C 
ATOM      2  C   UNL     1       6.051   4.557  -1.595  0.00  0.00    +0.025 C 
ATOM      3  C   UNL     1       7.284   5.273  -1.005  0.00  0.00    +0.088 C 
ATOM      4  N   UNL     1       6.801   6.486  -0.323  0.00  0.00    -0.298 NA
ATOM      5  C   UNL     1       5.333   6.565  -0.486  0.00  0.00    +0.085 C 
ATOM      6  C   UNL     1       7.174   6.477   1.098  0.00  0.00    +0.105 C 
ENDROOT
BRANCH   3   7
ATOM      7  C   UNL     1       8.236   5.649  -2.111  0.00  0.00    -0.012 A 
ATOM      8  C   UNL     1       9.127   6.692  -1.942  0.00  0.00    +0.115 A 
ATOM      9  N   UNL     1       9.963   7.028  -2.905  0.00  0.00    -0.263 NA
ATOM     10  C   UNL     1       9.984   6.390  -4.059  0.00  0.00    +0.111 A 
ATOM     11  C   UNL     1       9.121   5.337  -4.301  0.00  0.00    +0.020 A 
ATOM     12  C   UNL     1       8.232   4.952  -3.310  0.00  0.00    +0.008 A 
ENDBRANCH   3   7
TORSDOF 1
ENDMDL
MODEL 5
REMARK VINA RESULT:    -3.119      1.200      4.498
REMARK INTER + INTRA:          -3.495
REMARK INTER:                  -3.285
REMARK INTRA:                  -0.209
REMARK UNBOUND:                -0.193
REMARK  Name = Nicotine.pdb
REMARK  2 active torsions:
REMARK  status: ('A' for Active; 'I' for Inactive)
REMARK    1  A    between atoms: C_3  and  C_6
REMARK    2  A    between atoms: N_4  and  C_12
REMARK                            x       y       z     vdW  Elec       q    Type
REMARK                         _______ _______ _______ _____ _____    ______ ____
ROOT
ATOM      1  C   UNL     1       4.960   3.830  -1.794  0.00  0.00    +0.017 C 
ATOM      2  C   UNL     1       5.609   4.160  -0.424  0.00  0.00    +0.025 C 
ATOM      3  C   UNL     1       5.865   5.679  -0.518  0.00  0.00    +0.088 C 
ATOM      4  N   UNL     1       5.910   6.026  -1.950  0.00  0.00    -0.298 NA
ATOM      5  C   UNL     1       5.720   4.792  -2.740  0.00  0.00    +0.085 C 
ATOM      6  C   UNL     1       4.888   7.027  -2.282  0.00  0.00    +0.105 C 
ENDROOT
BRANCH   3   7
ATOM      7  C   UNL     1       7.180   6.019   0.135  0.00  0.00    -0.012 A 
ATOM      8  C   UNL     1       8.260   6.415  -0.632  0.00  0.00    +0.115 A 
ATOM      9  N   UNL     1       9.414   6.714  -0.068  0.00  0.00    -0.263 NA
ATOM     10  C   UNL     1       9.585   6.649   1.237  0.00  0.00    +0.111 A 
ATOM     11  C   UNL     1       8.550   6.262   2.068  0.00  0.00    +0.020 A 
ATOM     12  C   UNL     1       7.321   5.944   1.512  0.00  0.00    +0.008 A 
ENDBRANCH   3   7
TORSDOF 1
ENDMDL
MODEL 6
REMARK VINA RESULT:    -2.298      1.406      4.520
REMARK INTER + INTRA:          -2.626
REMARK INTER:                  -2.370
REMARK INTRA:                  -0.255
REMARK UNBOUND:                -0.193
REMARK  Name = Nicotine.pdb
REMARK  2 active torsions:
REMARK  status: ('A' for Active; 'I' for Inactive)
REMARK    1  A    between atoms: C_3  and  C_6
REMARK    2  A    between atoms: N_4  and  C_12
REMARK                            x       y       z     vdW  Elec       q    Type
REMARK                         _______ _______ _______ _____ _____    ______ ____
ROOT
ATOM      1  C   UNL     1       5.871   4.744  -2.303  0.00  0.00    +0.017 C 
ATOM      2  C   UNL     1       7.148   4.512  -1.453  0.00  0.00    +0.025 C 
ATOM      3  C   UNL     1       6.734   5.024  -0.057  0.00  0.00    +0.088 C 
ATOM      4  N   UNL     1       5.609   5.956  -0.250  0.00  0.00    -0.298 NA
ATOM      5  C   UNL     1       5.328   6.062  -1.697  0.00  0.00    +0.085 C 
ATOM      6  C   UNL     1       4.420   5.507   0.487  0.00  0.00    +0.105 C 
ENDROOT
BRANCH   3   7
ATOM      7  C   UNL     1       7.891   5.740   0.590  0.00  0.00    -0.012 A 
ATOM      8  C   UNL     1       7.998   5.793   1.967  0.00  0.00    +0.115 A 
ATOM      9  N   UNL     1       9.007   6.419   2.541  0.00  0.00    -0.263 NA
ATOM     10  C   UNL     1       9.947   7.014   1.834  0.00  0.00    +0.111 A 
ATOM     11  C   UNL     1       9.907   7.002   0.452  0.00  0.00    +0.020 A 
ATOM     12  C   UNL     1       8.863   6.350  -0.188  0.00  0.00    +0.008 A 
ENDBRANCH   3   7
TORSDOF 1
ENDMDL
MODEL 7
REMARK VINA RESULT:    -2.238      1.448      4.334
REMARK INTER + INTRA:          -2.562
REMARK INTER:                  -2.363
REMARK INTRA:                  -0.199
REMARK UNBOUND:                -0.193
REMARK  Name = Nicotine.pdb
REMARK  2 active torsions:
REMARK  status: ('A' for Active; 'I' for Inactive)
REMARK    1  A    between atoms: C_3  and  C_6
REMARK    2  A    between atoms: N_4  and  C_12
REMARK                            x       y       z     vdW  Elec       q    Type
REMARK                         _______ _______ _______ _____ _____    ______ ____
ROOT
ATOM      1  C   UNL     1       7.559   5.136  -2.904  0.00  0.00    +0.017 C 
ATOM      2  C   UNL     1       8.116   5.102  -1.456  0.00  0.00    +0.025 C 
ATOM      3  C   UNL     1       6.857   4.824  -0.607  0.00  0.00    +0.088 C 
ATOM      4  N   UNL     1       5.691   5.246  -1.403  0.00  0.00    -0.298 NA
ATOM      5  C   UNL     1       6.172   5.793  -2.690  0.00  0.00    +0.085 C 
ATOM      6  C   UNL     1       4.767   4.125  -1.619  0.00  0.00    +0.105 C 
ENDROOT
BRANCH   3   7
ATOM      7  C   UNL     1       6.919   5.615   0.674  0.00  0.00    -0.012 A 
ATOM      8  C   UNL     1       8.083   5.654   1.417  0.00  0.00    +0.115 A 
ATOM      9  N   UNL     1       8.146   6.345   2.539  0.00  0.00    -0.263 NA
ATOM     10  C   UNL     1       7.109   7.020   2.996  0.00  0.00    +0.111 A 
ATOM     11  C   UNL     1       5.911   7.028   2.307  0.00  0.00    +0.020 A 
ATOM     12  C   UNL     1       5.809   6.318   1.120  0.00  0.00    +0.008 A 
ENDBRANCH   3   7
TORSDOF 1
ENDMDL
MODEL 8
REMARK VINA RESULT:    -1.960      3.778      4.601
REMARK INTER + INTRA:          -2.268
REMARK INTER:                  -2.049
REMARK INTRA:                  -0.219
REMARK UNBOUND:                -0.193
REMARK  Name = Nicotine.pdb
REMARK  2 active torsions:
REMARK  status: ('A' for Active; 'I' for Inactive)
REMARK    1  A    between atoms: C_3  and  C_6
REMARK    2  A    between atoms: N_4  and  C_12
REMARK                            x       y       z     vdW  Elec       q    Type
REMARK                         _______ _______ _______ _____ _____    ______ ____
ROOT
ATOM      1  C   UNL     1       6.323   5.225  -1.155  0.00  0.00    +0.017 C 
ATOM      2  C   UNL     1       7.240   4.561  -2.216  0.00  0.00    +0.025 C 
ATOM      3  C   UNL     1       8.538   5.391  -2.121  0.00  0.00    +0.088 C 
ATOM      4  N   UNL     1       8.182   6.694  -1.531  0.00  0.00    -0.298 NA
ATOM      5  C   UNL     1       6.724   6.716  -1.284  0.00  0.00    +0.085 C 
ATOM      6  C   UNL     1       8.931   6.935  -0.291  0.00  0.00    +0.105 C 
ENDROOT
BRANCH   3   7
ATOM      7  C   UNL     1       9.121   5.591  -3.496  0.00  0.00    -0.012 A 
ATOM      8  C   UNL     1       9.556   6.840  -3.896  0.00  0.00    +0.115 A 
ATOM      9  N   UNL     1      10.068   7.024  -5.097  0.00  0.00    -0.263 NA
ATOM     10  C   UNL     1      10.185   6.033  -5.959  0.00  0.00    +0.111 A 
ATOM     11  C   UNL     1       9.772   4.755  -5.630  0.00  0.00    +0.020 A 
ATOM     12  C   UNL     1       9.234   4.523  -4.373  0.00  0.00    +0.008 A 
ENDBRANCH   3   7
TORSDOF 1
ENDMDL
MODEL 9
REMARK VINA RESULT:    -1.939      1.696      2.839
REMARK INTER + INTRA:          -2.245
REMARK INTER:                  -2.038
REMARK INTRA:                  -0.207
REMARK UNBOUND:                -0.193
REMARK  Name = Nicotine.pdb
REMARK  2 active torsions:
REMARK  status: ('A' for Active; 'I' for Inactive)
REMARK    1  A    between atoms: C_3  and  C_6
REMARK    2  A    between atoms: N_4  and  C_12
REMARK                            x       y       z     vdW  Elec       q    Type
REMARK                         _______ _______ _______ _____ _____    ______ ____
ROOT
ATOM      1  C   UNL     1       6.924   5.759   1.229  0.00  0.00    +0.017 C 
ATOM      2  C   UNL     1       6.296   4.636   0.363  0.00  0.00    +0.025 C 
ATOM      3  C   UNL     1       6.502   5.152  -1.077  0.00  0.00    +0.088 C 
ATOM      4  N   UNL     1       6.669   6.614  -0.997  0.00  0.00    -0.298 NA
ATOM      5  C   UNL     1       6.552   7.025   0.418  0.00  0.00    +0.085 C 
ATOM      6  C   UNL     1       7.961   7.028  -1.561  0.00  0.00    +0.105 C 
ENDROOT
BRANCH   3   7
ATOM      7  C   UNL     1       5.297   4.818  -1.918  0.00  0.00    -0.012 A 
ATOM      8  C   UNL     1       4.815   3.523  -1.966  0.00  0.00    +0.115 A 
ATOM      9  N   UNL     1       3.761   3.222  -2.700  0.00  0.00    -0.263 NA
ATOM     10  C   UNL     1       3.130   4.134  -3.412  0.00  0.00    +0.111 A 
ATOM     11  C   UNL     1       3.554   5.450  -3.414  0.00  0.00    +0.020 A 
ATOM     12  C   UNL     1       4.655   5.805  -2.650  0.00  0.00    +0.008 A 
ENDBRANCH   3   7
TORSDOF 1
ENDMDL
MODEL 10
REMARK VINA RESULT:    -1.315      1.317      2.087
REMARK INTER + INTRA:          -1.585
REMARK INTER:                  -1.369
REMARK INTRA:                  -0.215
REMARK UNBOUND:                -0.193
REMARK  Name = Nicotine.pdb
REMARK  2 active torsions:
REMARK  status: ('A' for Active; 'I' for Inactive)
REMARK    1  A    between atoms: C_3  and  C_6
REMARK    2  A    between atoms: N_4  and  C_12
REMARK                            x       y       z     vdW  Elec       q    Type
REMARK                         _______ _______ _______ _____ _____    ______ ____
ROOT
ATOM      1  C   UNL     1       8.329   5.588   3.178  0.00  0.00    +0.017 C 
ATOM      2  C   UNL     1       7.520   4.895   2.050  0.00  0.00    +0.025 C 
ATOM      3  C   UNL     1       8.080   5.550   0.769  0.00  0.00    +0.088 C 
ATOM      4  N   UNL     1       8.672   6.841   1.161  0.00  0.00    -0.298 NA
ATOM      5  C   UNL     1       8.482   7.024   2.616  0.00  0.00    +0.085 C 
ATOM      6  C   UNL     1      10.095   6.899   0.805  0.00  0.00    +0.105 C 
ENDROOT
BRANCH   3   7
ATOM      7  C   UNL     1       6.966   5.775  -0.220  0.00  0.00    -0.012 A 
ATOM      8  C   UNL     1       7.029   6.824  -1.118  0.00  0.00    +0.115 A 
ATOM      9  N   UNL     1       6.058   7.028  -1.987  0.00  0.00    -0.263 NA
ATOM     10  C   UNL     1       4.997   6.248  -2.036  0.00  0.00    +0.111 A 
ATOM     11  C   UNL     1       4.864   5.179  -1.170  0.00  0.00    +0.020 A 
ATOM     12  C   UNL     1       5.867   4.930  -0.246  0.00  0.00    +0.008 A 
ENDBRANCH   3   7
TORSDOF 1
ENDMDL
