MODEL 1
REMARK VINA RESULT:    -3.986      0.000      0.000
REMARK INTER + INTRA:          -4.426
REMARK INTER:                  -4.219
REMARK INTRA:                  -0.206
REMARK UNBOUND:                -0.206
REMARK  Name = Nicotine.pdb
REMARK  2 active torsions:
REMARK  status: ('A' for Active; 'I' for Inactive)
REMARK    1  A    between atoms: C_3  and  C_6
REMARK    2  A    between atoms: N_4  and  C_12
REMARK                            x       y       z     vdW  Elec       q    Type
REMARK                         _______ _______ _______ _____ _____    ______ ____
ROOT
ATOM      1  C   UNL     1       4.026  -2.892  -1.394  0.00  0.00    +0.017 C 
ATOM      2  C   UNL     1       5.256  -3.253  -0.519  0.00  0.00    +0.025 C 
ATOM      3  C   UNL     1       4.947  -2.551   0.820  0.00  0.00    +0.088 C 
ATOM      4  N   UNL     1       3.991  -1.466   0.535  0.00  0.00    -0.298 NA
ATOM      5  C   UNL     1       3.716  -1.451  -0.918  0.00  0.00    +0.085 C 
ATOM      6  C   UNL     1       2.752  -1.640   1.304  0.00  0.00    +0.105 C 
ENDROOT
BRANCH   3   7
ATOM      7  C   UNL     1       6.213  -1.980   1.403  0.00  0.00    -0.012 A 
ATOM      8  C   UNL     1       7.404  -2.064   0.707  0.00  0.00    +0.115 A 
ATOM      9  N   UNL     1       8.517  -1.567   1.210  0.00  0.00    -0.263 NA
ATOM     10  C   UNL     1       8.541  -0.974   2.387  0.00  0.00    +0.111 A 
ATOM     11  C   UNL     1       7.389  -0.852   3.142  0.00  0.00    +0.020 A 
ATOM     12  C   UNL     1       6.199  -1.358   2.643  0.00  0.00    +0.008 A 
ENDBRANCH   3   7
TORSDOF 1
ENDMDL
MODEL 2
REMARK VINA RESULT:    -3.977      1.020      1.484
REMARK INTER + INTRA:          -4.416
REMARK INTER:                  -4.160
REMARK INTRA:                  -0.256
REMARK UNBOUND:                -0.206
REMARK  Name = Nicotine.pdb
REMARK  2 active torsions:
REMARK  status: ('A' for Active; 'I' for Inactive)
REMARK    1  A    between atoms: C_3  and  C_6
REMARK    2  A    between atoms: N_4  and  C_12
REMARK                            x       y       z     vdW  Elec       q    Type
REMARK                         _______ _______ _______ _____ _____    ______ ____
ROOT
ATOM      1  C   UNL     1       4.592  -3.277  -1.366  0.00  0.00    +0.017 C 
ATOM      2  C   UNL     1       5.550  -3.451  -0.158  0.00  0.00    +0.025 C 
ATOM      3  C   UNL     1       4.972  -2.473   0.887  0.00  0.00    +0.088 C 
ATOM      4  N   UNL     1       4.181  -1.468   0.155  0.00  0.00    -0.298 NA
ATOM      5  C   UNL     1       4.265  -1.765  -1.291  0.00  0.00    +0.085 C 
ATOM      6  C   UNL     1       2.785  -1.462   0.611  0.00  0.00    +0.105 C 
ENDROOT
BRANCH   3   7
ATOM      7  C   UNL     1       6.094  -1.800   1.634  0.00  0.00    -0.012 A 
ATOM      8  C   UNL     1       5.848  -1.154   2.831  0.00  0.00    +0.115 A 
ATOM      9  N   UNL     1       6.824  -0.562   3.492  0.00  0.00    -0.263 NA
ATOM     10  C   UNL     1       8.063  -0.561   3.042  0.00  0.00    +0.111 A 
ATOM     11  C   UNL     1       8.386  -1.187   1.853  0.00  0.00    +0.020 A 
ATOM     12  C   UNL     1       7.387  -1.824   1.133  0.00  0.00    +0.008 A 
ENDBRANCH   3   7
TORSDOF 1
ENDMDL
MODEL 3
REMARK VINA RESULT:    -3.845      2.030      5.004
REMARK INTER + INTRA:          -4.276
REMARK INTER:                  -4.107
REMARK INTRA:                  -0.169
REMARK UNBOUND:                -0.206
REMARK  Name = Nicotine.pdb
REMARK  2 active torsions:
REMARK  status: ('A' for Active; 'I' for Inactive)
REMARK    1  A    between atoms: C_3  and  C_6
REMARK    2  A    between atoms: N_4  and  C_12
REMARK                            x       y       z     vdW  Elec       q    Type
REMARK                         _______ _______ _______ _____ _____    ______ ____
ROOT
ATOM      1  C   UNL     1       7.740  -0.473   5.964  0.00  0.00    +0.017 C 
ATOM      2  C   UNL     1       7.948  -1.401   4.738  0.00  0.00    +0.025 C 
ATOM      3  C   UNL     1       7.577  -0.492   3.547  0.00  0.00    +0.088 C 
ATOM      4  N   UNL     1       6.713   0.582   4.070  0.00  0.00    -0.298 NA
ATOM      5  C   UNL     1       6.514   0.363   5.518  0.00  0.00    +0.085 C 
ATOM      6  C   UNL     1       7.299   1.903   3.812  0.00  0.00    +0.105 C 
ENDROOT
BRANCH   3   7
ATOM      7  C   UNL     1       6.835  -1.289   2.506  0.00  0.00    -0.012 A 
ATOM      8  C   UNL     1       5.528  -1.681   2.727  0.00  0.00    +0.115 A 
ATOM      9  N   UNL     1       4.871  -2.379   1.821  0.00  0.00    -0.263 NA
ATOM     10  C   UNL     1       5.427  -2.728   0.677  0.00  0.00    +0.111 A 
ATOM     11  C   UNL     1       6.730  -2.371   0.386  0.00  0.00    +0.020 A 
ATOM     12  C   UNL     1       7.451  -1.633   1.312  0.00  0.00    +0.008 A 
ENDBRANCH   3   7
TORSDOF 1
ENDMDL
MODEL 4
REMARK VINA RESULT:    -3.726      1.799      4.758
REMARK INTER + INTRA:          -4.150
REMARK INTER:                  -3.956
REMARK INTRA:                  -0.194
REMARK UNBOUND:                -0.206
REMARK  Name = Nicotine.pdb
REMARK  2 active torsions:
REMARK  status: ('A' for Active; 'I' for Inactive)
REMARK    1  A    between atoms: C_3  and  C_6
REMARK    2  A    between atoms: N_4  and  C_12
REMARK                            x       y       z     vdW  Elec       q    Type
REMARK                         _______ _______ _______ _____ _____    ______ ____
ROOT
ATOM      1  C   UNL     1       6.634   1.519   4.177  0.00  0.00    +0.017 C 
ATOM      2  C   UNL     1       5.608   0.687   3.363  0.00  0.00    +0.025 C 
ATOM      3  C   UNL     1       6.054  -0.767   3.626  0.00  0.00    +0.088 C 
ATOM      4  N   UNL     1       7.472  -0.723   4.028  0.00  0.00    -0.298 NA
ATOM      5  C   UNL     1       7.926   0.683   4.000  0.00  0.00    +0.085 C 
ATOM      6  C   UNL     1       7.660  -1.312   5.360  0.00  0.00    +0.105 C 
ENDROOT
BRANCH   3   7
ATOM      7  C   UNL     1       5.901  -1.585   2.370  0.00  0.00    -0.012 A 
ATOM      8  C   UNL     1       4.730  -2.278   2.126  0.00  0.00    +0.115 A 
ATOM      9  N   UNL     1       4.588  -2.996   1.029  0.00  0.00    -0.263 NA
ATOM     10  C   UNL     1       5.546  -3.084   0.129  0.00  0.00    +0.111 A 
ATOM     11  C   UNL     1       6.745  -2.419   0.305  0.00  0.00    +0.020 A 
ATOM     12  C   UNL     1       6.929  -1.649   1.443  0.00  0.00    +0.008 A 
ENDBRANCH   3   7
TORSDOF 1
ENDMDL
MODEL 5
REMARK VINA RESULT:    -3.570      1.518      4.421
REMARK INTER + INTRA:          -3.985
REMARK INTER:                  -3.731
REMARK INTRA:                  -0.254
REMARK UNBOUND:                -0.206
REMARK  Name = Nicotine.pdb
REMARK  2 active torsions:
REMARK  status: ('A' for Active; 'I' for Inactive)
REMARK    1  A    between atoms: C_3  and  C_6
REMARK    2  A    between atoms: N_4  and  C_12
REMARK                            x       y       z     vdW  Elec       q    Type
REMARK                         _______ _______ _______ _____ _____    ______ ____
ROOT
ATOM      1  C   UNL     1       5.317  -0.498   4.325  0.00  0.00    +0.017 C 
ATOM      2  C   UNL     1       4.663  -1.667   3.542  0.00  0.00    +0.025 C 
ATOM      3  C   UNL     1       5.695  -1.962   2.433  0.00  0.00    +0.088 C 
ATOM      4  N   UNL     1       6.508  -0.745   2.258  0.00  0.00    -0.298 NA
ATOM      5  C   UNL     1       6.010   0.292   3.187  0.00  0.00    +0.085 C 
ATOM      6  C   UNL     1       7.930  -1.024   2.492  0.00  0.00    +0.105 C 
ENDROOT
BRANCH   3   7
ATOM      7  C   UNL     1       4.984  -2.295   1.147  0.00  0.00    -0.012 A 
ATOM      8  C   UNL     1       5.544  -3.183   0.248  0.00  0.00    +0.115 A 
ATOM      9  N   UNL     1       4.929  -3.480  -0.880  0.00  0.00    -0.263 NA
ATOM     10  C   UNL     1       3.764  -2.948  -1.195  0.00  0.00    +0.111 A 
ATOM     11  C   UNL     1       3.142  -2.053  -0.345  0.00  0.00    +0.020 A 
ATOM     12  C   UNL     1       3.757  -1.720   0.853  0.00  0.00    +0.008 A 
ENDBRANCH   3   7
TORSDOF 1
ENDMDL
MODEL 6
REMARK VINA RESULT:    -3.422      1.793      3.232
REMARK INTER + INTRA:          -3.829
REMARK INTER:                  -3.622
REMARK INTRA:                  -0.207
REMARK UNBOUND:                -0.206
REMARK  Name = Nicotine.pdb
REMARK  2 active torsions:
REMARK  status: ('A' for Active; 'I' for Inactive)
REMARK    1  A    between atoms: C_3  and  C_6
REMARK    2  A    between atoms: N_4  and  C_12
REMARK                            x       y       z     vdW  Elec       q    Type
REMARK                         _______ _______ _______ _____ _____    ______ ____
ROOT
ATOM      1  C   UNL     1       1.691  -3.352   3.613  0.00  0.00    +0.017 C 
ATOM      2  C   UNL     1       3.091  -2.691   3.702  0.00  0.00    +0.025 C 
ATOM      3  C   UNL     1       3.165  -1.859   2.404  0.00  0.00    +0.088 C 
ATOM      4  N   UNL     1       2.207  -2.448   1.452  0.00  0.00    -0.298 NA
ATOM      5  C   UNL     1       1.565  -3.617   2.092  0.00  0.00    +0.085 C 
ATOM      6  C   UNL     1       1.204  -1.460   1.034  0.00  0.00    +0.105 C 
ENDROOT
BRANCH   3   7
ATOM      7  C   UNL     1       4.559  -1.921   1.834  0.00  0.00    -0.012 A 
ATOM      8  C   UNL     1       5.583  -1.196   2.413  0.00  0.00    +0.115 A 
ATOM      9  N   UNL     1       6.806  -1.244   1.921  0.00  0.00    -0.263 NA
ATOM     10  C   UNL     1       7.100  -1.978   0.867  0.00  0.00    +0.111 A 
ATOM     11  C   UNL     1       6.128  -2.731   0.235  0.00  0.00    +0.020 A 
ATOM     12  C   UNL     1       4.832  -2.709   0.727  0.00  0.00    +0.008 A 
ENDBRANCH   3   7
TORSDOF 1
ENDMDL
MODEL 7
REMARK VINA RESULT:    -3.114      2.274      3.757
REMARK INTER + INTRA:          -3.502
REMARK INTER:                  -3.303
REMARK INTRA:                  -0.199
REMARK UNBOUND:                -0.206
REMARK  Name = Nicotine.pdb
REMARK  2 active torsions:
REMARK  status: ('A' for Active; 'I' for Inactive)
REMARK    1  A    between atoms: C_3  and  C_6
REMARK    2  A    between atoms: N_4  and  C_12
REMARK                            x       y       z     vdW  Elec       q    Type
REMARK                         _______ _______ _______ _____ _____    ______ ____
ROOT
ATOM      1  C   UNL     1       3.809  -2.180  -4.256  0.00  0.00    +0.017 C 
ATOM      2  C   UNL     1       4.637  -1.810  -2.997  0.00  0.00    +0.025 C 
ATOM      3  C   UNL     1       4.542  -3.086  -2.133  0.00  0.00    +0.088 C 
ATOM      4  N   UNL     1       3.343  -3.823  -2.571  0.00  0.00    -0.298 NA
ATOM      5  C   UNL     1       2.683  -3.051  -3.646  0.00  0.00    +0.085 C 
ATOM      6  C   UNL     1       3.694  -5.173  -3.032  0.00  0.00    +0.105 C 
ENDROOT
BRANCH   3   7
ATOM      7  C   UNL     1       4.412  -2.711  -0.679  0.00  0.00    -0.012 A 
ATOM      8  C   UNL     1       5.459  -2.929   0.196  0.00  0.00    +0.115 A 
ATOM      9  N   UNL     1       5.354  -2.605   1.469  0.00  0.00    -0.263 NA
ATOM     10  C   UNL     1       4.255  -2.064   1.958  0.00  0.00    +0.111 A 
ATOM     11  C   UNL     1       3.166  -1.815   1.143  0.00  0.00    +0.020 A 
ATOM     12  C   UNL     1       3.242  -2.139  -0.203  0.00  0.00    +0.008 A 
ENDBRANCH   3   7
TORSDOF 1
ENDMDL
MODEL 8
REMARK VINA RESULT:    -3.111      2.316      4.037
REMARK INTER + INTRA:          -3.499
REMARK INTER:                  -3.275
REMARK INTRA:                  -0.224
REMARK UNBOUND:                -0.206
REMARK  Name = Nicotine.pdb
REMARK  2 active torsions:
REMARK  status: ('A' for Active; 'I' for Inactive)
REMARK    1  A    between atoms: C_3  and  C_6
REMARK    2  A    between atoms: N_4  and  C_12
REMARK                            x       y       z     vdW  Elec       q    Type
REMARK                         _______ _______ _______ _____ _____    ______ ____
ROOT
ATOM      1  C   UNL     1       0.823  -0.938   3.112  0.00  0.00    +0.017 C 
ATOM      2  C   UNL     1       2.223  -0.689   2.492  0.00  0.00    +0.025 C 
ATOM      3  C   UNL     1       2.086  -1.286   1.075  0.00  0.00    +0.088 C 
ATOM      4  N   UNL     1       0.980  -2.259   1.116  0.00  0.00    -0.298 NA
ATOM      5  C   UNL     1       0.446  -2.308   2.494  0.00  0.00    +0.085 C 
ATOM      6  C   UNL     1      -0.072  -1.900   0.156  0.00  0.00    +0.105 C 
ENDROOT
BRANCH   3   7
ATOM      7  C   UNL     1       3.366  -1.979   0.685  0.00  0.00    -0.012 A 
ATOM      8  C   UNL     1       3.401  -2.813  -0.416  0.00  0.00    +0.115 A 
ATOM      9  N   UNL     1       4.517  -3.424  -0.765  0.00  0.00    -0.263 NA
ATOM     10  C   UNL     1       5.635  -3.266  -0.084  0.00  0.00    +0.111 A 
ATOM     11  C   UNL     1       5.677  -2.447   1.029  0.00  0.00    +0.020 A 
ATOM     12  C   UNL     1       4.524  -1.784   1.422  0.00  0.00    +0.008 A 
ENDBRANCH   3   7
TORSDOF 1
ENDMDL
MODEL 9
REMARK VINA RESULT:    -3.090      2.160      4.118
REMARK INTER + INTRA:          -3.477
REMARK INTER:                  -3.287
REMARK INTRA:                  -0.190
REMARK UNBOUND:                -0.206
REMARK  Name = Nicotine.pdb
REMARK  2 active torsions:
REMARK  status: ('A' for Active; 'I' for Inactive)
REMARK    1  A    between atoms: C_3  and  C_6
REMARK    2  A    between atoms: N_4  and  C_12
REMARK                            x       y       z     vdW  Elec       q    Type
REMARK                         _______ _______ _______ _____ _____    ______ ____
ROOT
ATOM      1  C   UNL     1       2.781   1.000   3.376  0.00  0.00    +0.017 C 
ATOM      2  C   UNL     1       2.868  -0.484   2.930  0.00  0.00    +0.025 C 
ATOM      3  C   UNL     1       4.385  -0.769   2.971  0.00  0.00    +0.088 C 
ATOM      4  N   UNL     1       5.077   0.528   2.867  0.00  0.00    -0.298 NA
ATOM      5  C   UNL     1       4.061   1.594   2.738  0.00  0.00    +0.085 C 
ATOM      6  C   UNL     1       5.940   0.760   4.032  0.00  0.00    +0.105 C 
ENDROOT
BRANCH   3   7
ATOM      7  C   UNL     1       4.771  -1.653   1.814  0.00  0.00    -0.012 A 
ATOM      8  C   UNL     1       3.800  -2.293   1.068  0.00  0.00    +0.115 A 
ATOM      9  N   UNL     1       4.130  -3.068   0.053  0.00  0.00    -0.263 NA
ATOM     10  C   UNL     1       5.388  -3.264  -0.289  0.00  0.00    +0.111 A 
ATOM     11  C   UNL     1       6.414  -2.656   0.410  0.00  0.00    +0.020 A 
ATOM     12  C   UNL     1       6.105  -1.830   1.480  0.00  0.00    +0.008 A 
ENDBRANCH   3   7
TORSDOF 1
ENDMDL
MODEL 10
REMARK VINA RESULT:    -3.045      2.785      5.106
REMARK INTER + INTRA:          -3.429
REMARK INTER:                  -3.188
REMARK INTRA:                  -0.241
REMARK UNBOUND:                -0.206
REMARK  Name = Nicotine.pdb
REMARK  2 active torsions:
REMARK  status: ('A' for Active; 'I' for Inactive)
REMARK    1  A    between atoms: C_3  and  C_6
REMARK    2  A    between atoms: N_4  and  C_12
REMARK                            x       y       z     vdW  Elec       q    Type
REMARK                         _______ _______ _______ _____ _____    ______ ____
ROOT
ATOM      1  C   UNL     1       5.511  -2.805   0.025  0.00  0.00    +0.017 C 
ATOM      2  C   UNL     1       4.328  -2.568   1.001  0.00  0.00    +0.025 C 
ATOM      3  C   UNL     1       3.090  -2.771   0.101  0.00  0.00    +0.088 C 
ATOM      4  N   UNL     1       3.522  -2.553  -1.291  0.00  0.00    -0.298 NA
ATOM      5  C   UNL     1       4.958  -2.201  -1.290  0.00  0.00    +0.085 C 
ATOM      6  C   UNL     1       3.272  -3.744  -2.113  0.00  0.00    +0.105 C 
ENDROOT
BRANCH   3   7
ATOM      7  C   UNL     1       2.020  -1.776   0.469  0.00  0.00    -0.012 A 
ATOM      8  C   UNL     1       0.708  -2.183   0.618  0.00  0.00    +0.115 A 
ATOM      9  N   UNL     1      -0.234  -1.319   0.941  0.00  0.00    -0.263 NA
ATOM     10  C   UNL     1       0.032  -0.042   1.132  0.00  0.00    +0.111 A 
ATOM     11  C   UNL     1       1.322   0.439   1.001  0.00  0.00    +0.020 A 
ATOM     12  C   UNL     1       2.340  -0.441   0.669  0.00  0.00    +0.008 A 
ENDBRANCH   3   7
TORSDOF 1
ENDMDL
