MODEL 1
REMARK VINA RESULT:    -3.937      0.000      0.000
REMARK INTER + INTRA:          -4.417
REMARK INTER:                  -4.167
REMARK INTRA:                  -0.250
REMARK UNBOUND:                -0.250
REMARK  Name = Nicotine.pdb
REMARK  2 active torsions:
REMARK  status: ('A' for Active; 'I' for Inactive)
REMARK    1  A    between atoms: C_3  and  C_6
REMARK    2  A    between atoms: N_4  and  C_12
REMARK                            x       y       z     vdW  Elec       q    Type
REMARK                         _______ _______ _______ _____ _____    ______ ____
ROOT
ATOM      1  C   UNL     1       0.056   0.697  -2.710  0.00  0.00    +0.017 C 
ATOM      2  C   UNL     1       0.686   0.289  -1.352  0.00  0.00    +0.025 C 
ATOM      3  C   UNL     1       1.954  -0.482  -1.776  0.00  0.00    +0.088 C 
ATOM      4  N   UNL     1       1.738  -0.953  -3.156  0.00  0.00    -0.298 NA
ATOM      5  C   UNL     1       0.390  -0.532  -3.592  0.00  0.00    +0.085 C 
ATOM      6  C   UNL     1       2.772  -0.431  -4.058  0.00  0.00    +0.105 C 
ENDROOT
BRANCH   3   7
ATOM      7  C   UNL     1       2.169  -1.658  -0.859  0.00  0.00    -0.012 A 
ATOM      8  C   UNL     1       3.332  -2.400  -0.935  0.00  0.00    +0.115 A 
ATOM      9  N   UNL     1       3.529  -3.431  -0.136  0.00  0.00    -0.263 NA
ATOM     10  C   UNL     1       2.633  -3.793   0.761  0.00  0.00    +0.111 A 
ATOM     11  C   UNL     1       1.445  -3.098   0.896  0.00  0.00    +0.020 A 
ATOM     12  C   UNL     1       1.206  -2.005   0.077  0.00  0.00    +0.008 A 
ENDBRANCH   3   7
TORSDOF 1
ENDMDL
MODEL 2
REMARK VINA RESULT:    -3.879      1.666      4.874
REMARK INTER + INTRA:          -4.356
REMARK INTER:                  -4.106
REMARK INTRA:                  -0.250
REMARK UNBOUND:                -0.250
REMARK  Name = Nicotine.pdb
REMARK  2 active torsions:
REMARK  status: ('A' for Active; 'I' for Inactive)
REMARK    1  A    between atoms: C_3  and  C_6
REMARK    2  A    between atoms: N_4  and  C_12
REMARK                            x       y       z     vdW  Elec       q    Type
REMARK                         _______ _______ _______ _____ _____    ______ ____
ROOT
ATOM      1  C   UNL     1       0.938  -3.681   3.266  0.00  0.00    +0.017 C 
ATOM      2  C   UNL     1       0.611  -3.454   1.767  0.00  0.00    +0.025 C 
ATOM      3  C   UNL     1       1.972  -3.683   1.076  0.00  0.00    +0.088 C 
ATOM      4  N   UNL     1       3.019  -3.470   2.092  0.00  0.00    -0.298 NA
ATOM      5  C   UNL     1       2.369  -3.096   3.367  0.00  0.00    +0.085 C 
ATOM      6  C   UNL     1       3.848  -4.671   2.255  0.00  0.00    +0.105 C 
ENDROOT
BRANCH   3   7
ATOM      7  C   UNL     1       2.145  -2.702  -0.054  0.00  0.00    -0.012 A 
ATOM      8  C   UNL     1       3.209  -2.823  -0.928  0.00  0.00    +0.115 A 
ATOM      9  N   UNL     1       3.367  -1.968  -1.920  0.00  0.00    -0.263 NA
ATOM     10  C   UNL     1       2.527  -0.972  -2.118  0.00  0.00    +0.111 A 
ATOM     11  C   UNL     1       1.439  -0.788  -1.284  0.00  0.00    +0.020 A 
ATOM     12  C   UNL     1       1.237  -1.670  -0.234  0.00  0.00    +0.008 A 
ENDBRANCH   3   7
TORSDOF 1
ENDMDL
MODEL 3
REMARK VINA RESULT:    -3.802      3.297      5.643
REMARK INTER + INTRA:          -4.274
REMARK INTER:                  -4.080
REMARK INTRA:                  -0.194
REMARK UNBOUND:                -0.250
REMARK  Name = Nicotine.pdb
REMARK  2 active torsions:
REMARK  status: ('A' for Active; 'I' for Inactive)
REMARK    1  A    between atoms: C_3  and  C_6
REMARK    2  A    between atoms: N_4  and  C_12
REMARK                            x       y       z     vdW  Elec       q    Type
REMARK                         _______ _______ _______ _____ _____    ______ ____
ROOT
ATOM      1  C   UNL     1       2.513  -5.765   1.269  0.00  0.00    +0.017 C 
ATOM      2  C   UNL     1       1.210  -5.421   2.037  0.00  0.00    +0.025 C 
ATOM      3  C   UNL     1       1.013  -3.921   1.732  0.00  0.00    +0.088 C 
ATOM      4  N   UNL     1       2.329  -3.375   1.357  0.00  0.00    -0.298 NA
ATOM      5  C   UNL     1       3.330  -4.460   1.440  0.00  0.00    +0.085 C 
ATOM      6  C   UNL     1       2.294  -2.793   0.009  0.00  0.00    +0.105 C 
ENDROOT
BRANCH   3   7
ATOM      7  C   UNL     1       0.493  -3.213   2.957  0.00  0.00    -0.012 A 
ATOM      8  C   UNL     1       1.120  -3.377   4.178  0.00  0.00    +0.115 A 
ATOM      9  N   UNL     1       0.672  -2.762   5.254  0.00  0.00    -0.263 NA
ATOM     10  C   UNL     1      -0.383  -1.972   5.212  0.00  0.00    +0.111 A 
ATOM     11  C   UNL     1      -1.061  -1.759   4.027  0.00  0.00    +0.020 A 
ATOM     12  C   UNL     1      -0.616  -2.385   2.873  0.00  0.00    +0.008 A 
ENDBRANCH   3   7
TORSDOF 1
ENDMDL
MODEL 4
REMARK VINA RESULT:    -3.724      2.749      5.561
REMARK INTER + INTRA:          -4.192
REMARK INTER:                  -3.972
REMARK INTRA:                  -0.220
REMARK UNBOUND:                -0.250
REMARK  Name = Nicotine.pdb
REMARK  2 active torsions:
REMARK  status: ('A' for Active; 'I' for Inactive)
REMARK    1  A    between atoms: C_3  and  C_6
REMARK    2  A    between atoms: N_4  and  C_12
REMARK                            x       y       z     vdW  Elec       q    Type
REMARK                         _______ _______ _______ _____ _____    ______ ____
ROOT
ATOM      1  C   UNL     1      -0.722  -2.096   4.350  0.00  0.00    +0.017 C 
ATOM      2  C   UNL     1      -0.540  -2.370   2.834  0.00  0.00    +0.025 C 
ATOM      3  C   UNL     1       0.578  -3.434   2.805  0.00  0.00    +0.088 C 
ATOM      4  N   UNL     1       1.322  -3.321   4.073  0.00  0.00    -0.298 NA
ATOM      5  C   UNL     1       0.733  -2.223   4.868  0.00  0.00    +0.085 C 
ATOM      6  C   UNL     1       1.291  -4.586   4.817  0.00  0.00    +0.105 C 
ENDROOT
BRANCH   3   7
ATOM      7  C   UNL     1       1.501  -3.177   1.642  0.00  0.00    -0.012 A 
ATOM      8  C   UNL     1       2.752  -3.763   1.600  0.00  0.00    +0.115 A 
ATOM      9  N   UNL     1       3.566  -3.544   0.586  0.00  0.00    -0.263 NA
ATOM     10  C   UNL     1       3.224  -2.763  -0.420  0.00  0.00    +0.111 A 
ATOM     11  C   UNL     1       1.989  -2.143  -0.447  0.00  0.00    +0.020 A 
ATOM     12  C   UNL     1       1.104  -2.355   0.599  0.00  0.00    +0.008 A 
ENDBRANCH   3   7
TORSDOF 1
ENDMDL
MODEL 5
REMARK VINA RESULT:    -3.635      1.633      2.152
REMARK INTER + INTRA:          -4.097
REMARK INTER:                  -3.885
REMARK INTRA:                  -0.212
REMARK UNBOUND:                -0.250
REMARK  Name = Nicotine.pdb
REMARK  2 active torsions:
REMARK  status: ('A' for Active; 'I' for Inactive)
REMARK    1  A    between atoms: C_3  and  C_6
REMARK    2  A    between atoms: N_4  and  C_12
REMARK                            x       y       z     vdW  Elec       q    Type
REMARK                         _______ _______ _______ _____ _____    ______ ____
ROOT
ATOM      1  C   UNL     1       2.566   2.601  -2.720  0.00  0.00    +0.017 C 
ATOM      2  C   UNL     1       3.246   1.215  -2.570  0.00  0.00    +0.025 C 
ATOM      3  C   UNL     1       2.057   0.234  -2.656  0.00  0.00    +0.088 C 
ATOM      4  N   UNL     1       0.842   0.988  -2.297  0.00  0.00    -0.298 NA
ATOM      5  C   UNL     1       1.229   2.377  -1.971  0.00  0.00    +0.085 C 
ATOM      6  C   UNL     1      -0.139   0.957  -3.390  0.00  0.00    +0.105 C 
ENDROOT
BRANCH   3   7
ATOM      7  C   UNL     1       2.260  -0.904  -1.689  0.00  0.00    -0.012 A 
ATOM      8  C   UNL     1       3.400  -1.683  -1.757  0.00  0.00    +0.115 A 
ATOM      9  N   UNL     1       3.585  -2.681  -0.914  0.00  0.00    -0.263 NA
ATOM     10  C   UNL     1       2.701  -2.974   0.018  0.00  0.00    +0.111 A 
ATOM     11  C   UNL     1       1.538  -2.238   0.147  0.00  0.00    +0.020 A 
ATOM     12  C   UNL     1       1.310  -1.179  -0.717  0.00  0.00    +0.008 A 
ENDBRANCH   3   7
TORSDOF 1
ENDMDL
MODEL 6
REMARK VINA RESULT:    -3.617      1.658      2.311
REMARK INTER + INTRA:          -4.078
REMARK INTER:                  -3.908
REMARK INTRA:                  -0.170
REMARK UNBOUND:                -0.250
REMARK  Name = Nicotine.pdb
REMARK  2 active torsions:
REMARK  status: ('A' for Active; 'I' for Inactive)
REMARK    1  A    between atoms: C_3  and  C_6
REMARK    2  A    between atoms: N_4  and  C_12
REMARK                            x       y       z     vdW  Elec       q    Type
REMARK                         _______ _______ _______ _____ _____    ______ ____
ROOT
ATOM      1  C   UNL     1      -0.214   1.505  -4.221  0.00  0.00    +0.017 C 
ATOM      2  C   UNL     1      -0.237   0.290  -3.256  0.00  0.00    +0.025 C 
ATOM      3  C   UNL     1       0.732   0.720  -2.134  0.00  0.00    +0.088 C 
ATOM      4  N   UNL     1       1.620   1.754  -2.696  0.00  0.00    -0.298 NA
ATOM      5  C   UNL     1       1.262   1.961  -4.115  0.00  0.00    +0.085 C 
ATOM      6  C   UNL     1       1.517   3.007  -1.937  0.00  0.00    +0.105 C 
ENDROOT
BRANCH   3   7
ATOM      7  C   UNL     1       1.544  -0.463  -1.676  0.00  0.00    -0.012 A 
ATOM      8  C   UNL     1       2.660  -0.862  -2.387  0.00  0.00    +0.115 A 
ATOM      9  N   UNL     1       3.377  -1.897  -1.994  0.00  0.00    -0.263 NA
ATOM     10  C   UNL     1       3.062  -2.588  -0.916  0.00  0.00    +0.111 A 
ATOM     11  C   UNL     1       1.960  -2.248  -0.154  0.00  0.00    +0.020 A 
ATOM     12  C   UNL     1       1.186  -1.162  -0.534  0.00  0.00    +0.008 A 
ENDBRANCH   3   7
TORSDOF 1
ENDMDL
MODEL 7
REMARK VINA RESULT:    -3.556      1.672      2.468
REMARK INTER + INTRA:          -4.014
REMARK INTER:                  -3.790
REMARK INTRA:                  -0.224
REMARK UNBOUND:                -0.250
REMARK  Name = Nicotine.pdb
REMARK  2 active torsions:
REMARK  status: ('A' for Active; 'I' for Inactive)
REMARK    1  A    between atoms: C_3  and  C_6
REMARK    2  A    between atoms: N_4  and  C_12
REMARK                            x       y       z     vdW  Elec       q    Type
REMARK                         _______ _______ _______ _____ _____    ______ ____
ROOT
ATOM      1  C   UNL     1       2.582   2.382  -2.821  0.00  0.00    +0.017 C 
ATOM      2  C   UNL     1       3.227   0.987  -2.613  0.00  0.00    +0.025 C 
ATOM      3  C   UNL     1       2.008   0.041  -2.590  0.00  0.00    +0.088 C 
ATOM      4  N   UNL     1       0.832   0.852  -2.230  0.00  0.00    -0.298 NA
ATOM      5  C   UNL     1       1.272   2.246  -2.005  0.00  0.00    +0.085 C 
ATOM      6  C   UNL     1      -0.195   0.787  -3.277  0.00  0.00    +0.105 C 
ENDROOT
BRANCH   3   7
ATOM      7  C   UNL     1       2.219  -1.043  -1.565  0.00  0.00    -0.012 A 
ATOM      8  C   UNL     1       1.279  -1.261  -0.575  0.00  0.00    +0.115 A 
ATOM      9  N   UNL     1       1.456  -2.208   0.326  0.00  0.00    -0.263 NA
ATOM     10  C   UNL     1       2.526  -2.977   0.322  0.00  0.00    +0.111 A 
ATOM     11  C   UNL     1       3.508  -2.818  -0.637  0.00  0.00    +0.020 A 
ATOM     12  C   UNL     1       3.355  -1.837  -1.605  0.00  0.00    +0.008 A 
ENDBRANCH   3   7
TORSDOF 1
ENDMDL
MODEL 8
REMARK VINA RESULT:    -3.364      3.130      5.065
REMARK INTER + INTRA:          -3.811
REMARK INTER:                  -3.577
REMARK INTRA:                  -0.233
REMARK UNBOUND:                -0.250
REMARK  Name = Nicotine.pdb
REMARK  2 active torsions:
REMARK  status: ('A' for Active; 'I' for Inactive)
REMARK    1  A    between atoms: C_3  and  C_6
REMARK    2  A    between atoms: N_4  and  C_12
REMARK                            x       y       z     vdW  Elec       q    Type
REMARK                         _______ _______ _______ _____ _____    ______ ____
ROOT
ATOM      1  C   UNL     1       0.753  -0.995  -2.544  0.00  0.00    +0.017 C 
ATOM      2  C   UNL     1       1.391   0.097  -1.645  0.00  0.00    +0.025 C 
ATOM      3  C   UNL     1       1.102   1.399  -2.422  0.00  0.00    +0.088 C 
ATOM      4  N   UNL     1       0.875   1.026  -3.830  0.00  0.00    -0.298 NA
ATOM      5  C   UNL     1       1.036  -0.438  -3.962  0.00  0.00    +0.085 C 
ATOM      6  C   UNL     1      -0.456   1.453  -4.281  0.00  0.00    +0.105 C 
ENDROOT
BRANCH   3   7
ATOM      7  C   UNL     1       2.282   2.330  -2.320  0.00  0.00    -0.012 A 
ATOM      8  C   UNL     1       2.103   3.646  -1.940  0.00  0.00    +0.115 A 
ATOM      9  N   UNL     1       3.131   4.468  -1.848  0.00  0.00    -0.263 NA
ATOM     10  C   UNL     1       4.360   4.072  -2.113  0.00  0.00    +0.111 A 
ATOM     11  C   UNL     1       4.617   2.769  -2.500  0.00  0.00    +0.020 A 
ATOM     12  C   UNL     1       3.562   1.876  -2.602  0.00  0.00    +0.008 A 
ENDBRANCH   3   7
TORSDOF 1
ENDMDL
MODEL 9
REMARK VINA RESULT:    -3.325      3.149      4.398
REMARK INTER + INTRA:          -3.769
REMARK INTER:                  -3.562
REMARK INTRA:                  -0.207
REMARK UNBOUND:                -0.250
REMARK  Name = Nicotine.pdb
REMARK  2 active torsions:
REMARK  status: ('A' for Active; 'I' for Inactive)
REMARK    1  A    between atoms: C_3  and  C_6
REMARK    2  A    between atoms: N_4  and  C_12
REMARK                            x       y       z     vdW  Elec       q    Type
REMARK                         _______ _______ _______ _____ _____    ______ ____
ROOT
ATOM      1  C   UNL     1       5.321   3.129  -3.311  0.00  0.00    +0.017 C 
ATOM      2  C   UNL     1       4.389   1.918  -3.576  0.00  0.00    +0.025 C 
ATOM      3  C   UNL     1       3.034   2.390  -3.006  0.00  0.00    +0.088 C 
ATOM      4  N   UNL     1       3.320   3.457  -2.030  0.00  0.00    -0.298 NA
ATOM      5  C   UNL     1       4.784   3.646  -1.953  0.00  0.00    +0.085 C 
ATOM      6  C   UNL     1       2.646   4.707  -2.404  0.00  0.00    +0.105 C 
ENDROOT
BRANCH   3   7
ATOM      7  C   UNL     1       2.336   1.242  -2.324  0.00  0.00    -0.012 A 
ATOM      8  C   UNL     1       2.963   0.017  -2.202  0.00  0.00    +0.115 A 
ATOM      9  N   UNL     1       2.359  -0.993  -1.606  0.00  0.00    -0.263 NA
ATOM     10  C   UNL     1       1.144  -0.878  -1.107  0.00  0.00    +0.111 A 
ATOM     11  C   UNL     1       0.455   0.318  -1.192  0.00  0.00    +0.020 A 
ATOM     12  C   UNL     1       1.060   1.403  -1.807  0.00  0.00    +0.008 A 
ENDBRANCH   3   7
TORSDOF 1
ENDMDL
MODEL 10
REMARK VINA RESULT:    -3.199      1.915      5.385
REMARK INTER + INTRA:          -3.636
REMARK INTER:                  -3.423
REMARK INTRA:                  -0.212
REMARK UNBOUND:                -0.250
REMARK  Name = Nicotine.pdb
REMARK  2 active torsions:
REMARK  status: ('A' for Active; 'I' for Inactive)
REMARK    1  A    between atoms: C_3  and  C_6
REMARK    2  A    between atoms: N_4  and  C_12
REMARK                            x       y       z     vdW  Elec       q    Type
REMARK                         _______ _______ _______ _____ _____    ______ ____
ROOT
ATOM      1  C   UNL     1       4.261  -4.763   3.135  0.00  0.00    +0.017 C 
ATOM      2  C   UNL     1       4.010  -3.366   2.510  0.00  0.00    +0.025 C 
ATOM      3  C   UNL     1       2.602  -3.509   1.893  0.00  0.00    +0.088 C 
ATOM      4  N   UNL     1       2.363  -4.948   1.680  0.00  0.00    -0.298 NA
ATOM      5  C   UNL     1       3.564  -5.694   2.111  0.00  0.00    +0.085 C 
ATOM      6  C   UNL     1       1.172  -5.398   2.411  0.00  0.00    +0.105 C 
ENDROOT
BRANCH   3   7
ATOM      7  C   UNL     1       2.542  -2.777   0.577  0.00  0.00    -0.012 A 
ATOM      8  C   UNL     1       3.648  -2.734  -0.250  0.00  0.00    +0.115 A 
ATOM      9  N   UNL     1       3.604  -2.096  -1.403  0.00  0.00    -0.263 NA
ATOM     10  C   UNL     1       2.513  -1.478  -1.812  0.00  0.00    +0.111 A 
ATOM     11  C   UNL     1       1.367  -1.478  -1.038  0.00  0.00    +0.020 A 
ATOM     12  C   UNL     1       1.375  -2.143   0.179  0.00  0.00    +0.008 A 
ENDBRANCH   3   7
TORSDOF 1
ENDMDL
