MODEL 1
REMARK VINA RESULT:    -3.442      0.000      0.000
REMARK INTER + INTRA:          -3.855
REMARK INTER:                  -3.643
REMARK INTRA:                  -0.212
REMARK UNBOUND:                -0.212
REMARK  Name = Nicotine.pdb
REMARK  2 active torsions:
REMARK  status: ('A' for Active; 'I' for Inactive)
REMARK    1  A    between atoms: C_3  and  C_6
REMARK    2  A    between atoms: N_4  and  C_12
REMARK                            x       y       z     vdW  Elec       q    Type
REMARK                         _______ _______ _______ _____ _____    ______ ____
ROOT
ATOM      1  C   UNL     1       3.200  -5.179  -5.080  0.00  0.00    +0.017 C 
ATOM      2  C   UNL     1       3.725  -3.819  -4.548  0.00  0.00    +0.025 C 
ATOM      3  C   UNL     1       3.206  -2.813  -5.597  0.00  0.00    +0.088 C 
ATOM      4  N   UNL     1       2.954  -3.567  -6.838  0.00  0.00    -0.298 NA
ATOM      5  C   UNL     1       3.317  -4.982  -6.612  0.00  0.00    +0.085 C 
ATOM      6  C   UNL     1       1.552  -3.442  -7.255  0.00  0.00    +0.105 C 
ENDROOT
BRANCH   3   7
ATOM      7  C   UNL     1       4.243  -1.749  -5.843  0.00  0.00    -0.012 A 
ATOM      8  C   UNL     1       5.515  -1.877  -5.317  0.00  0.00    +0.115 A 
ATOM      9  N   UNL     1       6.429  -0.949  -5.528  0.00  0.00    -0.263 NA
ATOM     10  C   UNL     1       6.171   0.128  -6.242  0.00  0.00    +0.111 A 
ATOM     11  C   UNL     1       4.921   0.325  -6.800  0.00  0.00    +0.020 A 
ATOM     12  C   UNL     1       3.937  -0.631  -6.604  0.00  0.00    +0.008 A 
ENDBRANCH   3   7
TORSDOF 1
ENDMDL
MODEL 2
REMARK VINA RESULT:    -3.391      2.009      5.275
REMARK INTER + INTRA:          -3.801
REMARK INTER:                  -3.545
REMARK INTRA:                  -0.256
REMARK UNBOUND:                -0.212
REMARK  Name = Nicotine.pdb
REMARK  2 active torsions:
REMARK  status: ('A' for Active; 'I' for Inactive)
REMARK    1  A    between atoms: C_3  and  C_6
REMARK    2  A    between atoms: N_4  and  C_12
REMARK                            x       y       z     vdW  Elec       q    Type
REMARK                         _______ _______ _______ _____ _____    ______ ____
ROOT
ATOM      1  C   UNL     1       9.168  -0.256  -5.121  0.00  0.00    +0.017 C 
ATOM      2  C   UNL     1       8.125  -1.046  -5.955  0.00  0.00    +0.025 C 
ATOM      3  C   UNL     1       7.047   0.017  -6.258  0.00  0.00    +0.088 C 
ATOM      4  N   UNL     1       7.173   1.071  -5.235  0.00  0.00    -0.298 NA
ATOM      5  C   UNL     1       8.259   0.697  -4.305  0.00  0.00    +0.085 C 
ATOM      6  C   UNL     1       7.436   2.377  -5.854  0.00  0.00    +0.105 C 
ENDROOT
BRANCH   3   7
ATOM      7  C   UNL     1       5.678  -0.608  -6.185  0.00  0.00    -0.012 A 
ATOM      8  C   UNL     1       4.605  -0.017  -6.826  0.00  0.00    +0.115 A 
ATOM      9  N   UNL     1       3.403  -0.557  -6.768  0.00  0.00    -0.263 NA
ATOM     10  C   UNL     1       3.176  -1.672  -6.103  0.00  0.00    +0.111 A 
ATOM     11  C   UNL     1       4.200  -2.321  -5.438  0.00  0.00    +0.020 A 
ATOM     12  C   UNL     1       5.478  -1.785  -5.481  0.00  0.00    +0.008 A 
ENDBRANCH   3   7
TORSDOF 1
ENDMDL
MODEL 3
REMARK VINA RESULT:    -3.179      1.903      3.187
REMARK INTER + INTRA:          -3.577
REMARK INTER:                  -3.340
REMARK INTRA:                  -0.237
REMARK UNBOUND:                -0.212
REMARK  Name = Nicotine.pdb
REMARK  2 active torsions:
REMARK  status: ('A' for Active; 'I' for Inactive)
REMARK    1  A    between atoms: C_3  and  C_6
REMARK    2  A    between atoms: N_4  and  C_12
REMARK                            x       y       z     vdW  Elec       q    Type
REMARK                         _______ _______ _______ _____ _____    ______ ____
ROOT
ATOM      1  C   UNL     1       3.098  -1.597  -6.468  0.00  0.00    +0.017 C 
ATOM      2  C   UNL     1       4.330  -0.802  -6.972  0.00  0.00    +0.025 C 
ATOM      3  C   UNL     1       5.502  -1.457  -6.210  0.00  0.00    +0.088 C 
ATOM      4  N   UNL     1       4.936  -2.106  -5.014  0.00  0.00    -0.298 NA
ATOM      5  C   UNL     1       3.478  -1.861  -4.990  0.00  0.00    +0.085 C 
ATOM      6  C   UNL     1       5.228  -3.545  -5.007  0.00  0.00    +0.105 C 
ENDROOT
BRANCH   3   7
ATOM      7  C   UNL     1       6.499  -0.405  -5.801  0.00  0.00    -0.012 A 
ATOM      8  C   UNL     1       7.615  -0.749  -5.061  0.00  0.00    +0.115 A 
ATOM      9  N   UNL     1       8.493   0.165  -4.698  0.00  0.00    -0.263 NA
ATOM     10  C   UNL     1       8.346   1.435  -5.023  0.00  0.00    +0.111 A 
ATOM     11  C   UNL     1       7.255   1.854  -5.762  0.00  0.00    +0.020 A 
ATOM     12  C   UNL     1       6.314   0.920  -6.166  0.00  0.00    +0.008 A 
ENDBRANCH   3   7
TORSDOF 1
ENDMDL
MODEL 4
REMARK VINA RESULT:    -3.172      1.607      2.512
REMARK INTER + INTRA:          -3.569
REMARK INTER:                  -3.362
REMARK INTRA:                  -0.207
REMARK UNBOUND:                -0.212
REMARK  Name = Nicotine.pdb
REMARK  2 active torsions:
REMARK  status: ('A' for Active; 'I' for Inactive)
REMARK    1  A    between atoms: C_3  and  C_6
REMARK    2  A    between atoms: N_4  and  C_12
REMARK                            x       y       z     vdW  Elec       q    Type
REMARK                         _______ _______ _______ _____ _____    ______ ____
ROOT
ATOM      1  C   UNL     1       2.873  -5.008  -5.588  0.00  0.00    +0.017 C 
ATOM      2  C   UNL     1       3.274  -3.988  -6.686  0.00  0.00    +0.025 C 
ATOM      3  C   UNL     1       4.653  -3.486  -6.207  0.00  0.00    +0.088 C 
ATOM      4  N   UNL     1       4.729  -3.735  -4.757  0.00  0.00    -0.298 NA
ATOM      5  C   UNL     1       3.455  -4.343  -4.316  0.00  0.00    +0.085 C 
ATOM      6  C   UNL     1       5.867  -4.603  -4.430  0.00  0.00    +0.105 C 
ENDROOT
BRANCH   3   7
ATOM      7  C   UNL     1       4.785  -2.010  -6.483  0.00  0.00    -0.012 A 
ATOM      8  C   UNL     1       3.724  -1.300  -7.012  0.00  0.00    +0.115 A 
ATOM      9  N   UNL     1       3.832  -0.008  -7.256  0.00  0.00    -0.263 NA
ATOM     10  C   UNL     1       4.945   0.653  -7.008  0.00  0.00    +0.111 A 
ATOM     11  C   UNL     1       6.048   0.010  -6.478  0.00  0.00    +0.020 A 
ATOM     12  C   UNL     1       5.970  -1.347  -6.204  0.00  0.00    +0.008 A 
ENDBRANCH   3   7
TORSDOF 1
ENDMDL
MODEL 5
REMARK VINA RESULT:    -3.145      1.198      4.516
REMARK INTER + INTRA:          -3.540
REMARK INTER:                  -3.286
REMARK INTRA:                  -0.254
REMARK UNBOUND:                -0.212
REMARK  Name = Nicotine.pdb
REMARK  2 active torsions:
REMARK  status: ('A' for Active; 'I' for Inactive)
REMARK    1  A    between atoms: C_3  and  C_6
REMARK    2  A    between atoms: N_4  and  C_12
REMARK                            x       y       z     vdW  Elec       q    Type
REMARK                         _______ _______ _______ _____ _____    ______ ____
ROOT
ATOM      1  C   UNL     1       5.073  -0.014  -6.731  0.00  0.00    +0.017 C 
ATOM      2  C   UNL     1       3.743  -0.687  -6.299  0.00  0.00    +0.025 C 
ATOM      3  C   UNL     1       4.220  -1.946  -5.544  0.00  0.00    +0.088 C 
ATOM      4  N   UNL     1       5.586  -2.244  -6.011  0.00  0.00    -0.298 NA
ATOM      5  C   UNL     1       5.962  -1.246  -7.035  0.00  0.00    +0.085 C 
ATOM      6  C   UNL     1       6.539  -2.237  -4.893  0.00  0.00    +0.105 C 
ENDROOT
BRANCH   3   7
ATOM      7  C   UNL     1       3.308  -3.105  -5.851  0.00  0.00    -0.012 A 
ATOM      8  C   UNL     1       3.376  -4.265  -5.103  0.00  0.00    +0.115 A 
ATOM      9  N   UNL     1       2.580  -5.284  -5.365  0.00  0.00    -0.263 NA
ATOM     10  C   UNL     1       1.696  -5.240  -6.342  0.00  0.00    +0.111 A 
ATOM     11  C   UNL     1       1.570  -4.112  -7.132  0.00  0.00    +0.020 A 
ATOM     12  C   UNL     1       2.386  -3.019  -6.883  0.00  0.00    +0.008 A 
ENDBRANCH   3   7
TORSDOF 1
ENDMDL
MODEL 6
REMARK VINA RESULT:    -2.836      2.102      3.989
REMARK INTER + INTRA:          -3.213
REMARK INTER:                  -3.021
REMARK INTRA:                  -0.192
REMARK UNBOUND:                -0.212
REMARK  Name = Nicotine.pdb
REMARK  2 active torsions:
REMARK  status: ('A' for Active; 'I' for Inactive)
REMARK    1  A    between atoms: C_3  and  C_6
REMARK    2  A    between atoms: N_4  and  C_12
REMARK                            x       y       z     vdW  Elec       q    Type
REMARK                         _______ _______ _______ _____ _____    ______ ____
ROOT
ATOM      1  C   UNL     1       4.136  -0.832  -6.438  0.00  0.00    +0.017 C 
ATOM      2  C   UNL     1       5.332  -1.688  -5.945  0.00  0.00    +0.025 C 
ATOM      3  C   UNL     1       4.739  -3.112  -5.887  0.00  0.00    +0.088 C 
ATOM      4  N   UNL     1       3.275  -2.972  -5.780  0.00  0.00    -0.298 NA
ATOM      5  C   UNL     1       2.942  -1.532  -5.743  0.00  0.00    +0.085 C 
ATOM      6  C   UNL     1       2.598  -3.641  -6.898  0.00  0.00    +0.105 C 
ENDROOT
BRANCH   3   7
ATOM      7  C   UNL     1       5.275  -3.843  -4.683  0.00  0.00    -0.012 A 
ATOM      8  C   UNL     1       6.589  -3.675  -4.292  0.00  0.00    +0.115 A 
ATOM      9  N   UNL     1       7.066  -4.311  -3.239  0.00  0.00    -0.263 NA
ATOM     10  C   UNL     1       6.317  -5.125  -2.523  0.00  0.00    +0.111 A 
ATOM     11  C   UNL     1       4.992  -5.342  -2.854  0.00  0.00    +0.020 A 
ATOM     12  C   UNL     1       4.454  -4.687  -3.951  0.00  0.00    +0.008 A 
ENDBRANCH   3   7
TORSDOF 1
ENDMDL
MODEL 7
REMARK VINA RESULT:    -2.766      9.668     11.486
REMARK INTER + INTRA:          -3.139
REMARK INTER:                  -2.916
REMARK INTRA:                  -0.223
REMARK UNBOUND:                -0.212
REMARK  Name = Nicotine.pdb
REMARK  2 active torsions:
REMARK  status: ('A' for Active; 'I' for Inactive)
REMARK    1  A    between atoms: C_3  and  C_6
REMARK    2  A    between atoms: N_4  and  C_12
REMARK                            x       y       z     vdW  Elec       q    Type
REMARK                         _______ _______ _______ _____ _____    ______ ____
ROOT
ATOM      1  C   UNL     1       9.490  -2.525   4.161  0.00  0.00    +0.017 C 
ATOM      2  C   UNL     1       7.951  -2.713   4.129  0.00  0.00    +0.025 C 
ATOM      3  C   UNL     1       7.767  -4.157   4.645  0.00  0.00    +0.088 C 
ATOM      4  N   UNL     1       9.039  -4.867   4.418  0.00  0.00    -0.298 NA
ATOM      5  C   UNL     1       9.987  -3.938   3.766  0.00  0.00    +0.085 C 
ATOM      6  C   UNL     1       9.587  -5.380   5.680  0.00  0.00    +0.105 C 
ENDROOT
BRANCH   3   7
ATOM      7  C   UNL     1       6.657  -4.835   3.884  0.00  0.00    -0.012 A 
ATOM      8  C   UNL     1       5.578  -5.377   4.557  0.00  0.00    +0.115 A 
ATOM      9  N   UNL     1       4.603  -5.972   3.899  0.00  0.00    -0.263 NA
ATOM     10  C   UNL     1       4.615  -6.075   2.585  0.00  0.00    +0.111 A 
ATOM     11  C   UNL     1       5.661  -5.557   1.844  0.00  0.00    +0.020 A 
ATOM     12  C   UNL     1       6.702  -4.919   2.501  0.00  0.00    +0.008 A 
ENDBRANCH   3   7
TORSDOF 1
ENDMDL
MODEL 8
REMARK VINA RESULT:    -2.761      1.761      4.697
REMARK INTER + INTRA:          -3.134
REMARK INTER:                  -2.893
REMARK INTRA:                  -0.241
REMARK UNBOUND:                -0.212
REMARK  Name = Nicotine.pdb
REMARK  2 active torsions:
REMARK  status: ('A' for Active; 'I' for Inactive)
REMARK    1  A    between atoms: C_3  and  C_6
REMARK    2  A    between atoms: N_4  and  C_12
REMARK                            x       y       z     vdW  Elec       q    Type
REMARK                         _______ _______ _______ _____ _____    ______ ____
ROOT
ATOM      1  C   UNL     1       7.739  -0.306  -6.758  0.00  0.00    +0.017 C 
ATOM      2  C   UNL     1       7.363  -1.804  -6.612  0.00  0.00    +0.025 C 
ATOM      3  C   UNL     1       5.829  -1.763  -6.451  0.00  0.00    +0.088 C 
ATOM      4  N   UNL     1       5.476  -0.414  -5.970  0.00  0.00    -0.298 NA
ATOM      5  C   UNL     1       6.721   0.367  -5.805  0.00  0.00    +0.085 C 
ATOM      6  C   UNL     1       4.556   0.253  -6.900  0.00  0.00    +0.105 C 
ENDROOT
BRANCH   3   7
ATOM      7  C   UNL     1       5.391  -2.797  -5.446  0.00  0.00    -0.012 A 
ATOM      8  C   UNL     1       4.050  -2.963  -5.153  0.00  0.00    +0.115 A 
ATOM      9  N   UNL     1       3.658  -3.866  -4.276  0.00  0.00    -0.263 NA
ATOM     10  C   UNL     1       4.520  -4.640  -3.647  0.00  0.00    +0.111 A 
ATOM     11  C   UNL     1       5.877  -4.532  -3.889  0.00  0.00    +0.020 A 
ATOM     12  C   UNL     1       6.326  -3.598  -4.809  0.00  0.00    +0.008 A 
ENDBRANCH   3   7
TORSDOF 1
ENDMDL
MODEL 9
REMARK VINA RESULT:    -2.744      1.681      2.586
REMARK INTER + INTRA:          -3.116
REMARK INTER:                  -2.865
REMARK INTRA:                  -0.251
REMARK UNBOUND:                -0.212
REMARK  Name = Nicotine.pdb
REMARK  2 active torsions:
REMARK  status: ('A' for Active; 'I' for Inactive)
REMARK    1  A    between atoms: C_3  and  C_6
REMARK    2  A    between atoms: N_4  and  C_12
REMARK                            x       y       z     vdW  Elec       q    Type
REMARK                         _______ _______ _______ _____ _____    ______ ____
ROOT
ATOM      1  C   UNL     1       2.806  -5.040  -5.287  0.00  0.00    +0.017 C 
ATOM      2  C   UNL     1       3.831  -4.351  -4.348  0.00  0.00    +0.025 C 
ATOM      3  C   UNL     1       4.276  -3.119  -5.163  0.00  0.00    +0.088 C 
ATOM      4  N   UNL     1       3.998  -3.410  -6.581  0.00  0.00    -0.298 NA
ATOM      5  C   UNL     1       3.428  -4.771  -6.680  0.00  0.00    +0.085 C 
ATOM      6  C   UNL     1       3.085  -2.413  -7.155  0.00  0.00    +0.105 C 
ENDROOT
BRANCH   3   7
ATOM      7  C   UNL     1       5.750  -2.879  -4.967  0.00  0.00    -0.012 A 
ATOM      8  C   UNL     1       6.340  -1.724  -5.444  0.00  0.00    +0.115 A 
ATOM      9  N   UNL     1       7.630  -1.506  -5.277  0.00  0.00    -0.263 NA
ATOM     10  C   UNL     1       8.404  -2.373  -4.653  0.00  0.00    +0.111 A 
ATOM     11  C   UNL     1       7.884  -3.550  -4.149  0.00  0.00    +0.020 A 
ATOM     12  C   UNL     1       6.531  -3.811  -4.301  0.00  0.00    +0.008 A 
ENDBRANCH   3   7
TORSDOF 1
ENDMDL
MODEL 10
REMARK VINA RESULT:    -2.624     10.339     11.375
REMARK INTER + INTRA:          -2.989
REMARK INTER:                  -2.818
REMARK INTRA:                  -0.172
REMARK UNBOUND:                -0.212
REMARK  Name = Nicotine.pdb
REMARK  2 active torsions:
REMARK  status: ('A' for Active; 'I' for Inactive)
REMARK    1  A    between atoms: C_3  and  C_6
REMARK    2  A    between atoms: N_4  and  C_12
REMARK                            x       y       z     vdW  Elec       q    Type
REMARK                         _______ _______ _______ _____ _____    ______ ____
ROOT
ATOM      1  C   UNL     1       5.872  -5.714   3.305  0.00  0.00    +0.017 C 
ATOM      2  C   UNL     1       7.240  -5.170   2.814  0.00  0.00    +0.025 C 
ATOM      3  C   UNL     1       8.045  -5.021   4.122  0.00  0.00    +0.088 C 
ATOM      4  N   UNL     1       7.071  -4.919   5.225  0.00  0.00    -0.298 NA
ATOM      5  C   UNL     1       5.708  -4.973   4.656  0.00  0.00    +0.085 C 
ATOM      6  C   UNL     1       7.275  -5.991   6.208  0.00  0.00    +0.105 C 
ENDROOT
BRANCH   3   7
ATOM      7  C   UNL     1       8.889  -3.775   4.066  0.00  0.00    -0.012 A 
ATOM      8  C   UNL     1       8.352  -2.550   4.413  0.00  0.00    +0.115 A 
ATOM      9  N   UNL     1       9.084  -1.454   4.366  0.00  0.00    -0.263 NA
ATOM     10  C   UNL     1      10.347  -1.480   3.989  0.00  0.00    +0.111 A 
ATOM     11  C   UNL     1      10.954  -2.669   3.628  0.00  0.00    +0.020 A 
ATOM     12  C   UNL     1      10.216  -3.842   3.670  0.00  0.00    +0.008 A 
ENDBRANCH   3   7
TORSDOF 1
ENDMDL
