MODEL 1
REMARK VINA RESULT:    -3.441      0.000      0.000
REMARK INTER + INTRA:          -3.879
REMARK INTER:                  -3.642
REMARK INTRA:                  -0.237
REMARK UNBOUND:                -0.237
REMARK  Name = Nicotine.pdb
REMARK  2 active torsions:
REMARK  status: ('A' for Active; 'I' for Inactive)
REMARK    1  A    between atoms: C_3  and  C_6
REMARK    2  A    between atoms: N_4  and  C_12
REMARK                            x       y       z     vdW  Elec       q    Type
REMARK                         _______ _______ _______ _____ _____    ______ ____
ROOT
ATOM      1  C   UNL     1       2.316   0.031  -5.932  0.00  0.00    +0.017 C 
ATOM      2  C   UNL     1       2.520  -1.176  -4.978  0.00  0.00    +0.025 C 
ATOM      3  C   UNL     1       3.909  -1.710  -5.386  0.00  0.00    +0.088 C 
ATOM      4  N   UNL     1       4.169  -1.248  -6.761  0.00  0.00    -0.298 NA
ATOM      5  C   UNL     1       2.997  -0.477  -7.228  0.00  0.00    +0.085 C 
ATOM      6  C   UNL     1       5.391  -0.437  -6.823  0.00  0.00    +0.105 C 
ENDROOT
BRANCH   3   7
ATOM      7  C   UNL     1       3.913  -3.216  -5.341  0.00  0.00    -0.012 A 
ATOM      8  C   UNL     1       5.039  -3.924  -5.717  0.00  0.00    +0.115 A 
ATOM      9  N   UNL     1       5.050  -5.243  -5.681  0.00  0.00    -0.263 NA
ATOM     10  C   UNL     1       3.999  -5.934  -5.288  0.00  0.00    +0.111 A 
ATOM     11  C   UNL     1       2.837  -5.295  -4.897  0.00  0.00    +0.020 A 
ATOM     12  C   UNL     1       2.790  -3.910  -4.917  0.00  0.00    +0.008 A 
ENDBRANCH   3   7
TORSDOF 1
ENDMDL
MODEL 2
REMARK VINA RESULT:    -3.365      1.610      2.554
REMARK INTER + INTRA:          -3.798
REMARK INTER:                  -3.561
REMARK INTRA:                  -0.238
REMARK UNBOUND:                -0.237
REMARK  Name = Nicotine.pdb
REMARK  2 active torsions:
REMARK  status: ('A' for Active; 'I' for Inactive)
REMARK    1  A    between atoms: C_3  and  C_6
REMARK    2  A    between atoms: N_4  and  C_12
REMARK                            x       y       z     vdW  Elec       q    Type
REMARK                         _______ _______ _______ _____ _____    ______ ____
ROOT
ATOM      1  C   UNL     1       2.344   0.160  -5.372  0.00  0.00    +0.017 C 
ATOM      2  C   UNL     1       2.404  -1.225  -6.069  0.00  0.00    +0.025 C 
ATOM      3  C   UNL     1       2.448  -2.210  -4.881  0.00  0.00    +0.088 C 
ATOM      4  N   UNL     1       2.951  -1.464  -3.714  0.00  0.00    -0.298 NA
ATOM      5  C   UNL     1       3.242  -0.076  -4.131  0.00  0.00    +0.085 C 
ATOM      6  C   UNL     1       1.979  -1.490  -2.613  0.00  0.00    +0.105 C 
ENDROOT
BRANCH   3   7
ATOM      7  C   UNL     1       3.375  -3.354  -5.198  0.00  0.00    -0.012 A 
ATOM      8  C   UNL     1       2.978  -4.659  -4.974  0.00  0.00    +0.115 A 
ATOM      9  N   UNL     1       3.783  -5.666  -5.249  0.00  0.00    -0.263 NA
ATOM     10  C   UNL     1       4.990  -5.474  -5.744  0.00  0.00    +0.111 A 
ATOM     11  C   UNL     1       5.456  -4.197  -5.995  0.00  0.00    +0.020 A 
ATOM     12  C   UNL     1       4.636  -3.113  -5.723  0.00  0.00    +0.008 A 
ENDBRANCH   3   7
TORSDOF 1
ENDMDL
MODEL 3
REMARK VINA RESULT:    -3.307      1.164      4.472
REMARK INTER + INTRA:          -3.737
REMARK INTER:                  -3.548
REMARK INTRA:                  -0.189
REMARK UNBOUND:                -0.237
REMARK  Name = Nicotine.pdb
REMARK  2 active torsions:
REMARK  status: ('A' for Active; 'I' for Inactive)
REMARK    1  A    between atoms: C_3  and  C_6
REMARK    2  A    between atoms: N_4  and  C_12
REMARK                            x       y       z     vdW  Elec       q    Type
REMARK                         _______ _______ _______ _____ _____    ______ ____
ROOT
ATOM      1  C   UNL     1       5.916  -5.205  -4.308  0.00  0.00    +0.017 C 
ATOM      2  C   UNL     1       5.367  -3.759  -4.183  0.00  0.00    +0.025 C 
ATOM      3  C   UNL     1       3.894  -3.909  -4.621  0.00  0.00    +0.088 C 
ATOM      4  N   UNL     1       3.804  -5.128  -5.444  0.00  0.00    -0.298 NA
ATOM      5  C   UNL     1       5.154  -5.722  -5.554  0.00  0.00    +0.085 C 
ATOM      6  C   UNL     1       2.853  -6.086  -4.865  0.00  0.00    +0.105 C 
ENDROOT
BRANCH   3   7
ATOM      7  C   UNL     1       3.476  -2.709  -5.432  0.00  0.00    -0.012 A 
ATOM      8  C   UNL     1       4.218  -2.315  -6.530  0.00  0.00    +0.115 A 
ATOM      9  N   UNL     1       3.860  -1.267  -7.245  0.00  0.00    -0.263 NA
ATOM     10  C   UNL     1       2.789  -0.558  -6.947  0.00  0.00    +0.111 A 
ATOM     11  C   UNL     1       1.998  -0.892  -5.863  0.00  0.00    +0.020 A 
ATOM     12  C   UNL     1       2.341  -1.991  -5.091  0.00  0.00    +0.008 A 
ENDBRANCH   3   7
TORSDOF 1
ENDMDL
MODEL 4
REMARK VINA RESULT:    -3.193      2.114      5.232
REMARK INTER + INTRA:          -3.617
REMARK INTER:                  -3.390
REMARK INTRA:                  -0.227
REMARK UNBOUND:                -0.237
REMARK  Name = Nicotine.pdb
REMARK  2 active torsions:
REMARK  status: ('A' for Active; 'I' for Inactive)
REMARK    1  A    between atoms: C_3  and  C_6
REMARK    2  A    between atoms: N_4  and  C_12
REMARK                            x       y       z     vdW  Elec       q    Type
REMARK                         _______ _______ _______ _____ _____    ______ ____
ROOT
ATOM      1  C   UNL     1       2.535  -2.506  -5.006  0.00  0.00    +0.017 C 
ATOM      2  C   UNL     1       1.957  -1.212  -5.637  0.00  0.00    +0.025 C 
ATOM      3  C   UNL     1       3.103  -0.731  -6.553  0.00  0.00    +0.088 C 
ATOM      4  N   UNL     1       4.350  -1.331  -6.044  0.00  0.00    -0.298 NA
ATOM      5  C   UNL     1       4.031  -2.136  -4.846  0.00  0.00    +0.085 C 
ATOM      6  C   UNL     1       4.998  -2.153  -7.075  0.00  0.00    +0.105 C 
ENDROOT
BRANCH   3   7
ATOM      7  C   UNL     1       3.200   0.772  -6.507  0.00  0.00    -0.012 A 
ATOM      8  C   UNL     1       4.277   1.421  -7.080  0.00  0.00    +0.115 A 
ATOM      9  N   UNL     1       4.369   2.736  -7.045  0.00  0.00    -0.263 NA
ATOM     10  C   UNL     1       3.447   3.480  -6.466  0.00  0.00    +0.111 A 
ATOM     11  C   UNL     1       2.341   2.901  -5.872  0.00  0.00    +0.020 A 
ATOM     12  C   UNL     1       2.207   1.522  -5.895  0.00  0.00    +0.008 A 
ENDBRANCH   3   7
TORSDOF 1
ENDMDL
MODEL 5
REMARK VINA RESULT:    -3.188      1.442      2.246
REMARK INTER + INTRA:          -3.611
REMARK INTER:                  -3.398
REMARK INTRA:                  -0.214
REMARK UNBOUND:                -0.237
REMARK  Name = Nicotine.pdb
REMARK  2 active torsions:
REMARK  status: ('A' for Active; 'I' for Inactive)
REMARK    1  A    between atoms: C_3  and  C_6
REMARK    2  A    between atoms: N_4  and  C_12
REMARK                            x       y       z     vdW  Elec       q    Type
REMARK                         _______ _______ _______ _____ _____    ______ ____
ROOT
ATOM      1  C   UNL     1       2.779   1.183  -6.314  0.00  0.00    +0.017 C 
ATOM      2  C   UNL     1       2.798  -0.275  -6.844  0.00  0.00    +0.025 C 
ATOM      3  C   UNL     1       2.429  -1.104  -5.595  0.00  0.00    +0.088 C 
ATOM      4  N   UNL     1       2.753  -0.282  -4.415  0.00  0.00    -0.298 NA
ATOM      5  C   UNL     1       3.326   1.000  -4.876  0.00  0.00    +0.085 C 
ATOM      6  C   UNL     1       1.562  -0.059  -3.585  0.00  0.00    +0.105 C 
ENDROOT
BRANCH   3   7
ATOM      7  C   UNL     1       3.231  -2.379  -5.570  0.00  0.00    -0.012 A 
ATOM      8  C   UNL     1       4.504  -2.415  -6.108  0.00  0.00    +0.115 A 
ATOM      9  N   UNL     1       5.212  -3.527  -6.090  0.00  0.00    -0.263 NA
ATOM     10  C   UNL     1       4.742  -4.640  -5.564  0.00  0.00    +0.111 A 
ATOM     11  C   UNL     1       3.478  -4.680  -5.006  0.00  0.00    +0.020 A 
ATOM     12  C   UNL     1       2.705  -3.529  -5.002  0.00  0.00    +0.008 A 
ENDBRANCH   3   7
TORSDOF 1
ENDMDL
MODEL 6
REMARK VINA RESULT:    -3.173      1.393      4.667
REMARK INTER + INTRA:          -3.595
REMARK INTER:                  -3.366
REMARK INTRA:                  -0.229
REMARK UNBOUND:                -0.237
REMARK  Name = Nicotine.pdb
REMARK  2 active torsions:
REMARK  status: ('A' for Active; 'I' for Inactive)
REMARK    1  A    between atoms: C_3  and  C_6
REMARK    2  A    between atoms: N_4  and  C_12
REMARK                            x       y       z     vdW  Elec       q    Type
REMARK                         _______ _______ _______ _____ _____    ______ ____
ROOT
ATOM      1  C   UNL     1       5.621  -5.145  -3.807  0.00  0.00    +0.017 C 
ATOM      2  C   UNL     1       5.090  -3.687  -3.818  0.00  0.00    +0.025 C 
ATOM      3  C   UNL     1       3.717  -3.823  -4.509  0.00  0.00    +0.088 C 
ATOM      4  N   UNL     1       3.748  -5.064  -5.303  0.00  0.00    -0.298 NA
ATOM      5  C   UNL     1       5.082  -5.685  -5.155  0.00  0.00    +0.085 C 
ATOM      6  C   UNL     1       2.687  -5.987  -4.880  0.00  0.00    +0.105 C 
ENDROOT
BRANCH   3   7
ATOM      7  C   UNL     1       3.477  -2.641  -5.412  0.00  0.00    -0.012 A 
ATOM      8  C   UNL     1       2.316  -1.899  -5.300  0.00  0.00    +0.115 A 
ATOM      9  N   UNL     1       2.099  -0.863  -6.086  0.00  0.00    -0.263 NA
ATOM     10  C   UNL     1       2.971  -0.494  -7.003  0.00  0.00    +0.111 A 
ATOM     11  C   UNL     1       4.156  -1.187  -7.173  0.00  0.00    +0.020 A 
ATOM     12  C   UNL     1       4.421  -2.279  -6.361  0.00  0.00    +0.008 A 
ENDBRANCH   3   7
TORSDOF 1
ENDMDL
MODEL 7
REMARK VINA RESULT:    -3.076      2.018      4.283
REMARK INTER + INTRA:          -3.493
REMARK INTER:                  -3.237
REMARK INTRA:                  -0.256
REMARK UNBOUND:                -0.237
REMARK  Name = Nicotine.pdb
REMARK  2 active torsions:
REMARK  status: ('A' for Active; 'I' for Inactive)
REMARK    1  A    between atoms: C_3  and  C_6
REMARK    2  A    between atoms: N_4  and  C_12
REMARK                            x       y       z     vdW  Elec       q    Type
REMARK                         _______ _______ _______ _____ _____    ______ ____
ROOT
ATOM      1  C   UNL     1       4.239  -4.721  -5.346  0.00  0.00    +0.017 C 
ATOM      2  C   UNL     1       2.896  -4.064  -4.933  0.00  0.00    +0.025 C 
ATOM      3  C   UNL     1       3.056  -2.609  -5.423  0.00  0.00    +0.088 C 
ATOM      4  N   UNL     1       4.501  -2.345  -5.542  0.00  0.00    -0.298 NA
ATOM      5  C   UNL     1       5.237  -3.558  -5.125  0.00  0.00    +0.085 C 
ATOM      6  C   UNL     1       4.855  -1.959  -6.914  0.00  0.00    +0.105 C 
ENDROOT
BRANCH   3   7
ATOM      7  C   UNL     1       2.440  -1.662  -4.426  0.00  0.00    -0.012 A 
ATOM      8  C   UNL     1       1.976  -0.425  -4.832  0.00  0.00    +0.115 A 
ATOM      9  N   UNL     1       1.436   0.410  -3.965  0.00  0.00    -0.263 NA
ATOM     10  C   UNL     1       1.318   0.104  -2.689  0.00  0.00    +0.111 A 
ATOM     11  C   UNL     1       1.760  -1.116  -2.209  0.00  0.00    +0.020 A 
ATOM     12  C   UNL     1       2.328  -2.021  -3.091  0.00  0.00    +0.008 A 
ENDBRANCH   3   7
TORSDOF 1
ENDMDL
MODEL 8
REMARK VINA RESULT:    -2.876      3.509      5.290
REMARK INTER + INTRA:          -3.281
REMARK INTER:                  -3.092
REMARK INTRA:                  -0.189
REMARK UNBOUND:                -0.237
REMARK  Name = Nicotine.pdb
REMARK  2 active torsions:
REMARK  status: ('A' for Active; 'I' for Inactive)
REMARK    1  A    between atoms: C_3  and  C_6
REMARK    2  A    between atoms: N_4  and  C_12
REMARK                            x       y       z     vdW  Elec       q    Type
REMARK                         _______ _______ _______ _____ _____    ______ ____
ROOT
ATOM      1  C   UNL     1       3.227  -0.898  -7.088  0.00  0.00    +0.017 C 
ATOM      2  C   UNL     1       2.163  -0.746  -5.970  0.00  0.00    +0.025 C 
ATOM      3  C   UNL     1       2.130   0.778  -5.725  0.00  0.00    +0.088 C 
ATOM      4  N   UNL     1       3.413   1.324  -6.203  0.00  0.00    -0.298 NA
ATOM      5  C   UNL     1       4.242   0.208  -6.706  0.00  0.00    +0.085 C 
ATOM      6  C   UNL     1       3.199   2.334  -7.248  0.00  0.00    +0.105 C 
ENDROOT
BRANCH   3   7
ATOM      7  C   UNL     1       1.968   1.058  -4.254  0.00  0.00    -0.012 A 
ATOM      8  C   UNL     1       1.188   0.232  -3.467  0.00  0.00    +0.115 A 
ATOM      9  N   UNL     1       1.041   0.470  -2.178  0.00  0.00    -0.263 NA
ATOM     10  C   UNL     1       1.626   1.496  -1.592  0.00  0.00    +0.111 A 
ATOM     11  C   UNL     1       2.423   2.364  -2.314  0.00  0.00    +0.020 A 
ATOM     12  C   UNL     1       2.605   2.143  -3.671  0.00  0.00    +0.008 A 
ENDBRANCH   3   7
TORSDOF 1
ENDMDL
MODEL 9
REMARK VINA RESULT:    -2.863      2.796      4.553
REMARK INTER + INTRA:          -3.267
REMARK INTER:                  -3.011
REMARK INTRA:                  -0.256
REMARK UNBOUND:                -0.237
REMARK  Name = Nicotine.pdb
REMARK  2 active torsions:
REMARK  status: ('A' for Active; 'I' for Inactive)
REMARK    1  A    between atoms: C_3  and  C_6
REMARK    2  A    between atoms: N_4  and  C_12
REMARK                            x       y       z     vdW  Elec       q    Type
REMARK                         _______ _______ _______ _____ _____    ______ ____
ROOT
ATOM      1  C   UNL     1       2.420   3.120  -3.521  0.00  0.00    +0.017 C 
ATOM      2  C   UNL     1       2.558   2.561  -4.961  0.00  0.00    +0.025 C 
ATOM      3  C   UNL     1       2.200   1.069  -4.790  0.00  0.00    +0.088 C 
ATOM      4  N   UNL     1       2.422   0.726  -3.374  0.00  0.00    -0.298 NA
ATOM      5  C   UNL     1       2.924   1.926  -2.672  0.00  0.00    +0.085 C 
ATOM      6  C   UNL     1       1.188   0.228  -2.752  0.00  0.00    +0.105 C 
ENDROOT
BRANCH   3   7
ATOM      7  C   UNL     1       3.086   0.225  -5.669  0.00  0.00    -0.012 A 
ATOM      8  C   UNL     1       2.669  -1.025  -6.088  0.00  0.00    +0.115 A 
ATOM      9  N   UNL     1       3.438  -1.770  -6.857  0.00  0.00    -0.263 NA
ATOM     10  C   UNL     1       4.626  -1.359  -7.256  0.00  0.00    +0.111 A 
ATOM     11  C   UNL     1       5.109  -0.120  -6.878  0.00  0.00    +0.020 A 
ATOM     12  C   UNL     1       4.327   0.693  -6.073  0.00  0.00    +0.008 A 
ENDBRANCH   3   7
TORSDOF 1
ENDMDL
MODEL 10
REMARK VINA RESULT:    -0.958      2.107      5.110
REMARK INTER + INTRA:          -1.251
REMARK INTER:                  -1.033
REMARK INTRA:                  -0.219
REMARK UNBOUND:                -0.237
REMARK  Name = Nicotine.pdb
REMARK  2 active torsions:
REMARK  status: ('A' for Active; 'I' for Inactive)
REMARK    1  A    between atoms: C_3  and  C_6
REMARK    2  A    between atoms: N_4  and  C_12
REMARK                            x       y       z     vdW  Elec       q    Type
REMARK                         _______ _______ _______ _____ _____    ______ ____
ROOT
ATOM      1  C   UNL     1       2.379  -1.677  -2.140  0.00  0.00    +0.017 C 
ATOM      2  C   UNL     1       1.740  -0.564  -3.011  0.00  0.00    +0.025 C 
ATOM      3  C   UNL     1       2.058  -1.024  -4.450  0.00  0.00    +0.088 C 
ATOM      4  N   UNL     1       3.218  -1.930  -4.373  0.00  0.00    -0.298 NA
ATOM      5  C   UNL     1       3.645  -2.029  -2.961  0.00  0.00    +0.085 C 
ATOM      6  C   UNL     1       2.891  -3.253  -4.919  0.00  0.00    +0.105 C 
ENDROOT
BRANCH   3   7
ATOM      7  C   UNL     1       2.393   0.169  -5.307  0.00  0.00    -0.012 A 
ATOM      8  C   UNL     1       3.072   0.004  -6.500  0.00  0.00    +0.115 A 
ATOM      9  N   UNL     1       3.369   1.043  -7.256  0.00  0.00    -0.263 NA
ATOM     10  C   UNL     1       3.035   2.271  -6.909  0.00  0.00    +0.111 A 
ATOM     11  C   UNL     1       2.355   2.513  -5.731  0.00  0.00    +0.020 A 
ATOM     12  C   UNL     1       2.021   1.445  -4.912  0.00  0.00    +0.008 A 
ENDBRANCH   3   7
TORSDOF 1
ENDMDL
