MODEL 1
REMARK VINA RESULT:     8.214      0.000      0.000
REMARK INTER + INTRA:           8.508
REMARK INTER:                   8.694
REMARK INTRA:                  -0.186
REMARK UNBOUND:                -0.186
REMARK  Name = Nicotine.pdb
REMARK  2 active torsions:
REMARK  status: ('A' for Active; 'I' for Inactive)
REMARK    1  A    between atoms: C_3  and  C_6
REMARK    2  A    between atoms: N_4  and  C_12
REMARK                            x       y       z     vdW  Elec       q    Type
REMARK                         _______ _______ _______ _____ _____    ______ ____
ROOT
ATOM      1  C   UNL     1      10.941   4.573  -7.166  0.00  0.00    +0.017 C 
ATOM      2  C   UNL     1      10.637   3.721  -5.906  0.00  0.00    +0.025 C 
ATOM      3  C   UNL     1       9.665   4.616  -5.108  0.00  0.00    +0.088 C 
ATOM      4  N   UNL     1       9.874   6.003  -5.562  0.00  0.00    -0.298 NA
ATOM      5  C   UNL     1      10.945   6.008  -6.581  0.00  0.00    +0.085 C 
ATOM      6  C   UNL     1       8.633   6.574  -6.100  0.00  0.00    +0.105 C 
ENDROOT
BRANCH   3   7
ATOM      7  C   UNL     1       9.960   4.508  -3.635  0.00  0.00    -0.012 A 
ATOM      8  C   UNL     1      10.691   3.442  -3.145  0.00  0.00    +0.115 A 
ATOM      9  N   UNL     1      10.954   3.340  -1.856  0.00  0.00    -0.263 NA
ATOM     10  C   UNL     1      10.534   4.240  -0.990  0.00  0.00    +0.111 A 
ATOM     11  C   UNL     1       9.797   5.334  -1.406  0.00  0.00    +0.020 A 
ATOM     12  C   UNL     1       9.506   5.478  -2.754  0.00  0.00    +0.008 A 
ENDBRANCH   3   7
TORSDOF 1
ENDMDL
MODEL 2
REMARK VINA RESULT:    10.306      1.348      2.319
REMARK INTER + INTRA:          10.723
REMARK INTER:                  10.908
REMARK INTRA:                  -0.185
REMARK UNBOUND:                -0.186
REMARK  Name = Nicotine.pdb
REMARK  2 active torsions:
REMARK  status: ('A' for Active; 'I' for Inactive)
REMARK    1  A    between atoms: C_3  and  C_6
REMARK    2  A    between atoms: N_4  and  C_12
REMARK                            x       y       z     vdW  Elec       q    Type
REMARK                         _______ _______ _______ _____ _____    ______ ____
ROOT
ATOM      1  C   UNL     1       9.415   6.276  -6.649  0.00  0.00    +0.017 C 
ATOM      2  C   UNL     1      10.217   6.419  -5.328  0.00  0.00    +0.025 C 
ATOM      3  C   UNL     1      10.903   5.043  -5.188  0.00  0.00    +0.088 C 
ATOM      4  N   UNL     1      10.121   4.081  -5.984  0.00  0.00    -0.298 NA
ATOM      5  C   UNL     1       8.973   4.792  -6.587  0.00  0.00    +0.085 C 
ATOM      6  C   UNL     1      10.953   3.453  -7.018  0.00  0.00    +0.105 C 
ENDROOT
BRANCH   3   7
ATOM      7  C   UNL     1      10.917   4.622  -3.741  0.00  0.00    -0.012 A 
ATOM      8  C   UNL     1      10.940   5.572  -2.737  0.00  0.00    +0.115 A 
ATOM      9  N   UNL     1      10.952   5.211  -1.468  0.00  0.00    -0.263 NA
ATOM     10  C   UNL     1      10.942   3.943  -1.108  0.00  0.00    +0.111 A 
ATOM     11  C   UNL     1      10.918   2.938  -2.056  0.00  0.00    +0.020 A 
ATOM     12  C   UNL     1      10.900   3.278  -3.400  0.00  0.00    +0.008 A 
ENDBRANCH   3   7
TORSDOF 1
ENDMDL
