MODEL 1
REMARK VINA RESULT:    -2.004      0.000      0.000
REMARK INTER + INTRA:          -2.360
REMARK INTER:                  -2.121
REMARK INTRA:                  -0.239
REMARK UNBOUND:                -0.239
REMARK  Name = Nicotine.pdb
REMARK  2 active torsions:
REMARK  status: ('A' for Active; 'I' for Inactive)
REMARK    1  A    between atoms: C_3  and  C_6
REMARK    2  A    between atoms: N_4  and  C_12
REMARK                            x       y       z     vdW  Elec       q    Type
REMARK                         _______ _______ _______ _____ _____    ______ ____
ROOT
ATOM      1  C   UNL     1       8.680  -0.143   4.635  0.00  0.00    +0.017 C 
ATOM      2  C   UNL     1       9.246  -1.514   4.180  0.00  0.00    +0.025 C 
ATOM      3  C   UNL     1       8.154  -2.508   4.631  0.00  0.00    +0.088 C 
ATOM      4  N   UNL     1       7.388  -1.856   5.708  0.00  0.00    -0.298 NA
ATOM      5  C   UNL     1       7.972  -0.521   5.960  0.00  0.00    +0.085 C 
ATOM      6  C   UNL     1       5.966  -1.752   5.356  0.00  0.00    +0.105 C 
ENDROOT
BRANCH   3   7
ATOM      7  C   UNL     1       8.792  -3.772   5.145  0.00  0.00    -0.012 A 
ATOM      8  C   UNL     1       8.008  -4.810   5.612  0.00  0.00    +0.115 A 
ATOM      9  N   UNL     1       8.559  -5.920   6.064  0.00  0.00    -0.263 NA
ATOM     10  C   UNL     1       9.866  -6.085   6.090  0.00  0.00    +0.111 A 
ATOM     11  C   UNL     1      10.714  -5.091   5.638  0.00  0.00    +0.020 A 
ATOM     12  C   UNL     1      10.171  -3.912   5.151  0.00  0.00    +0.008 A 
ENDBRANCH   3   7
TORSDOF 1
ENDMDL
MODEL 2
REMARK VINA RESULT:    -1.870      1.641      4.732
REMARK INTER + INTRA:          -2.218
REMARK INTER:                  -2.000
REMARK INTRA:                  -0.219
REMARK UNBOUND:                -0.239
REMARK  Name = Nicotine.pdb
REMARK  2 active torsions:
REMARK  status: ('A' for Active; 'I' for Inactive)
REMARK    1  A    between atoms: C_3  and  C_6
REMARK    2  A    between atoms: N_4  and  C_12
REMARK                            x       y       z     vdW  Elec       q    Type
REMARK                         _______ _______ _______ _____ _____    ______ ____
ROOT
ATOM      1  C   UNL     1       8.512  -5.396   5.142  0.00  0.00    +0.017 C 
ATOM      2  C   UNL     1       7.785  -4.032   5.001  0.00  0.00    +0.025 C 
ATOM      3  C   UNL     1       8.878  -3.115   4.414  0.00  0.00    +0.088 C 
ATOM      4  N   UNL     1      10.181  -3.719   4.749  0.00  0.00    -0.298 NA
ATOM      5  C   UNL     1       9.942  -4.948   5.534  0.00  0.00    +0.085 C 
ATOM      6  C   UNL     1      10.954  -4.010   3.535  0.00  0.00    +0.105 C 
ENDROOT
BRANCH   3   7
ATOM      7  C   UNL     1       8.777  -1.741   5.024  0.00  0.00    -0.012 A 
ATOM      8  C   UNL     1       9.847  -0.869   4.965  0.00  0.00    +0.115 A 
ATOM      9  N   UNL     1       9.766   0.336   5.496  0.00  0.00    -0.263 NA
ATOM     10  C   UNL     1       8.673   0.754   6.101  0.00  0.00    +0.111 A 
ATOM     11  C   UNL     1       7.562  -0.063   6.200  0.00  0.00    +0.020 A 
ATOM     12  C   UNL     1       7.607  -1.334   5.648  0.00  0.00    +0.008 A 
ENDBRANCH   3   7
TORSDOF 1
ENDMDL
MODEL 3
REMARK VINA RESULT:    -1.810      1.422      2.172
REMARK INTER + INTRA:          -2.154
REMARK INTER:                  -1.937
REMARK INTRA:                  -0.217
REMARK UNBOUND:                -0.239
REMARK  Name = Nicotine.pdb
REMARK  2 active torsions:
REMARK  status: ('A' for Active; 'I' for Inactive)
REMARK    1  A    between atoms: C_3  and  C_6
REMARK    2  A    between atoms: N_4  and  C_12
REMARK                            x       y       z     vdW  Elec       q    Type
REMARK                         _______ _______ _______ _____ _____    ______ ____
ROOT
ATOM      1  C   UNL     1       5.498  -1.585   5.991  0.00  0.00    +0.017 C 
ATOM      2  C   UNL     1       6.996  -1.751   5.625  0.00  0.00    +0.025 C 
ATOM      3  C   UNL     1       7.017  -3.080   4.841  0.00  0.00    +0.088 C 
ATOM      4  N   UNL     1       5.817  -3.839   5.237  0.00  0.00    -0.298 NA
ATOM      5  C   UNL     1       5.073  -3.053   6.244  0.00  0.00    +0.085 C 
ATOM      6  C   UNL     1       4.973  -4.136   4.072  0.00  0.00    +0.105 C 
ENDROOT
BRANCH   3   7
ATOM      7  C   UNL     1       8.257  -3.861   5.189  0.00  0.00    -0.012 A 
ATOM      8  C   UNL     1       8.160  -5.065   5.861  0.00  0.00    +0.115 A 
ATOM      9  N   UNL     1       9.240  -5.756   6.169  0.00  0.00    -0.263 NA
ATOM     10  C   UNL     1      10.448  -5.330   5.853  0.00  0.00    +0.111 A 
ATOM     11  C   UNL     1      10.624  -4.136   5.180  0.00  0.00    +0.020 A 
ATOM     12  C   UNL     1       9.510  -3.385   4.835  0.00  0.00    +0.008 A 
ENDBRANCH   3   7
TORSDOF 1
ENDMDL
MODEL 4
REMARK VINA RESULT:    -1.774      1.436      4.345
REMARK INTER + INTRA:          -2.116
REMARK INTER:                  -1.863
REMARK INTRA:                  -0.253
REMARK UNBOUND:                -0.239
REMARK  Name = Nicotine.pdb
REMARK  2 active torsions:
REMARK  status: ('A' for Active; 'I' for Inactive)
REMARK    1  A    between atoms: C_3  and  C_6
REMARK    2  A    between atoms: N_4  and  C_12
REMARK                            x       y       z     vdW  Elec       q    Type
REMARK                         _______ _______ _______ _____ _____    ______ ____
ROOT
ATOM      1  C   UNL     1      10.886  -5.958   4.575  0.00  0.00    +0.017 C 
ATOM      2  C   UNL     1      10.495  -4.776   5.502  0.00  0.00    +0.025 C 
ATOM      3  C   UNL     1       9.029  -4.497   5.108  0.00  0.00    +0.088 C 
ATOM      4  N   UNL     1       8.831  -5.036   3.751  0.00  0.00    -0.298 NA
ATOM      5  C   UNL     1      10.109  -5.611   3.281  0.00  0.00    +0.085 C 
ATOM      6  C   UNL     1       7.763  -6.044   3.735  0.00  0.00    +0.105 C 
ENDROOT
BRANCH   3   7
ATOM      7  C   UNL     1       8.771  -3.012   5.114  0.00  0.00    -0.012 A 
ATOM      8  C   UNL     1       7.537  -2.519   5.494  0.00  0.00    +0.115 A 
ATOM      9  N   UNL     1       7.303  -1.221   5.502  0.00  0.00    -0.263 NA
ATOM     10  C   UNL     1       8.226  -0.348   5.151  0.00  0.00    +0.111 A 
ATOM     11  C   UNL     1       9.484  -0.767   4.760  0.00  0.00    +0.020 A 
ATOM     12  C   UNL     1       9.769  -2.124   4.744  0.00  0.00    +0.008 A 
ENDBRANCH   3   7
TORSDOF 1
ENDMDL
MODEL 5
REMARK VINA RESULT:    -1.743      2.210      3.409
REMARK INTER + INTRA:          -2.083
REMARK INTER:                  -1.887
REMARK INTRA:                  -0.196
REMARK UNBOUND:                -0.239
REMARK  Name = Nicotine.pdb
REMARK  2 active torsions:
REMARK  status: ('A' for Active; 'I' for Inactive)
REMARK    1  A    between atoms: C_3  and  C_6
REMARK    2  A    between atoms: N_4  and  C_12
REMARK                            x       y       z     vdW  Elec       q    Type
REMARK                         _______ _______ _______ _____ _____    ______ ____
ROOT
ATOM      1  C   UNL     1       4.470  -3.833   5.977  0.00  0.00    +0.017 C 
ATOM      2  C   UNL     1       5.922  -3.329   6.191  0.00  0.00    +0.025 C 
ATOM      3  C   UNL     1       6.649  -3.817   4.920  0.00  0.00    +0.088 C 
ATOM      4  N   UNL     1       5.868  -4.941   4.374  0.00  0.00    -0.298 NA
ATOM      5  C   UNL     1       4.710  -5.185   5.260  0.00  0.00    +0.085 C 
ATOM      6  C   UNL     1       5.430  -4.661   3.000  0.00  0.00    +0.105 C 
ENDROOT
BRANCH   3   7
ATOM      7  C   UNL     1       8.040  -4.279   5.270  0.00  0.00    -0.012 A 
ATOM      8  C   UNL     1       9.138  -3.514   4.925  0.00  0.00    +0.115 A 
ATOM      9  N   UNL     1      10.359  -3.912   5.228  0.00  0.00    -0.263 NA
ATOM     10  C   UNL     1      10.580  -5.044   5.866  0.00  0.00    +0.111 A 
ATOM     11  C   UNL     1       9.531  -5.861   6.243  0.00  0.00    +0.020 A 
ATOM     12  C   UNL     1       8.234  -5.474   5.946  0.00  0.00    +0.008 A 
ENDBRANCH   3   7
TORSDOF 1
ENDMDL
MODEL 6
REMARK VINA RESULT:    -1.738      1.525      2.422
REMARK INTER + INTRA:          -2.079
REMARK INTER:                  -1.835
REMARK INTRA:                  -0.244
REMARK UNBOUND:                -0.239
REMARK  Name = Nicotine.pdb
REMARK  2 active torsions:
REMARK  status: ('A' for Active; 'I' for Inactive)
REMARK    1  A    between atoms: C_3  and  C_6
REMARK    2  A    between atoms: N_4  and  C_12
REMARK                            x       y       z     vdW  Elec       q    Type
REMARK                         _______ _______ _______ _____ _____    ______ ____
ROOT
ATOM      1  C   UNL     1       7.249  -0.690   4.207  0.00  0.00    +0.017 C 
ATOM      2  C   UNL     1       8.022  -1.471   5.303  0.00  0.00    +0.025 C 
ATOM      3  C   UNL     1       9.081  -2.249   4.493  0.00  0.00    +0.088 C 
ATOM      4  N   UNL     1       8.582  -2.356   3.110  0.00  0.00    -0.298 NA
ATOM      5  C   UNL     1       7.257  -1.705   3.036  0.00  0.00    +0.085 C 
ATOM      6  C   UNL     1       9.523  -1.746   2.161  0.00  0.00    +0.105 C 
ENDROOT
BRANCH   3   7
ATOM      7  C   UNL     1       9.268  -3.624   5.080  0.00  0.00    -0.012 A 
ATOM      8  C   UNL     1      10.536  -4.146   5.248  0.00  0.00    +0.115 A 
ATOM      9  N   UNL     1      10.708  -5.349   5.761  0.00  0.00    -0.263 NA
ATOM     10  C   UNL     1       9.688  -6.096   6.132  0.00  0.00    +0.111 A 
ATOM     11  C   UNL     1       8.390  -5.640   5.995  0.00  0.00    +0.020 A 
ATOM     12  C   UNL     1       8.170  -4.379   5.464  0.00  0.00    +0.008 A 
ENDBRANCH   3   7
TORSDOF 1
ENDMDL
MODEL 7
REMARK VINA RESULT:    -1.736      1.114      1.549
REMARK INTER + INTRA:          -2.077
REMARK INTER:                  -1.861
REMARK INTRA:                  -0.215
REMARK UNBOUND:                -0.239
REMARK  Name = Nicotine.pdb
REMARK  2 active torsions:
REMARK  status: ('A' for Active; 'I' for Inactive)
REMARK    1  A    between atoms: C_3  and  C_6
REMARK    2  A    between atoms: N_4  and  C_12
REMARK                            x       y       z     vdW  Elec       q    Type
REMARK                         _______ _______ _______ _____ _____    ______ ____
ROOT
ATOM      1  C   UNL     1       7.562  -0.109   4.211  0.00  0.00    +0.017 C 
ATOM      2  C   UNL     1       8.183  -1.448   3.733  0.00  0.00    +0.025 C 
ATOM      3  C   UNL     1       7.576  -2.480   4.707  0.00  0.00    +0.088 C 
ATOM      4  N   UNL     1       7.162  -1.747   5.917  0.00  0.00    -0.298 NA
ATOM      5  C   UNL     1       7.507  -0.320   5.745  0.00  0.00    +0.085 C 
ATOM      6  C   UNL     1       5.724  -1.915   6.168  0.00  0.00    +0.105 C 
ENDROOT
BRANCH   3   7
ATOM      7  C   UNL     1       8.609  -3.518   5.062  0.00  0.00    -0.012 A 
ATOM      8  C   UNL     1       9.953  -3.260   4.871  0.00  0.00    +0.115 A 
ATOM      9  N   UNL     1      10.863  -4.163   5.180  0.00  0.00    -0.263 NA
ATOM     10  C   UNL     1      10.533  -5.338   5.679  0.00  0.00    +0.111 A 
ATOM     11  C   UNL     1       9.208  -5.666   5.899  0.00  0.00    +0.020 A 
ATOM     12  C   UNL     1       8.223  -4.740   5.591  0.00  0.00    +0.008 A 
ENDBRANCH   3   7
TORSDOF 1
ENDMDL
MODEL 8
REMARK VINA RESULT:    -1.473      2.632      4.189
REMARK INTER + INTRA:          -1.798
REMARK INTER:                  -1.585
REMARK INTRA:                  -0.213
REMARK UNBOUND:                -0.239
REMARK  Name = Nicotine.pdb
REMARK  2 active torsions:
REMARK  status: ('A' for Active; 'I' for Inactive)
REMARK    1  A    between atoms: C_3  and  C_6
REMARK    2  A    between atoms: N_4  and  C_12
REMARK                            x       y       z     vdW  Elec       q    Type
REMARK                         _______ _______ _______ _____ _____    ______ ____
ROOT
ATOM      1  C   UNL     1       4.168  -3.062   5.501  0.00  0.00    +0.017 C 
ATOM      2  C   UNL     1       5.626  -3.031   6.029  0.00  0.00    +0.025 C 
ATOM      3  C   UNL     1       5.886  -1.525   6.244  0.00  0.00    +0.088 C 
ATOM      4  N   UNL     1       4.933  -0.791   5.391  0.00  0.00    -0.298 NA
ATOM      5  C   UNL     1       4.118  -1.772   4.643  0.00  0.00    +0.085 C 
ATOM      6  C   UNL     1       4.083   0.098   6.193  0.00  0.00    +0.105 C 
ENDROOT
BRANCH   3   7
ATOM      7  C   UNL     1       7.299  -1.186   5.846  0.00  0.00    -0.012 A 
ATOM      8  C   UNL     1       8.075  -2.109   5.170  0.00  0.00    +0.115 A 
ATOM      9  N   UNL     1       9.313  -1.820   4.818  0.00  0.00    -0.263 NA
ATOM     10  C   UNL     1       9.857  -0.651   5.093  0.00  0.00    +0.111 A 
ATOM     11  C   UNL     1       9.141   0.322   5.765  0.00  0.00    +0.020 A 
ATOM     12  C   UNL     1       7.835   0.057   6.147  0.00  0.00    +0.008 A 
ENDBRANCH   3   7
TORSDOF 1
ENDMDL
MODEL 9
REMARK VINA RESULT:    -1.451      2.350      4.215
REMARK INTER + INTRA:          -1.775
REMARK INTER:                  -1.552
REMARK INTRA:                  -0.223
REMARK UNBOUND:                -0.239
REMARK  Name = Nicotine.pdb
REMARK  2 active torsions:
REMARK  status: ('A' for Active; 'I' for Inactive)
REMARK    1  A    between atoms: C_3  and  C_6
REMARK    2  A    between atoms: N_4  and  C_12
REMARK                            x       y       z     vdW  Elec       q    Type
REMARK                         _______ _______ _______ _____ _____    ______ ____
ROOT
ATOM      1  C   UNL     1       7.883   3.227   5.027  0.00  0.00    +0.017 C 
ATOM      2  C   UNL     1       7.223   1.951   5.613  0.00  0.00    +0.025 C 
ATOM      3  C   UNL     1       8.434   1.122   6.091  0.00  0.00    +0.088 C 
ATOM      4  N   UNL     1       9.610   1.590   5.335  0.00  0.00    -0.298 NA
ATOM      5  C   UNL     1       9.176   2.649   4.399  0.00  0.00    +0.085 C 
ATOM      6  C   UNL     1      10.656   2.083   6.240  0.00  0.00    +0.105 C 
ENDROOT
BRANCH   3   7
ATOM      7  C   UNL     1       8.195  -0.340   5.815  0.00  0.00    -0.012 A 
ATOM      8  C   UNL     1       9.139  -1.087   5.137  0.00  0.00    +0.115 A 
ATOM      9  N   UNL     1       8.937  -2.367   4.891  0.00  0.00    -0.263 NA
ATOM     10  C   UNL     1       7.838  -2.982   5.279  0.00  0.00    +0.111 A 
ATOM     11  C   UNL     1       6.849  -2.300   5.963  0.00  0.00    +0.020 A 
ATOM     12  C   UNL     1       7.028  -0.954   6.244  0.00  0.00    +0.008 A 
ENDBRANCH   3   7
TORSDOF 1
ENDMDL
