MODEL 1
REMARK VINA RESULT:    -2.506      0.000      0.000
REMARK INTER + INTRA:          -2.873
REMARK INTER:                  -2.653
REMARK INTRA:                  -0.220
REMARK UNBOUND:                -0.220
REMARK  Name = Nicotine.pdb
REMARK  2 active torsions:
REMARK  status: ('A' for Active; 'I' for Inactive)
REMARK    1  A    between atoms: C_3  and  C_6
REMARK    2  A    between atoms: N_4  and  C_12
REMARK                            x       y       z     vdW  Elec       q    Type
REMARK                         _______ _______ _______ _____ _____    ______ ____
ROOT
ATOM      1  C   UNL     1      -0.242  -1.685  -6.268  0.00  0.00    +0.017 C 
ATOM      2  C   UNL     1       1.107  -1.978  -6.974  0.00  0.00    +0.025 C 
ATOM      3  C   UNL     1       1.029  -3.494  -7.256  0.00  0.00    +0.088 C 
ATOM      4  N   UNL     1       0.055  -4.065  -6.309  0.00  0.00    -0.298 NA
ATOM      5  C   UNL     1      -0.452  -2.979  -5.443  0.00  0.00    +0.085 C 
ATOM      6  C   UNL     1      -1.046  -4.727  -7.021  0.00  0.00    +0.105 C 
ENDROOT
BRANCH   3   7
ATOM      7  C   UNL     1       2.381  -4.125  -7.045  0.00  0.00    -0.012 A 
ATOM      8  C   UNL     1       2.498  -5.494  -6.892  0.00  0.00    +0.115 A 
ATOM      9  N   UNL     1       3.677  -6.054  -6.707  0.00  0.00    -0.263 NA
ATOM     10  C   UNL     1       4.784  -5.339  -6.659  0.00  0.00    +0.111 A 
ATOM     11  C   UNL     1       4.746  -3.965  -6.805  0.00  0.00    +0.020 A 
ATOM     12  C   UNL     1       3.524  -3.341  -7.007  0.00  0.00    +0.008 A 
ENDBRANCH   3   7
TORSDOF 1
ENDMDL
MODEL 2
REMARK VINA RESULT:    -2.259      1.720      4.883
REMARK INTER + INTRA:          -2.612
REMARK INTER:                  -2.389
REMARK INTRA:                  -0.222
REMARK UNBOUND:                -0.220
REMARK  Name = Nicotine.pdb
REMARK  2 active torsions:
REMARK  status: ('A' for Active; 'I' for Inactive)
REMARK    1  A    between atoms: C_3  and  C_6
REMARK    2  A    between atoms: N_4  and  C_12
REMARK                            x       y       z     vdW  Elec       q    Type
REMARK                         _______ _______ _______ _____ _____    ______ ____
ROOT
ATOM      1  C   UNL     1       2.926  -2.881  -7.210  0.00  0.00    +0.017 C 
ATOM      2  C   UNL     1       1.832  -1.851  -6.824  0.00  0.00    +0.025 C 
ATOM      3  C   UNL     1       0.927  -2.650  -5.861  0.00  0.00    +0.088 C 
ATOM      4  N   UNL     1       1.141  -4.080  -6.147  0.00  0.00    -0.298 NA
ATOM      5  C   UNL     1       2.113  -4.199  -7.255  0.00  0.00    +0.085 C 
ATOM      6  C   UNL     1       1.614  -4.791  -4.952  0.00  0.00    +0.105 C 
ENDROOT
BRANCH   3   7
ATOM      7  C   UNL     1      -0.516  -2.288  -6.096  0.00  0.00    -0.012 A 
ATOM      8  C   UNL     1      -1.427  -3.257  -6.472  0.00  0.00    +0.115 A 
ATOM      9  N   UNL     1      -2.693  -2.950  -6.680  0.00  0.00    -0.263 NA
ATOM     10  C   UNL     1      -3.138  -1.717  -6.539  0.00  0.00    +0.111 A 
ATOM     11  C   UNL     1      -2.286  -0.695  -6.164  0.00  0.00    +0.020 A 
ATOM     12  C   UNL     1      -0.950  -0.981  -5.932  0.00  0.00    +0.008 A 
ENDBRANCH   3   7
TORSDOF 1
ENDMDL
MODEL 3
REMARK VINA RESULT:    -2.220      1.354      4.578
REMARK INTER + INTRA:          -2.571
REMARK INTER:                  -2.383
REMARK INTRA:                  -0.187
REMARK UNBOUND:                -0.220
REMARK  Name = Nicotine.pdb
REMARK  2 active torsions:
REMARK  status: ('A' for Active; 'I' for Inactive)
REMARK    1  A    between atoms: C_3  and  C_6
REMARK    2  A    between atoms: N_4  and  C_12
REMARK                            x       y       z     vdW  Elec       q    Type
REMARK                         _______ _______ _______ _____ _____    ______ ____
ROOT
ATOM      1  C   UNL     1       5.059  -5.263  -6.533  0.00  0.00    +0.017 C 
ATOM      2  C   UNL     1       3.692  -5.101  -7.248  0.00  0.00    +0.025 C 
ATOM      3  C   UNL     1       3.483  -3.572  -7.255  0.00  0.00    +0.088 C 
ATOM      4  N   UNL     1       4.312  -3.012  -6.173  0.00  0.00    -0.298 NA
ATOM      5  C   UNL     1       5.001  -4.125  -5.484  0.00  0.00    +0.085 C 
ATOM      6  C   UNL     1       5.279  -2.039  -6.698  0.00  0.00    +0.105 C 
ENDROOT
BRANCH   3   7
ATOM      7  C   UNL     1       2.032  -3.251  -7.009  0.00  0.00    -0.012 A 
ATOM      8  C   UNL     1       1.067  -4.232  -7.141  0.00  0.00    +0.115 A 
ATOM      9  N   UNL     1      -0.206  -3.960  -6.928  0.00  0.00    -0.263 NA
ATOM     10  C   UNL     1      -0.608  -2.752  -6.583  0.00  0.00    +0.111 A 
ATOM     11  C   UNL     1       0.300  -1.721  -6.431  0.00  0.00    +0.020 A 
ATOM     12  C   UNL     1       1.647  -1.971  -6.642  0.00  0.00    +0.008 A 
ENDBRANCH   3   7
TORSDOF 1
ENDMDL
MODEL 4
REMARK VINA RESULT:    -2.204      1.450      2.091
REMARK INTER + INTRA:          -2.553
REMARK INTER:                  -2.367
REMARK INTRA:                  -0.186
REMARK UNBOUND:                -0.220
REMARK  Name = Nicotine.pdb
REMARK  2 active torsions:
REMARK  status: ('A' for Active; 'I' for Inactive)
REMARK    1  A    between atoms: C_3  and  C_6
REMARK    2  A    between atoms: N_4  and  C_12
REMARK                            x       y       z     vdW  Elec       q    Type
REMARK                         _______ _______ _______ _____ _____    ______ ____
ROOT
ATOM      1  C   UNL     1      -1.213  -1.121  -5.639  0.00  0.00    +0.017 C 
ATOM      2  C   UNL     1      -0.033  -1.589  -6.531  0.00  0.00    +0.025 C 
ATOM      3  C   UNL     1      -0.419  -3.041  -6.884  0.00  0.00    +0.088 C 
ATOM      4  N   UNL     1      -1.362  -3.506  -5.851  0.00  0.00    -0.298 NA
ATOM      5  C   UNL     1      -1.555  -2.420  -4.866  0.00  0.00    +0.085 C 
ATOM      6  C   UNL     1      -2.642  -3.909  -6.448  0.00  0.00    +0.105 C 
ENDROOT
BRANCH   3   7
ATOM      7  C   UNL     1       0.810  -3.912  -6.888  0.00  0.00    -0.012 A 
ATOM      8  C   UNL     1       2.043  -3.380  -7.217  0.00  0.00    +0.115 A 
ATOM      9  N   UNL     1       3.124  -4.135  -7.222  0.00  0.00    -0.263 NA
ATOM     10  C   UNL     1       3.075  -5.417  -6.917  0.00  0.00    +0.111 A 
ATOM     11  C   UNL     1       1.878  -6.018  -6.577  0.00  0.00    +0.020 A 
ATOM     12  C   UNL     1       0.721  -5.255  -6.555  0.00  0.00    +0.008 A 
ENDBRANCH   3   7
TORSDOF 1
ENDMDL
MODEL 5
REMARK VINA RESULT:    -2.192      2.313      4.440
REMARK INTER + INTRA:          -2.541
REMARK INTER:                  -2.332
REMARK INTRA:                  -0.208
REMARK UNBOUND:                -0.220
REMARK  Name = Nicotine.pdb
REMARK  2 active torsions:
REMARK  status: ('A' for Active; 'I' for Inactive)
REMARK    1  A    between atoms: C_3  and  C_6
REMARK    2  A    between atoms: N_4  and  C_12
REMARK                            x       y       z     vdW  Elec       q    Type
REMARK                         _______ _______ _______ _____ _____    ______ ____
ROOT
ATOM      1  C   UNL     1       5.248  -2.255  -4.290  0.00  0.00    +0.017 C 
ATOM      2  C   UNL     1       4.334  -3.335  -4.926  0.00  0.00    +0.025 C 
ATOM      3  C   UNL     1       3.963  -2.716  -6.291  0.00  0.00    +0.088 C 
ATOM      4  N   UNL     1       4.147  -1.258  -6.174  0.00  0.00    -0.298 NA
ATOM      5  C   UNL     1       4.588  -0.948  -4.797  0.00  0.00    +0.085 C 
ATOM      6  C   UNL     1       5.117  -0.769  -7.161  0.00  0.00    +0.105 C 
ENDROOT
BRANCH   3   7
ATOM      7  C   UNL     1       2.526  -3.028  -6.621  0.00  0.00    -0.012 A 
ATOM      8  C   UNL     1       2.069  -4.332  -6.591  0.00  0.00    +0.115 A 
ATOM      9  N   UNL     1       0.813  -4.613  -6.879  0.00  0.00    -0.263 NA
ATOM     10  C   UNL     1      -0.051  -3.673  -7.205  0.00  0.00    +0.111 A 
ATOM     11  C   UNL     1       0.334  -2.346  -7.256  0.00  0.00    +0.020 A 
ATOM     12  C   UNL     1       1.645  -2.011  -6.954  0.00  0.00    +0.008 A 
ENDBRANCH   3   7
TORSDOF 1
ENDMDL
MODEL 6
REMARK VINA RESULT:    -2.179      6.383      8.096
REMARK INTER + INTRA:          -2.526
REMARK INTER:                  -2.280
REMARK INTRA:                  -0.246
REMARK UNBOUND:                -0.220
REMARK  Name = Nicotine.pdb
REMARK  2 active torsions:
REMARK  status: ('A' for Active; 'I' for Inactive)
REMARK    1  A    between atoms: C_3  and  C_6
REMARK    2  A    between atoms: N_4  and  C_12
REMARK                            x       y       z     vdW  Elec       q    Type
REMARK                         _______ _______ _______ _____ _____    ______ ____
ROOT
ATOM      1  C   UNL     1      -4.021  -0.905  -0.601  0.00  0.00    +0.017 C 
ATOM      2  C   UNL     1      -4.638  -0.661  -2.004  0.00  0.00    +0.025 C 
ATOM      3  C   UNL     1      -3.452  -0.925  -2.956  0.00  0.00    +0.088 C 
ATOM      4  N   UNL     1      -2.216  -0.747  -2.173  0.00  0.00    -0.298 NA
ATOM      5  C   UNL     1      -2.583  -0.362  -0.794  0.00  0.00    +0.085 C 
ATOM      6  C   UNL     1      -1.406  -1.973  -2.180  0.00  0.00    +0.105 C 
ENDROOT
BRANCH   3   7
ATOM      7  C   UNL     1      -3.483   0.056  -4.098  0.00  0.00    -0.012 A 
ATOM      8  C   UNL     1      -2.572  -0.046  -5.133  0.00  0.00    +0.115 A 
ATOM      9  N   UNL     1      -2.593   0.809  -6.137  0.00  0.00    -0.263 NA
ATOM     10  C   UNL     1      -3.474   1.788  -6.195  0.00  0.00    +0.111 A 
ATOM     11  C   UNL     1      -4.416   1.953  -5.197  0.00  0.00    +0.020 A 
ATOM     12  C   UNL     1      -4.429   1.070  -4.128  0.00  0.00    +0.008 A 
ENDBRANCH   3   7
TORSDOF 1
ENDMDL
MODEL 7
REMARK VINA RESULT:    -2.118      8.873      9.943
REMARK INTER + INTRA:          -2.463
REMARK INTER:                  -2.247
REMARK INTRA:                  -0.216
REMARK UNBOUND:                -0.220
REMARK  Name = Nicotine.pdb
REMARK  2 active torsions:
REMARK  status: ('A' for Active; 'I' for Inactive)
REMARK    1  A    between atoms: C_3  and  C_6
REMARK    2  A    between atoms: N_4  and  C_12
REMARK                            x       y       z     vdW  Elec       q    Type
REMARK                         _______ _______ _______ _____ _____    ______ ____
ROOT
ATOM      1  C   UNL     1       2.202   4.572  -0.130  0.00  0.00    +0.017 C 
ATOM      2  C   UNL     1       3.177   3.567  -0.799  0.00  0.00    +0.025 C 
ATOM      3  C   UNL     1       4.228   4.488  -1.455  0.00  0.00    +0.088 C 
ATOM      4  N   UNL     1       3.598   5.808  -1.639  0.00  0.00    -0.298 NA
ATOM      5  C   UNL     1       2.204   5.737  -1.151  0.00  0.00    +0.085 C 
ATOM      6  C   UNL     1       4.350   6.854  -0.934  0.00  0.00    +0.105 C 
ENDROOT
BRANCH   3   7
ATOM      7  C   UNL     1       4.640   3.925  -2.790  0.00  0.00    -0.012 A 
ATOM      8  C   UNL     1       5.103   4.762  -3.789  0.00  0.00    +0.115 A 
ATOM      9  N   UNL     1       5.466   4.277  -4.961  0.00  0.00    -0.263 NA
ATOM     10  C   UNL     1       5.403   2.987  -5.226  0.00  0.00    +0.111 A 
ATOM     11  C   UNL     1       4.952   2.090  -4.277  0.00  0.00    +0.020 A 
ATOM     12  C   UNL     1       4.566   2.562  -3.032  0.00  0.00    +0.008 A 
ENDBRANCH   3   7
TORSDOF 1
ENDMDL
MODEL 8
REMARK VINA RESULT:    -2.055      2.131      2.815
REMARK INTER + INTRA:          -2.395
REMARK INTER:                  -2.140
REMARK INTRA:                  -0.255
REMARK UNBOUND:                -0.220
REMARK  Name = Nicotine.pdb
REMARK  2 active torsions:
REMARK  status: ('A' for Active; 'I' for Inactive)
REMARK    1  A    between atoms: C_3  and  C_6
REMARK    2  A    between atoms: N_4  and  C_12
REMARK                            x       y       z     vdW  Elec       q    Type
REMARK                         _______ _______ _______ _____ _____    ______ ____
ROOT
ATOM      1  C   UNL     1       0.381  -3.039  -6.690  0.00  0.00    +0.017 C 
ATOM      2  C   UNL     1       1.598  -2.257  -7.251  0.00  0.00    +0.025 C 
ATOM      3  C   UNL     1       2.726  -3.311  -7.234  0.00  0.00    +0.088 C 
ATOM      4  N   UNL     1       2.348  -4.339  -6.248  0.00  0.00    -0.298 NA
ATOM      5  C   UNL     1       1.056  -3.956  -5.640  0.00  0.00    +0.085 C 
ATOM      6  C   UNL     1       2.263  -5.665  -6.874  0.00  0.00    +0.105 C 
ENDROOT
BRANCH   3   7
ATOM      7  C   UNL     1       4.026  -2.665  -6.830  0.00  0.00    -0.012 A 
ATOM      8  C   UNL     1       5.230  -3.191  -7.256  0.00  0.00    +0.115 A 
ATOM      9  N   UNL     1       6.373  -2.632  -6.907  0.00  0.00    -0.263 NA
ATOM     10  C   UNL     1       6.413  -1.557  -6.145  0.00  0.00    +0.111 A 
ATOM     11  C   UNL     1       5.249  -0.974  -5.681  0.00  0.00    +0.020 A 
ATOM     12  C   UNL     1       4.029  -1.531  -6.031  0.00  0.00    +0.008 A 
ENDBRANCH   3   7
TORSDOF 1
ENDMDL
MODEL 9
REMARK VINA RESULT:    -1.977      1.698      2.476
REMARK INTER + INTRA:          -2.313
REMARK INTER:                  -2.110
REMARK INTRA:                  -0.204
REMARK UNBOUND:                -0.220
REMARK  Name = Nicotine.pdb
REMARK  2 active torsions:
REMARK  status: ('A' for Active; 'I' for Inactive)
REMARK    1  A    between atoms: C_3  and  C_6
REMARK    2  A    between atoms: N_4  and  C_12
REMARK                            x       y       z     vdW  Elec       q    Type
REMARK                         _______ _______ _______ _____ _____    ______ ____
ROOT
ATOM      1  C   UNL     1      -1.905  -3.885  -6.576  0.00  0.00    +0.017 C 
ATOM      2  C   UNL     1      -0.449  -4.324  -6.883  0.00  0.00    +0.025 C 
ATOM      3  C   UNL     1       0.335  -3.809  -5.657  0.00  0.00    +0.088 C 
ATOM      4  N   UNL     1      -0.459  -2.722  -5.056  0.00  0.00    -0.298 NA
ATOM      5  C   UNL     1      -1.679  -2.526  -5.867  0.00  0.00    +0.085 C 
ATOM      6  C   UNL     1      -0.798  -3.026  -3.660  0.00  0.00    +0.105 C 
ENDROOT
BRANCH   3   7
ATOM      7  C   UNL     1       1.679  -3.286  -6.090  0.00  0.00    -0.012 A 
ATOM      8  C   UNL     1       2.838  -3.935  -5.709  0.00  0.00    +0.115 A 
ATOM      9  N   UNL     1       4.019  -3.483  -6.084  0.00  0.00    -0.263 NA
ATOM     10  C   UNL     1       4.143  -2.404  -6.830  0.00  0.00    +0.111 A 
ATOM     11  C   UNL     1       3.028  -1.702  -7.251  0.00  0.00    +0.020 A 
ATOM     12  C   UNL     1       1.770  -2.150  -6.880  0.00  0.00    +0.008 A 
ENDBRANCH   3   7
TORSDOF 1
ENDMDL
MODEL 10
REMARK VINA RESULT:    -0.377      1.775      2.797
REMARK INTER + INTRA:          -0.620
REMARK INTER:                  -0.398
REMARK INTRA:                  -0.222
REMARK UNBOUND:                -0.220
REMARK  Name = Nicotine.pdb
REMARK  2 active torsions:
REMARK  status: ('A' for Active; 'I' for Inactive)
REMARK    1  A    between atoms: C_3  and  C_6
REMARK    2  A    between atoms: N_4  and  C_12
REMARK                            x       y       z     vdW  Elec       q    Type
REMARK                         _______ _______ _______ _____ _____    ______ ____
ROOT
ATOM      1  C   UNL     1      -2.551  -0.788  -4.814  0.00  0.00    +0.017 C 
ATOM      2  C   UNL     1      -1.333  -0.659  -5.766  0.00  0.00    +0.025 C 
ATOM      3  C   UNL     1      -1.323  -2.015  -6.504  0.00  0.00    +0.088 C 
ATOM      4  N   UNL     1      -2.051  -2.977  -5.658  0.00  0.00    -0.298 NA
ATOM      5  C   UNL     1      -2.486  -2.286  -4.425  0.00  0.00    +0.085 C 
ATOM      6  C   UNL     1      -3.198  -3.547  -6.375  0.00  0.00    +0.105 C 
ENDROOT
BRANCH   3   7
ATOM      7  C   UNL     1       0.097  -2.478  -6.705  0.00  0.00    -0.012 A 
ATOM      8  C   UNL     1       0.360  -3.783  -7.077  0.00  0.00    +0.115 A 
ATOM      9  N   UNL     1       1.599  -4.197  -7.256  0.00  0.00    -0.263 NA
ATOM     10  C   UNL     1       2.629  -3.392  -7.088  0.00  0.00    +0.111 A 
ATOM     11  C   UNL     1       2.444  -2.073  -6.717  0.00  0.00    +0.020 A 
ATOM     12  C   UNL     1       1.155  -1.601  -6.525  0.00  0.00    +0.008 A 
ENDBRANCH   3   7
TORSDOF 1
ENDMDL
