MODEL 1
REMARK VINA RESULT:    -3.903      0.000      0.000
REMARK INTER + INTRA:          -4.384
REMARK INTER:                  -4.131
REMARK INTRA:                  -0.253
REMARK UNBOUND:                -0.253
REMARK  Name = Nicotine.pdb
REMARK  2 active torsions:
REMARK  status: ('A' for Active; 'I' for Inactive)
REMARK    1  A    between atoms: C_3  and  C_6
REMARK    2  A    between atoms: N_4  and  C_12
REMARK                            x       y       z     vdW  Elec       q    Type
REMARK                         _______ _______ _______ _____ _____    ______ ____
ROOT
ATOM      1  C   UNL     1       4.432   6.305   2.322  0.00  0.00    +0.017 C 
ATOM      2  C   UNL     1       4.174   4.794   2.080  0.00  0.00    +0.025 C 
ATOM      3  C   UNL     1       3.584   4.323   3.426  0.00  0.00    +0.088 C 
ATOM      4  N   UNL     1       4.015   5.288   4.454  0.00  0.00    -0.298 NA
ATOM      5  C   UNL     1       4.862   6.315   3.810  0.00  0.00    +0.085 C 
ATOM      6  C   UNL     1       2.858   5.901   5.119  0.00  0.00    +0.105 C 
ENDROOT
BRANCH   3   7
ATOM      7  C   UNL     1       4.104   2.949   3.761  0.00  0.00    -0.012 A 
ATOM      8  C   UNL     1       3.538   2.220   4.789  0.00  0.00    +0.115 A 
ATOM      9  N   UNL     1       3.987   1.016   5.089  0.00  0.00    -0.263 NA
ATOM     10  C   UNL     1       4.984   0.464   4.427  0.00  0.00    +0.111 A 
ATOM     11  C   UNL     1       5.599   1.133   3.386  0.00  0.00    +0.020 A 
ATOM     12  C   UNL     1       5.151   2.398   3.038  0.00  0.00    +0.008 A 
ENDBRANCH   3   7
TORSDOF 1
ENDMDL
MODEL 2
REMARK VINA RESULT:    -3.902      1.952      3.125
REMARK INTER + INTRA:          -4.383
REMARK INTER:                  -4.199
REMARK INTRA:                  -0.184
REMARK UNBOUND:                -0.253
REMARK  Name = Nicotine.pdb
REMARK  2 active torsions:
REMARK  status: ('A' for Active; 'I' for Inactive)
REMARK    1  A    between atoms: C_3  and  C_6
REMARK    2  A    between atoms: N_4  and  C_12
REMARK                            x       y       z     vdW  Elec       q    Type
REMARK                         _______ _______ _______ _____ _____    ______ ____
ROOT
ATOM      1  C   UNL     1       2.368   2.938   3.982  0.00  0.00    +0.017 C 
ATOM      2  C   UNL     1       3.697   2.207   4.308  0.00  0.00    +0.025 C 
ATOM      3  C   UNL     1       4.740   3.000   3.493  0.00  0.00    +0.088 C 
ATOM      4  N   UNL     1       4.016   3.684   2.406  0.00  0.00    -0.298 NA
ATOM      5  C   UNL     1       2.584   3.330   2.498  0.00  0.00    +0.085 C 
ATOM      6  C   UNL     1       4.206   5.138   2.480  0.00  0.00    +0.105 C 
ENDROOT
BRANCH   3   7
ATOM      7  C   UNL     1       5.763   2.057   2.915  0.00  0.00    -0.012 A 
ATOM      8  C   UNL     1       5.989   0.826   3.501  0.00  0.00    +0.115 A 
ATOM      9  N   UNL     1       6.883  -0.006   3.001  0.00  0.00    -0.263 NA
ATOM     10  C   UNL     1       7.593   0.300   1.933  0.00  0.00    +0.111 A 
ATOM     11  C   UNL     1       7.422   1.514   1.293  0.00  0.00    +0.020 A 
ATOM     12  C   UNL     1       6.487   2.411   1.786  0.00  0.00    +0.008 A 
ENDBRANCH   3   7
TORSDOF 1
ENDMDL
MODEL 3
REMARK VINA RESULT:    -3.885      1.624      2.434
REMARK INTER + INTRA:          -4.365
REMARK INTER:                  -4.153
REMARK INTRA:                  -0.213
REMARK UNBOUND:                -0.253
REMARK  Name = Nicotine.pdb
REMARK  2 active torsions:
REMARK  status: ('A' for Active; 'I' for Inactive)
REMARK    1  A    between atoms: C_3  and  C_6
REMARK    2  A    between atoms: N_4  and  C_12
REMARK                            x       y       z     vdW  Elec       q    Type
REMARK                         _______ _______ _______ _____ _____    ______ ____
ROOT
ATOM      1  C   UNL     1       4.516   4.783   2.124  0.00  0.00    +0.017 C 
ATOM      2  C   UNL     1       5.290   3.439   2.157  0.00  0.00    +0.025 C 
ATOM      3  C   UNL     1       4.247   2.451   2.724  0.00  0.00    +0.088 C 
ATOM      4  N   UNL     1       3.248   3.246   3.461  0.00  0.00    -0.298 NA
ATOM      5  C   UNL     1       3.639   4.670   3.396  0.00  0.00    +0.085 C 
ATOM      6  C   UNL     1       1.903   3.043   2.909  0.00  0.00    +0.105 C 
ENDROOT
BRANCH   3   7
ATOM      7  C   UNL     1       4.918   1.476   3.656  0.00  0.00    -0.012 A 
ATOM      8  C   UNL     1       5.959   0.684   3.209  0.00  0.00    +0.115 A 
ATOM      9  N   UNL     1       6.551  -0.172   4.018  0.00  0.00    -0.263 NA
ATOM     10  C   UNL     1       6.180  -0.307   5.276  0.00  0.00    +0.111 A 
ATOM     11  C   UNL     1       5.147   0.452   5.795  0.00  0.00    +0.020 A 
ATOM     12  C   UNL     1       4.504   1.366   4.975  0.00  0.00    +0.008 A 
ENDBRANCH   3   7
TORSDOF 1
ENDMDL
MODEL 4
REMARK VINA RESULT:    -3.723      1.659      2.184
REMARK INTER + INTRA:          -4.194
REMARK INTER:                  -3.972
REMARK INTRA:                  -0.222
REMARK UNBOUND:                -0.253
REMARK  Name = Nicotine.pdb
REMARK  2 active torsions:
REMARK  status: ('A' for Active; 'I' for Inactive)
REMARK    1  A    between atoms: C_3  and  C_6
REMARK    2  A    between atoms: N_4  and  C_12
REMARK                            x       y       z     vdW  Elec       q    Type
REMARK                         _______ _______ _______ _____ _____    ______ ____
ROOT
ATOM      1  C   UNL     1       3.873   5.724   3.569  0.00  0.00    +0.017 C 
ATOM      2  C   UNL     1       4.868   4.930   2.682  0.00  0.00    +0.025 C 
ATOM      3  C   UNL     1       4.180   3.557   2.532  0.00  0.00    +0.088 C 
ATOM      4  N   UNL     1       3.245   3.411   3.662  0.00  0.00    -0.298 NA
ATOM      5  C   UNL     1       3.343   4.616   4.513  0.00  0.00    +0.085 C 
ATOM      6  C   UNL     1       1.869   3.212   3.186  0.00  0.00    +0.105 C 
ENDROOT
BRANCH   3   7
ATOM      7  C   UNL     1       5.211   2.459   2.573  0.00  0.00    -0.012 A 
ATOM      8  C   UNL     1       5.058   1.388   3.433  0.00  0.00    +0.115 A 
ATOM      9  N   UNL     1       5.956   0.423   3.475  0.00  0.00    -0.263 NA
ATOM     10  C   UNL     1       7.027   0.439   2.707  0.00  0.00    +0.111 A 
ATOM     11  C   UNL     1       7.247   1.477   1.821  0.00  0.00    +0.020 A 
ATOM     12  C   UNL     1       6.322   2.507   1.745  0.00  0.00    +0.008 A 
ENDBRANCH   3   7
TORSDOF 1
ENDMDL
MODEL 5
REMARK VINA RESULT:    -3.674      1.806      4.541
REMARK INTER + INTRA:          -4.141
REMARK INTER:                  -3.925
REMARK INTRA:                  -0.217
REMARK UNBOUND:                -0.253
REMARK  Name = Nicotine.pdb
REMARK  2 active torsions:
REMARK  status: ('A' for Active; 'I' for Inactive)
REMARK    1  A    between atoms: C_3  and  C_6
REMARK    2  A    between atoms: N_4  and  C_12
REMARK                            x       y       z     vdW  Elec       q    Type
REMARK                         _______ _______ _______ _____ _____    ______ ____
ROOT
ATOM      1  C   UNL     1       3.388   1.745   5.440  0.00  0.00    +0.017 C 
ATOM      2  C   UNL     1       3.156   2.669   4.215  0.00  0.00    +0.025 C 
ATOM      3  C   UNL     1       4.298   2.269   3.257  0.00  0.00    +0.088 C 
ATOM      4  N   UNL     1       5.358   1.651   4.074  0.00  0.00    -0.298 NA
ATOM      5  C   UNL     1       4.935   1.675   5.490  0.00  0.00    +0.085 C 
ATOM      6  C   UNL     1       5.634   0.279   3.629  0.00  0.00    +0.105 C 
ENDROOT
BRANCH   3   7
ATOM      7  C   UNL     1       4.833   3.492   2.559  0.00  0.00    -0.012 A 
ATOM      8  C   UNL     1       6.099   3.482   2.004  0.00  0.00    +0.115 A 
ATOM      9  N   UNL     1       6.576   4.549   1.392  0.00  0.00    -0.263 NA
ATOM     10  C   UNL     1       5.872   5.658   1.283  0.00  0.00    +0.111 A 
ATOM     11  C   UNL     1       4.597   5.742   1.813  0.00  0.00    +0.020 A 
ATOM     12  C   UNL     1       4.061   4.640   2.459  0.00  0.00    +0.008 A 
ENDBRANCH   3   7
TORSDOF 1
ENDMDL
MODEL 6
REMARK VINA RESULT:    -3.668      2.007      4.387
REMARK INTER + INTRA:          -4.135
REMARK INTER:                  -3.897
REMARK INTRA:                  -0.239
REMARK UNBOUND:                -0.253
REMARK  Name = Nicotine.pdb
REMARK  2 active torsions:
REMARK  status: ('A' for Active; 'I' for Inactive)
REMARK    1  A    between atoms: C_3  and  C_6
REMARK    2  A    between atoms: N_4  and  C_12
REMARK                            x       y       z     vdW  Elec       q    Type
REMARK                         _______ _______ _______ _____ _____    ______ ____
ROOT
ATOM      1  C   UNL     1       6.790   0.392   2.854  0.00  0.00    +0.017 C 
ATOM      2  C   UNL     1       6.144   1.799   2.748  0.00  0.00    +0.025 C 
ATOM      3  C   UNL     1       5.445   1.963   4.115  0.00  0.00    +0.088 C 
ATOM      4  N   UNL     1       5.224   0.610   4.658  0.00  0.00    -0.298 NA
ATOM      5  C   UNL     1       5.731  -0.378   3.681  0.00  0.00    +0.085 C 
ATOM      6  C   UNL     1       5.885   0.451   5.960  0.00  0.00    +0.105 C 
ENDROOT
BRANCH   3   7
ATOM      7  C   UNL     1       4.124   2.665   3.934  0.00  0.00    -0.012 A 
ATOM      8  C   UNL     1       3.774   3.718   4.758  0.00  0.00    +0.115 A 
ATOM      9  N   UNL     1       2.620   4.338   4.607  0.00  0.00    -0.263 NA
ATOM     10  C   UNL     1       1.760   3.984   3.672  0.00  0.00    +0.111 A 
ATOM     11  C   UNL     1       2.042   2.941   2.810  0.00  0.00    +0.020 A 
ATOM     12  C   UNL     1       3.248   2.268   2.936  0.00  0.00    +0.008 A 
ENDBRANCH   3   7
TORSDOF 1
ENDMDL
MODEL 7
REMARK VINA RESULT:    -3.604      2.218      3.812
REMARK INTER + INTRA:          -4.068
REMARK INTER:                  -3.857
REMARK INTRA:                  -0.211
REMARK UNBOUND:                -0.253
REMARK  Name = Nicotine.pdb
REMARK  2 active torsions:
REMARK  status: ('A' for Active; 'I' for Inactive)
REMARK    1  A    between atoms: C_3  and  C_6
REMARK    2  A    between atoms: N_4  and  C_12
REMARK                            x       y       z     vdW  Elec       q    Type
REMARK                         _______ _______ _______ _____ _____    ______ ____
ROOT
ATOM      1  C   UNL     1       2.194   3.153   3.814  0.00  0.00    +0.017 C 
ATOM      2  C   UNL     1       3.004   3.080   2.493  0.00  0.00    +0.025 C 
ATOM      3  C   UNL     1       4.301   2.362   2.921  0.00  0.00    +0.088 C 
ATOM      4  N   UNL     1       4.447   2.553   4.375  0.00  0.00    -0.298 NA
ATOM      5  C   UNL     1       3.317   3.374   4.858  0.00  0.00    +0.085 C 
ATOM      6  C   UNL     1       4.497   1.262   5.073  0.00  0.00    +0.105 C 
ENDROOT
BRANCH   3   7
ATOM      7  C   UNL     1       5.481   2.964   2.202  0.00  0.00    -0.012 A 
ATOM      8  C   UNL     1       5.530   4.323   1.955  0.00  0.00    +0.115 A 
ATOM      9  N   UNL     1       6.559   4.857   1.327  0.00  0.00    -0.263 NA
ATOM     10  C   UNL     1       7.574   4.126   0.911  0.00  0.00    +0.111 A 
ATOM     11  C   UNL     1       7.595   2.760   1.123  0.00  0.00    +0.020 A 
ATOM     12  C   UNL     1       6.533   2.163   1.785  0.00  0.00    +0.008 A 
ENDBRANCH   3   7
TORSDOF 1
ENDMDL
MODEL 8
REMARK VINA RESULT:    -3.536      1.944      4.759
REMARK INTER + INTRA:          -3.996
REMARK INTER:                  -3.789
REMARK INTRA:                  -0.206
REMARK UNBOUND:                -0.253
REMARK  Name = Nicotine.pdb
REMARK  2 active torsions:
REMARK  status: ('A' for Active; 'I' for Inactive)
REMARK    1  A    between atoms: C_3  and  C_6
REMARK    2  A    between atoms: N_4  and  C_12
REMARK                            x       y       z     vdW  Elec       q    Type
REMARK                         _______ _______ _______ _____ _____    ______ ____
ROOT
ATOM      1  C   UNL     1       6.492  -0.527   5.693  0.00  0.00    +0.017 C 
ATOM      2  C   UNL     1       5.084  -0.160   5.155  0.00  0.00    +0.025 C 
ATOM      3  C   UNL     1       5.400   0.610   3.855  0.00  0.00    +0.088 C 
ATOM      4  N   UNL     1       6.778   1.118   3.972  0.00  0.00    -0.298 NA
ATOM      5  C   UNL     1       7.317   0.721   5.290  0.00  0.00    +0.085 C 
ATOM      6  C   UNL     1       7.622   0.609   2.883  0.00  0.00    +0.105 C 
ENDROOT
BRANCH   3   7
ATOM      7  C   UNL     1       4.440   1.760   3.694  0.00  0.00    -0.012 A 
ATOM      8  C   UNL     1       3.507   2.035   4.676  0.00  0.00    +0.115 A 
ATOM      9  N   UNL     1       2.663   3.040   4.543  0.00  0.00    -0.263 NA
ATOM     10  C   UNL     1       2.673   3.817   3.478  0.00  0.00    +0.111 A 
ATOM     11  C   UNL     1       3.578   3.603   2.454  0.00  0.00    +0.020 A 
ATOM     12  C   UNL     1       4.484   2.560   2.562  0.00  0.00    +0.008 A 
ENDBRANCH   3   7
TORSDOF 1
ENDMDL
MODEL 9
REMARK VINA RESULT:    -3.507      9.739     11.132
REMARK INTER + INTRA:          -3.965
REMARK INTER:                  -3.730
REMARK INTRA:                  -0.235
REMARK UNBOUND:                -0.253
REMARK  Name = Nicotine.pdb
REMARK  2 active torsions:
REMARK  status: ('A' for Active; 'I' for Inactive)
REMARK    1  A    between atoms: C_3  and  C_6
REMARK    2  A    between atoms: N_4  and  C_12
REMARK                            x       y       z     vdW  Elec       q    Type
REMARK                         _______ _______ _______ _____ _____    ______ ____
ROOT
ATOM      1  C   UNL     1       5.197  -3.137  -4.531  0.00  0.00    +0.017 C 
ATOM      2  C   UNL     1       6.480  -2.714  -3.768  0.00  0.00    +0.025 C 
ATOM      3  C   UNL     1       7.294  -4.024  -3.706  0.00  0.00    +0.088 C 
ATOM      4  N   UNL     1       6.342  -5.138  -3.871  0.00  0.00    -0.298 NA
ATOM      5  C   UNL     1       4.981  -4.578  -4.006  0.00  0.00    +0.085 C 
ATOM      6  C   UNL     1       6.692  -5.962  -5.035  0.00  0.00    +0.105 C 
ENDROOT
BRANCH   3   7
ATOM      7  C   UNL     1       7.987  -4.134  -2.372  0.00  0.00    -0.012 A 
ATOM      8  C   UNL     1       8.731  -5.256  -2.062  0.00  0.00    +0.115 A 
ATOM      9  N   UNL     1       9.341  -5.360  -0.897  0.00  0.00    -0.263 NA
ATOM     10  C   UNL     1       9.268  -4.408   0.011  0.00  0.00    +0.111 A 
ATOM     11  C   UNL     1       8.542  -3.256  -0.229  0.00  0.00    +0.020 A 
ATOM     12  C   UNL     1       7.891  -3.109  -1.444  0.00  0.00    +0.008 A 
ENDBRANCH   3   7
TORSDOF 1
ENDMDL
MODEL 10
REMARK VINA RESULT:    -3.278      2.179      4.863
REMARK INTER + INTRA:          -3.722
REMARK INTER:                  -3.547
REMARK INTRA:                  -0.175
REMARK UNBOUND:                -0.253
REMARK  Name = Nicotine.pdb
REMARK  2 active torsions:
REMARK  status: ('A' for Active; 'I' for Inactive)
REMARK    1  A    between atoms: C_3  and  C_6
REMARK    2  A    between atoms: N_4  and  C_12
REMARK                            x       y       z     vdW  Elec       q    Type
REMARK                         _______ _______ _______ _____ _____    ______ ____
ROOT
ATOM      1  C   UNL     1       7.195   0.999   6.244  0.00  0.00    +0.017 C 
ATOM      2  C   UNL     1       5.956   1.925   6.136  0.00  0.00    +0.025 C 
ATOM      3  C   UNL     1       4.956   1.075   5.323  0.00  0.00    +0.088 C 
ATOM      4  N   UNL     1       5.740   0.075   4.576  0.00  0.00    -0.298 NA
ATOM      5  C   UNL     1       7.174   0.286   4.869  0.00  0.00    +0.085 C 
ATOM      6  C   UNL     1       5.325  -1.289   4.926  0.00  0.00    +0.105 C 
ENDROOT
BRANCH   3   7
ATOM      7  C   UNL     1       4.196   1.954   4.365  0.00  0.00    -0.012 A 
ATOM      8  C   UNL     1       4.690   2.197   3.097  0.00  0.00    +0.115 A 
ATOM      9  N   UNL     1       4.031   2.965   2.252  0.00  0.00    -0.263 NA
ATOM     10  C   UNL     1       2.884   3.528   2.577  0.00  0.00    +0.111 A 
ATOM     11  C   UNL     1       2.327   3.330   3.826  0.00  0.00    +0.020 A 
ATOM     12  C   UNL     1       2.989   2.524   4.740  0.00  0.00    +0.008 A 
ENDBRANCH   3   7
TORSDOF 1
ENDMDL
