MODEL 1
REMARK VINA RESULT:    -2.639      0.000      0.000
REMARK INTER + INTRA:          -3.015
REMARK INTER:                  -2.794
REMARK INTRA:                  -0.221
REMARK UNBOUND:                -0.221
REMARK  Name = Nicotine.pdb
REMARK  2 active torsions:
REMARK  status: ('A' for Active; 'I' for Inactive)
REMARK    1  A    between atoms: C_3  and  C_6
REMARK    2  A    between atoms: N_4  and  C_12
REMARK                            x       y       z     vdW  Elec       q    Type
REMARK                         _______ _______ _______ _____ _____    ______ ____
ROOT
ATOM      1  C   UNL     1      -2.134   6.492  -6.864  0.00  0.00    +0.017 C 
ATOM      2  C   UNL     1      -2.480   5.031  -7.256  0.00  0.00    +0.025 C 
ATOM      3  C   UNL     1      -3.524   4.625  -6.194  0.00  0.00    +0.088 C 
ATOM      4  N   UNL     1      -3.334   5.513  -5.033  0.00  0.00    -0.298 NA
ATOM      5  C   UNL     1      -2.208   6.427  -5.318  0.00  0.00    +0.085 C 
ATOM      6  C   UNL     1      -4.560   6.264  -4.737  0.00  0.00    +0.105 C 
ENDROOT
BRANCH   3   7
ATOM      7  C   UNL     1      -3.309   3.191  -5.785  0.00  0.00    -0.012 A 
ATOM      8  C   UNL     1      -4.332   2.270  -5.904  0.00  0.00    +0.115 A 
ATOM      9  N   UNL     1      -4.152   1.012  -5.549  0.00  0.00    -0.263 NA
ATOM     10  C   UNL     1      -3.001   0.585  -5.070  0.00  0.00    +0.111 A 
ATOM     11  C   UNL     1      -1.931   1.449  -4.923  0.00  0.00    +0.020 A 
ATOM     12  C   UNL     1      -2.081   2.777  -5.291  0.00  0.00    +0.008 A 
ENDBRANCH   3   7
TORSDOF 1
ENDMDL
MODEL 2
REMARK VINA RESULT:    -2.487      1.179      2.314
REMARK INTER + INTRA:          -2.854
REMARK INTER:                  -2.649
REMARK INTRA:                  -0.205
REMARK UNBOUND:                -0.221
REMARK  Name = Nicotine.pdb
REMARK  2 active torsions:
REMARK  status: ('A' for Active; 'I' for Inactive)
REMARK    1  A    between atoms: C_3  and  C_6
REMARK    2  A    between atoms: N_4  and  C_12
REMARK                            x       y       z     vdW  Elec       q    Type
REMARK                         _______ _______ _______ _____ _____    ______ ____
ROOT
ATOM      1  C   UNL     1      -1.171   6.011  -4.081  0.00  0.00    +0.017 C 
ATOM      2  C   UNL     1      -1.337   4.493  -4.355  0.00  0.00    +0.025 C 
ATOM      3  C   UNL     1      -1.962   4.461  -5.766  0.00  0.00    +0.088 C 
ATOM      4  N   UNL     1      -2.605   5.768  -5.989  0.00  0.00    -0.298 NA
ATOM      5  C   UNL     1      -2.428   6.593  -4.775  0.00  0.00    +0.085 C 
ATOM      6  C   UNL     1      -2.041   6.438  -7.168  0.00  0.00    +0.105 C 
ENDROOT
BRANCH   3   7
ATOM      7  C   UNL     1      -2.990   3.362  -5.847  0.00  0.00    -0.012 A 
ATOM      8  C   UNL     1      -2.680   2.083  -5.425  0.00  0.00    +0.115 A 
ATOM      9  N   UNL     1      -3.574   1.115  -5.493  0.00  0.00    -0.263 NA
ATOM     10  C   UNL     1      -4.788   1.325  -5.960  0.00  0.00    +0.111 A 
ATOM     11  C   UNL     1      -5.171   2.579  -6.400  0.00  0.00    +0.020 A 
ATOM     12  C   UNL     1      -4.259   3.622  -6.339  0.00  0.00    +0.008 A 
ENDBRANCH   3   7
TORSDOF 1
ENDMDL
MODEL 3
REMARK VINA RESULT:    -2.478      1.987      4.299
REMARK INTER + INTRA:          -2.844
REMARK INTER:                  -2.604
REMARK INTRA:                  -0.240
REMARK UNBOUND:                -0.221
REMARK  Name = Nicotine.pdb
REMARK  2 active torsions:
REMARK  status: ('A' for Active; 'I' for Inactive)
REMARK    1  A    between atoms: C_3  and  C_6
REMARK    2  A    between atoms: N_4  and  C_12
REMARK                            x       y       z     vdW  Elec       q    Type
REMARK                         _______ _______ _______ _____ _____    ______ ____
ROOT
ATOM      1  C   UNL     1      -4.943   3.344  -6.177  0.00  0.00    +0.017 C 
ATOM      2  C   UNL     1      -3.518   3.608  -6.730  0.00  0.00    +0.025 C 
ATOM      3  C   UNL     1      -2.710   3.948  -5.459  0.00  0.00    +0.088 C 
ATOM      4  N   UNL     1      -3.671   4.398  -4.437  0.00  0.00    -0.298 NA
ATOM      5  C   UNL     1      -5.028   4.377  -5.025  0.00  0.00    +0.085 C 
ATOM      6  C   UNL     1      -3.602   3.552  -3.239  0.00  0.00    +0.105 C 
ENDROOT
BRANCH   3   7
ATOM      7  C   UNL     1      -1.723   5.047  -5.757  0.00  0.00    -0.012 A 
ATOM      8  C   UNL     1      -0.878   5.515  -4.769  0.00  0.00    +0.115 A 
ATOM      9  N   UNL     1      -0.012   6.477  -5.021  0.00  0.00    -0.263 NA
ATOM     10  C   UNL     1       0.083   7.028  -6.215  0.00  0.00    +0.111 A 
ATOM     11  C   UNL     1      -0.729   6.612  -7.254  0.00  0.00    +0.020 A 
ATOM     12  C   UNL     1      -1.648   5.599  -7.027  0.00  0.00    +0.008 A 
ENDBRANCH   3   7
TORSDOF 1
ENDMDL
MODEL 4
REMARK VINA RESULT:    -2.347      1.708      2.082
REMARK INTER + INTRA:          -2.706
REMARK INTER:                  -2.486
REMARK INTRA:                  -0.220
REMARK UNBOUND:                -0.221
REMARK  Name = Nicotine.pdb
REMARK  2 active torsions:
REMARK  status: ('A' for Active; 'I' for Inactive)
REMARK    1  A    between atoms: C_3  and  C_6
REMARK    2  A    between atoms: N_4  and  C_12
REMARK                            x       y       z     vdW  Elec       q    Type
REMARK                         _______ _______ _______ _____ _____    ______ ____
ROOT
ATOM      1  C   UNL     1      -2.335   5.989  -7.256  0.00  0.00    +0.017 C 
ATOM      2  C   UNL     1      -2.170   4.464  -7.028  0.00  0.00    +0.025 C 
ATOM      3  C   UNL     1      -2.830   4.245  -5.651  0.00  0.00    +0.088 C 
ATOM      4  N   UNL     1      -2.819   5.541  -4.950  0.00  0.00    -0.298 NA
ATOM      5  C   UNL     1      -2.162   6.541  -5.819  0.00  0.00    +0.085 C 
ATOM      6  C   UNL     1      -4.182   5.963  -4.599  0.00  0.00    +0.105 C 
ENDROOT
BRANCH   3   7
ATOM      7  C   UNL     1      -2.047   3.227  -4.862  0.00  0.00    -0.012 A 
ATOM      8  C   UNL     1      -1.447   3.580  -3.668  0.00  0.00    +0.115 A 
ATOM      9  N   UNL     1      -0.760   2.695  -2.972  0.00  0.00    -0.263 NA
ATOM     10  C   UNL     1      -0.616   1.451  -3.381  0.00  0.00    +0.111 A 
ATOM     11  C   UNL     1      -1.188   1.025  -4.566  0.00  0.00    +0.020 A 
ATOM     12  C   UNL     1      -1.922   1.925  -5.322  0.00  0.00    +0.008 A 
ENDBRANCH   3   7
TORSDOF 1
ENDMDL
MODEL 5
REMARK VINA RESULT:    -2.290      1.725      4.782
REMARK INTER + INTRA:          -2.645
REMARK INTER:                  -2.460
REMARK INTRA:                  -0.185
REMARK UNBOUND:                -0.221
REMARK  Name = Nicotine.pdb
REMARK  2 active torsions:
REMARK  status: ('A' for Active; 'I' for Inactive)
REMARK    1  A    between atoms: C_3  and  C_6
REMARK    2  A    between atoms: N_4  and  C_12
REMARK                            x       y       z     vdW  Elec       q    Type
REMARK                         _______ _______ _______ _____ _____    ______ ____
ROOT
ATOM      1  C   UNL     1      -0.788   1.388  -3.176  0.00  0.00    +0.017 C 
ATOM      2  C   UNL     1      -1.015   2.919  -3.285  0.00  0.00    +0.025 C 
ATOM      3  C   UNL     1      -2.144   3.029  -4.331  0.00  0.00    +0.088 C 
ATOM      4  N   UNL     1      -2.125   1.788  -5.127  0.00  0.00    -0.298 NA
ATOM      5  C   UNL     1      -1.023   0.932  -4.637  0.00  0.00    +0.085 C 
ATOM      6  C   UNL     1      -3.413   1.088  -5.043  0.00  0.00    +0.105 C 
ENDROOT
BRANCH   3   7
ATOM      7  C   UNL     1      -1.901   4.217  -5.226  0.00  0.00    -0.012 A 
ATOM      8  C   UNL     1      -1.064   5.238  -4.819  0.00  0.00    +0.115 A 
ATOM      9  N   UNL     1      -0.845   6.281  -5.595  0.00  0.00    -0.263 NA
ATOM     10  C   UNL     1      -1.411   6.393  -6.781  0.00  0.00    +0.111 A 
ATOM     11  C   UNL     1      -2.259   5.410  -7.256  0.00  0.00    +0.020 A 
ATOM     12  C   UNL     1      -2.509   4.296  -6.469  0.00  0.00    +0.008 A 
ENDBRANCH   3   7
TORSDOF 1
ENDMDL
MODEL 6
REMARK VINA RESULT:    -2.218      2.263      3.688
REMARK INTER + INTRA:          -2.569
REMARK INTER:                  -2.371
REMARK INTRA:                  -0.198
REMARK UNBOUND:                -0.221
REMARK  Name = Nicotine.pdb
REMARK  2 active torsions:
REMARK  status: ('A' for Active; 'I' for Inactive)
REMARK    1  A    between atoms: C_3  and  C_6
REMARK    2  A    between atoms: N_4  and  C_12
REMARK                            x       y       z     vdW  Elec       q    Type
REMARK                         _______ _______ _______ _____ _____    ______ ____
ROOT
ATOM      1  C   UNL     1      -5.081   3.335  -5.070  0.00  0.00    +0.017 C 
ATOM      2  C   UNL     1      -3.944   3.325  -4.014  0.00  0.00    +0.025 C 
ATOM      3  C   UNL     1      -2.666   3.346  -4.879  0.00  0.00    +0.088 C 
ATOM      4  N   UNL     1      -3.032   2.831  -6.211  0.00  0.00    -0.298 NA
ATOM      5  C   UNL     1      -4.465   2.471  -6.199  0.00  0.00    +0.085 C 
ATOM      6  C   UNL     1      -2.745   3.822  -7.256  0.00  0.00    +0.105 C 
ENDROOT
BRANCH   3   7
ATOM      7  C   UNL     1      -1.613   2.465  -4.258  0.00  0.00    -0.012 A 
ATOM      8  C   UNL     1      -0.798   2.952  -3.253  0.00  0.00    +0.115 A 
ATOM      9  N   UNL     1       0.126   2.187  -2.705  0.00  0.00    -0.263 NA
ATOM     10  C   UNL     1       0.310   0.939  -3.088  0.00  0.00    +0.111 A 
ATOM     11  C   UNL     1      -0.467   0.383  -4.087  0.00  0.00    +0.020 A 
ATOM     12  C   UNL     1      -1.453   1.155  -4.683  0.00  0.00    +0.008 A 
ENDBRANCH   3   7
TORSDOF 1
ENDMDL
MODEL 7
REMARK VINA RESULT:    -2.174      2.318      4.284
REMARK INTER + INTRA:          -2.522
REMARK INTER:                  -2.305
REMARK INTRA:                  -0.217
REMARK UNBOUND:                -0.221
REMARK  Name = Nicotine.pdb
REMARK  2 active torsions:
REMARK  status: ('A' for Active; 'I' for Inactive)
REMARK    1  A    between atoms: C_3  and  C_6
REMARK    2  A    between atoms: N_4  and  C_12
REMARK                            x       y       z     vdW  Elec       q    Type
REMARK                         _______ _______ _______ _____ _____    ______ ____
ROOT
ATOM      1  C   UNL     1       0.502   2.698  -2.396  0.00  0.00    +0.017 C 
ATOM      2  C   UNL     1      -0.361   3.756  -3.133  0.00  0.00    +0.025 C 
ATOM      3  C   UNL     1      -1.667   2.990  -3.435  0.00  0.00    +0.088 C 
ATOM      4  N   UNL     1      -1.345   1.552  -3.410  0.00  0.00    -0.298 NA
ATOM      5  C   UNL     1       0.099   1.397  -3.134  0.00  0.00    +0.085 C 
ATOM      6  C   UNL     1      -2.153   0.848  -2.406  0.00  0.00    +0.105 C 
ENDROOT
BRANCH   3   7
ATOM      7  C   UNL     1      -2.186   3.378  -4.795  0.00  0.00    -0.012 A 
ATOM      8  C   UNL     1      -3.076   2.558  -5.463  0.00  0.00    +0.115 A 
ATOM      9  N   UNL     1      -3.535   2.890  -6.654  0.00  0.00    -0.263 NA
ATOM     10  C   UNL     1      -3.168   4.007  -7.251  0.00  0.00    +0.111 A 
ATOM     11  C   UNL     1      -2.282   4.877  -6.644  0.00  0.00    +0.020 A 
ATOM     12  C   UNL     1      -1.782   4.564  -5.389  0.00  0.00    +0.008 A 
ENDBRANCH   3   7
TORSDOF 1
ENDMDL
MODEL 8
REMARK VINA RESULT:    -2.158      8.961      9.961
REMARK INTER + INTRA:          -2.506
REMARK INTER:                  -2.254
REMARK INTRA:                  -0.252
REMARK UNBOUND:                -0.221
REMARK  Name = Nicotine.pdb
REMARK  2 active torsions:
REMARK  status: ('A' for Active; 'I' for Inactive)
REMARK    1  A    between atoms: C_3  and  C_6
REMARK    2  A    between atoms: N_4  and  C_12
REMARK                            x       y       z     vdW  Elec       q    Type
REMARK                         _______ _______ _______ _____ _____    ______ ____
ROOT
ATOM      1  C   UNL     1       5.305   2.790  -2.012  0.00  0.00    +0.017 C 
ATOM      2  C   UNL     1       4.869   2.417  -3.453  0.00  0.00    +0.025 C 
ATOM      3  C   UNL     1       5.060   0.886  -3.489  0.00  0.00    +0.088 C 
ATOM      4  N   UNL     1       6.029   0.542  -2.432  0.00  0.00    -0.298 NA
ATOM      5  C   UNL     1       6.462   1.789  -1.766  0.00  0.00    +0.085 C 
ATOM      6  C   UNL     1       5.443  -0.396  -1.466  0.00  0.00    +0.105 C 
ENDROOT
BRANCH   3   7
ATOM      7  C   UNL     1       5.596   0.467  -4.834  0.00  0.00    -0.012 A 
ATOM      8  C   UNL     1       5.190  -0.722  -5.408  0.00  0.00    +0.115 A 
ATOM      9  N   UNL     1       5.654  -1.096  -6.585  0.00  0.00    -0.263 NA
ATOM     10  C   UNL     1       6.516  -0.358  -7.256  0.00  0.00    +0.111 A 
ATOM     11  C   UNL     1       6.967   0.844  -6.745  0.00  0.00    +0.020 A 
ATOM     12  C   UNL     1       6.497   1.273  -5.513  0.00  0.00    +0.008 A 
ENDBRANCH   3   7
TORSDOF 1
ENDMDL
MODEL 9
REMARK VINA RESULT:    -2.139      1.467      4.418
REMARK INTER + INTRA:          -2.485
REMARK INTER:                  -2.260
REMARK INTRA:                  -0.226
REMARK UNBOUND:                -0.221
REMARK  Name = Nicotine.pdb
REMARK  2 active torsions:
REMARK  status: ('A' for Active; 'I' for Inactive)
REMARK    1  A    between atoms: C_3  and  C_6
REMARK    2  A    between atoms: N_4  and  C_12
REMARK                            x       y       z     vdW  Elec       q    Type
REMARK                         _______ _______ _______ _____ _____    ______ ____
ROOT
ATOM      1  C   UNL     1      -2.807   1.196  -3.573  0.00  0.00    +0.017 C 
ATOM      2  C   UNL     1      -2.569   2.728  -3.526  0.00  0.00    +0.025 C 
ATOM      3  C   UNL     1      -3.298   3.231  -4.790  0.00  0.00    +0.088 C 
ATOM      4  N   UNL     1      -3.405   2.090  -5.717  0.00  0.00    -0.298 NA
ATOM      5  C   UNL     1      -2.754   0.917  -5.096  0.00  0.00    +0.085 C 
ATOM      6  C   UNL     1      -4.808   1.804  -6.042  0.00  0.00    +0.105 C 
ENDROOT
BRANCH   3   7
ATOM      7  C   UNL     1      -2.507   4.342  -5.431  0.00  0.00    -0.012 A 
ATOM      8  C   UNL     1      -2.845   4.806  -6.688  0.00  0.00    +0.115 A 
ATOM      9  N   UNL     1      -2.158   5.778  -7.256  0.00  0.00    -0.263 NA
ATOM     10  C   UNL     1      -1.129   6.342  -6.654  0.00  0.00    +0.111 A 
ATOM     11  C   UNL     1      -0.733   5.931  -5.395  0.00  0.00    +0.020 A 
ATOM     12  C   UNL     1      -1.435   4.916  -4.765  0.00  0.00    +0.008 A 
ENDBRANCH   3   7
TORSDOF 1
ENDMDL
MODEL 10
REMARK VINA RESULT:    -2.104      3.235      4.817
REMARK INTER + INTRA:          -2.448
REMARK INTER:                  -2.208
REMARK INTRA:                  -0.240
REMARK UNBOUND:                -0.221
REMARK  Name = Nicotine.pdb
REMARK  2 active torsions:
REMARK  status: ('A' for Active; 'I' for Inactive)
REMARK    1  A    between atoms: C_3  and  C_6
REMARK    2  A    between atoms: N_4  and  C_12
REMARK                            x       y       z     vdW  Elec       q    Type
REMARK                         _______ _______ _______ _____ _____    ______ ____
ROOT
ATOM      1  C   UNL     1      -3.246   6.644  -5.258  0.00  0.00    +0.017 C 
ATOM      2  C   UNL     1      -2.217   6.769  -4.103  0.00  0.00    +0.025 C 
ATOM      3  C   UNL     1      -0.861   6.670  -4.834  0.00  0.00    +0.088 C 
ATOM      4  N   UNL     1      -1.105   5.985  -6.117  0.00  0.00    -0.298 NA
ATOM      5  C   UNL     1      -2.540   5.636  -6.199  0.00  0.00    +0.085 C 
ATOM      6  C   UNL     1      -0.702   6.829  -7.249  0.00  0.00    +0.105 C 
ENDROOT
BRANCH   3   7
ATOM      7  C   UNL     1       0.112   5.874  -4.004  0.00  0.00    -0.012 A 
ATOM      8  C   UNL     1       1.403   6.328  -3.814  0.00  0.00    +0.115 A 
ATOM      9  N   UNL     1       2.262   5.638  -3.088  0.00  0.00    -0.263 NA
ATOM     10  C   UNL     1       1.927   4.496  -2.520  0.00  0.00    +0.111 A 
ATOM     11  C   UNL     1       0.653   3.979  -2.665  0.00  0.00    +0.020 A 
ATOM     12  C   UNL     1      -0.277   4.680  -3.416  0.00  0.00    +0.008 A 
ENDBRANCH   3   7
TORSDOF 1
ENDMDL
