MODEL 1
REMARK VINA RESULT:    -3.549      0.000      0.000
REMARK INTER + INTRA:          -3.945
REMARK INTER:                  -3.756
REMARK INTRA:                  -0.188
REMARK UNBOUND:                -0.188
REMARK  Name = Nicotine.pdb
REMARK  2 active torsions:
REMARK  status: ('A' for Active; 'I' for Inactive)
REMARK    1  A    between atoms: C_3  and  C_6
REMARK    2  A    between atoms: N_4  and  C_12
REMARK                            x       y       z     vdW  Elec       q    Type
REMARK                         _______ _______ _______ _____ _____    ______ ____
ROOT
ATOM      1  C   UNL     1       9.738   3.421   4.343  0.00  0.00    +0.017 C 
ATOM      2  C   UNL     1      10.458   2.952   3.051  0.00  0.00    +0.025 C 
ATOM      3  C   UNL     1      10.922   4.278   2.412  0.00  0.00    +0.088 C 
ATOM      4  N   UNL     1      10.064   5.348   2.952  0.00  0.00    -0.298 NA
ATOM      5  C   UNL     1       9.079   4.741   3.872  0.00  0.00    +0.085 C 
ATOM      6  C   UNL     1      10.865   6.370   3.638  0.00  0.00    +0.105 C 
ENDROOT
BRANCH   3   7
ATOM      7  C   UNL     1      10.773   4.205   0.915  0.00  0.00    -0.012 A 
ATOM      8  C   UNL     1      10.954   3.007   0.251  0.00  0.00    +0.115 A 
ATOM      9  N   UNL     1      10.825   2.935  -1.059  0.00  0.00    -0.263 NA
ATOM     10  C   UNL     1      10.520   3.992  -1.785  0.00  0.00    +0.111 A 
ATOM     11  C   UNL     1      10.324   5.225  -1.191  0.00  0.00    +0.020 A 
ATOM     12  C   UNL     1      10.446   5.338   0.185  0.00  0.00    +0.008 A 
ENDBRANCH   3   7
TORSDOF 1
ENDMDL
MODEL 2
REMARK VINA RESULT:    -3.148      1.601      4.744
REMARK INTER + INTRA:          -3.520
REMARK INTER:                  -3.307
REMARK INTRA:                  -0.213
REMARK UNBOUND:                -0.188
REMARK  Name = Nicotine.pdb
REMARK  2 active torsions:
REMARK  status: ('A' for Active; 'I' for Inactive)
REMARK    1  A    between atoms: C_3  and  C_6
REMARK    2  A    between atoms: N_4  and  C_12
REMARK                            x       y       z     vdW  Elec       q    Type
REMARK                         _______ _______ _______ _____ _____    ______ ____
ROOT
ATOM      1  C   UNL     1      10.469   6.811   1.533  0.00  0.00    +0.017 C 
ATOM      2  C   UNL     1      10.922   6.141   2.857  0.00  0.00    +0.025 C 
ATOM      3  C   UNL     1      10.953   4.641   2.493  0.00  0.00    +0.088 C 
ATOM      4  N   UNL     1      10.069   4.455   1.329  0.00  0.00    -0.298 NA
ATOM      5  C   UNL     1       9.475   5.762   0.975  0.00  0.00    +0.085 C 
ATOM      6  C   UNL     1      10.805   3.885   0.193  0.00  0.00    +0.105 C 
ENDROOT
BRANCH   3   7
ATOM      7  C   UNL     1      10.454   3.821   3.655  0.00  0.00    -0.012 A 
ATOM      8  C   UNL     1       9.488   4.327   4.503  0.00  0.00    +0.115 A 
ATOM      9  N   UNL     1       9.045   3.617   5.522  0.00  0.00    -0.263 NA
ATOM     10  C   UNL     1       9.502   2.405   5.772  0.00  0.00    +0.111 A 
ATOM     11  C   UNL     1      10.469   1.833   4.967  0.00  0.00    +0.020 A 
ATOM     12  C   UNL     1      10.954   2.548   3.883  0.00  0.00    +0.008 A 
ENDBRANCH   3   7
TORSDOF 1
ENDMDL
