MODEL 1
REMARK VINA RESULT:    -3.676      0.000      0.000
REMARK INTER + INTRA:          -4.120
REMARK INTER:                  -3.891
REMARK INTRA:                  -0.230
REMARK UNBOUND:                -0.230
REMARK  Name = Nicotine.pdb
REMARK  2 active torsions:
REMARK  status: ('A' for Active; 'I' for Inactive)
REMARK    1  A    between atoms: C_3  and  C_6
REMARK    2  A    between atoms: N_4  and  C_12
REMARK                            x       y       z     vdW  Elec       q    Type
REMARK                         _______ _______ _______ _____ _____    ______ ____
ROOT
ATOM      1  C   UNL     1       4.968   6.036  -5.105  0.00  0.00    +0.017 C 
ATOM      2  C   UNL     1       5.651   4.667  -4.843  0.00  0.00    +0.025 C 
ATOM      3  C   UNL     1       6.589   4.969  -3.655  0.00  0.00    +0.088 C 
ATOM      4  N   UNL     1       6.838   6.422  -3.653  0.00  0.00    -0.298 NA
ATOM      5  C   UNL     1       6.120   7.025  -4.797  0.00  0.00    +0.085 C 
ATOM      6  C   UNL     1       6.413   7.028  -2.385  0.00  0.00    +0.105 C 
ENDROOT
BRANCH   3   7
ATOM      7  C   UNL     1       7.888   4.225  -3.826  0.00  0.00    -0.012 A 
ATOM      8  C   UNL     1       8.947   4.462  -2.970  0.00  0.00    +0.115 A 
ATOM      9  N   UNL     1      10.087   3.815  -3.112  0.00  0.00    -0.263 NA
ATOM     10  C   UNL     1      10.264   2.924  -4.067  0.00  0.00    +0.111 A 
ATOM     11  C   UNL     1       9.250   2.634  -4.961  0.00  0.00    +0.020 A 
ATOM     12  C   UNL     1       8.035   3.290  -4.839  0.00  0.00    +0.008 A 
ENDBRANCH   3   7
TORSDOF 1
ENDMDL
MODEL 2
REMARK VINA RESULT:    -3.639      1.281      4.504
REMARK INTER + INTRA:          -4.082
REMARK INTER:                  -3.867
REMARK INTRA:                  -0.215
REMARK UNBOUND:                -0.230
REMARK  Name = Nicotine.pdb
REMARK  2 active torsions:
REMARK  status: ('A' for Active; 'I' for Inactive)
REMARK    1  A    between atoms: C_3  and  C_6
REMARK    2  A    between atoms: N_4  and  C_12
REMARK                            x       y       z     vdW  Elec       q    Type
REMARK                         _______ _______ _______ _____ _____    ______ ____
ROOT
ATOM      1  C   UNL     1      10.183   2.507  -3.896  0.00  0.00    +0.017 C 
ATOM      2  C   UNL     1       8.885   3.063  -3.253  0.00  0.00    +0.025 C 
ATOM      3  C   UNL     1       7.989   3.354  -4.475  0.00  0.00    +0.088 C 
ATOM      4  N   UNL     1       8.877   3.509  -5.641  0.00  0.00    -0.298 NA
ATOM      5  C   UNL     1      10.277   3.352  -5.191  0.00  0.00    +0.085 C 
ATOM      6  C   UNL     1       8.547   2.534  -6.688  0.00  0.00    +0.105 C 
ENDROOT
BRANCH   3   7
ATOM      7  C   UNL     1       7.211   4.625  -4.249  0.00  0.00    -0.012 A 
ATOM      8  C   UNL     1       7.710   5.612  -3.420  0.00  0.00    +0.115 A 
ATOM      9  N   UNL     1       7.036   6.727  -3.216  0.00  0.00    -0.263 NA
ATOM     10  C   UNL     1       5.869   6.945  -3.789  0.00  0.00    +0.111 A 
ATOM     11  C   UNL     1       5.307   6.004  -4.631  0.00  0.00    +0.020 A 
ATOM     12  C   UNL     1       5.989   4.822  -4.873  0.00  0.00    +0.008 A 
ENDBRANCH   3   7
TORSDOF 1
ENDMDL
MODEL 3
REMARK VINA RESULT:    -3.564      1.734      3.082
REMARK INTER + INTRA:          -4.002
REMARK INTER:                  -3.761
REMARK INTRA:                  -0.241
REMARK UNBOUND:                -0.230
REMARK  Name = Nicotine.pdb
REMARK  2 active torsions:
REMARK  status: ('A' for Active; 'I' for Inactive)
REMARK    1  A    between atoms: C_3  and  C_6
REMARK    2  A    between atoms: N_4  and  C_12
REMARK                            x       y       z     vdW  Elec       q    Type
REMARK                         _______ _______ _______ _____ _____    ______ ____
ROOT
ATOM      1  C   UNL     1       4.702   5.922  -6.353  0.00  0.00    +0.017 C 
ATOM      2  C   UNL     1       5.503   6.424  -5.123  0.00  0.00    +0.025 C 
ATOM      3  C   UNL     1       6.808   5.604  -5.199  0.00  0.00    +0.088 C 
ATOM      4  N   UNL     1       6.519   4.397  -5.995  0.00  0.00    -0.298 NA
ATOM      5  C   UNL     1       5.095   4.424  -6.391  0.00  0.00    +0.085 C 
ATOM      6  C   UNL     1       7.392   4.322  -7.174  0.00  0.00    +0.105 C 
ENDROOT
BRANCH   3   7
ATOM      7  C   UNL     1       7.248   5.211  -3.813  0.00  0.00    -0.012 A 
ATOM      8  C   UNL     1       8.413   4.491  -3.627  0.00  0.00    +0.115 A 
ATOM      9  N   UNL     1       8.806   4.144  -2.416  0.00  0.00    -0.263 NA
ATOM     10  C   UNL     1       8.110   4.465  -1.344  0.00  0.00    +0.111 A 
ATOM     11  C   UNL     1       6.935   5.185  -1.451  0.00  0.00    +0.020 A 
ATOM     12  C   UNL     1       6.493   5.572  -2.707  0.00  0.00    +0.008 A 
ENDBRANCH   3   7
TORSDOF 1
ENDMDL
MODEL 4
REMARK VINA RESULT:    -3.411      1.629      4.423
REMARK INTER + INTRA:          -3.840
REMARK INTER:                  -3.629
REMARK INTRA:                  -0.211
REMARK UNBOUND:                -0.230
REMARK  Name = Nicotine.pdb
REMARK  2 active torsions:
REMARK  status: ('A' for Active; 'I' for Inactive)
REMARK    1  A    between atoms: C_3  and  C_6
REMARK    2  A    between atoms: N_4  and  C_12
REMARK                            x       y       z     vdW  Elec       q    Type
REMARK                         _______ _______ _______ _____ _____    ______ ____
ROOT
ATOM      1  C   UNL     1      10.261   2.869  -4.067  0.00  0.00    +0.017 C 
ATOM      2  C   UNL     1       9.585   3.889  -5.021  0.00  0.00    +0.025 C 
ATOM      3  C   UNL     1       8.584   4.616  -4.099  0.00  0.00    +0.088 C 
ATOM      4  N   UNL     1       8.314   3.724  -2.957  0.00  0.00    -0.298 NA
ATOM      5  C   UNL     1       9.081   2.474  -3.145  0.00  0.00    +0.085 C 
ATOM      6  C   UNL     1       8.666   4.373  -1.688  0.00  0.00    +0.105 C 
ENDROOT
BRANCH   3   7
ATOM      7  C   UNL     1       7.306   4.893  -4.848  0.00  0.00    -0.012 A 
ATOM      8  C   UNL     1       7.106   4.366  -6.110  0.00  0.00    +0.115 A 
ATOM      9  N   UNL     1       5.991   4.603  -6.772  0.00  0.00    -0.263 NA
ATOM     10  C   UNL     1       5.028   5.347  -6.263  0.00  0.00    +0.111 A 
ATOM     11  C   UNL     1       5.157   5.908  -5.006  0.00  0.00    +0.020 A 
ATOM     12  C   UNL     1       6.313   5.676  -4.278  0.00  0.00    +0.008 A 
ENDBRANCH   3   7
TORSDOF 1
ENDMDL
MODEL 5
REMARK VINA RESULT:    -3.371      1.731      2.512
REMARK INTER + INTRA:          -3.798
REMARK INTER:                  -3.603
REMARK INTRA:                  -0.196
REMARK UNBOUND:                -0.230
REMARK  Name = Nicotine.pdb
REMARK  2 active torsions:
REMARK  status: ('A' for Active; 'I' for Inactive)
REMARK    1  A    between atoms: C_3  and  C_6
REMARK    2  A    between atoms: N_4  and  C_12
REMARK                            x       y       z     vdW  Elec       q    Type
REMARK                         _______ _______ _______ _____ _____    ______ ____
ROOT
ATOM      1  C   UNL     1       4.965   4.438  -6.669  0.00  0.00    +0.017 C 
ATOM      2  C   UNL     1       5.051   4.350  -5.122  0.00  0.00    +0.025 C 
ATOM      3  C   UNL     1       6.117   5.410  -4.773  0.00  0.00    +0.088 C 
ATOM      4  N   UNL     1       6.934   5.623  -5.981  0.00  0.00    -0.298 NA
ATOM      5  C   UNL     1       6.439   4.728  -7.048  0.00  0.00    +0.085 C 
ATOM      6  C   UNL     1       6.888   7.028  -6.408  0.00  0.00    +0.105 C 
ENDROOT
BRANCH   3   7
ATOM      7  C   UNL     1       6.985   4.913  -3.646  0.00  0.00    -0.012 A 
ATOM      8  C   UNL     1       6.801   5.386  -2.361  0.00  0.00    +0.115 A 
ATOM      9  N   UNL     1       7.557   4.956  -1.369  0.00  0.00    -0.263 NA
ATOM     10  C   UNL     1       8.510   4.065  -1.560  0.00  0.00    +0.111 A 
ATOM     11  C   UNL     1       8.752   3.546  -2.818  0.00  0.00    +0.020 A 
ATOM     12  C   UNL     1       7.974   3.971  -3.884  0.00  0.00    +0.008 A 
ENDBRANCH   3   7
TORSDOF 1
ENDMDL
MODEL 6
REMARK VINA RESULT:    -3.368      1.579      4.552
REMARK INTER + INTRA:          -3.794
REMARK INTER:                  -3.540
REMARK INTRA:                  -0.254
REMARK UNBOUND:                -0.230
REMARK  Name = Nicotine.pdb
REMARK  2 active torsions:
REMARK  status: ('A' for Active; 'I' for Inactive)
REMARK    1  A    between atoms: C_3  and  C_6
REMARK    2  A    between atoms: N_4  and  C_12
REMARK                            x       y       z     vdW  Elec       q    Type
REMARK                         _______ _______ _______ _____ _____    ______ ____
ROOT
ATOM      1  C   UNL     1       8.331   4.933  -1.634  0.00  0.00    +0.017 C 
ATOM      2  C   UNL     1       6.885   5.157  -2.151  0.00  0.00    +0.025 C 
ATOM      3  C   UNL     1       6.853   4.334  -3.457  0.00  0.00    +0.088 C 
ATOM      4  N   UNL     1       8.247   4.175  -3.908  0.00  0.00    -0.298 NA
ATOM      5  C   UNL     1       9.133   4.881  -2.958  0.00  0.00    +0.085 C 
ATOM      6  C   UNL     1       8.609   2.755  -4.010  0.00  0.00    +0.105 C 
ENDROOT
BRANCH   3   7
ATOM      7  C   UNL     1       6.054   5.065  -4.504  0.00  0.00    -0.012 A 
ATOM      8  C   UNL     1       5.653   4.416  -5.657  0.00  0.00    +0.115 A 
ATOM      9  N   UNL     1       4.953   5.049  -6.578  0.00  0.00    -0.263 NA
ATOM     10  C   UNL     1       4.610   6.314  -6.441  0.00  0.00    +0.111 A 
ATOM     11  C   UNL     1       4.974   7.028  -5.315  0.00  0.00    +0.020 A 
ATOM     12  C   UNL     1       5.706   6.395  -4.322  0.00  0.00    +0.008 A 
ENDBRANCH   3   7
TORSDOF 1
ENDMDL
MODEL 7
REMARK VINA RESULT:    -3.272      1.270      4.234
REMARK INTER + INTRA:          -3.694
REMARK INTER:                  -3.478
REMARK INTRA:                  -0.216
REMARK UNBOUND:                -0.230
REMARK  Name = Nicotine.pdb
REMARK  2 active torsions:
REMARK  status: ('A' for Active; 'I' for Inactive)
REMARK    1  A    between atoms: C_3  and  C_6
REMARK    2  A    between atoms: N_4  and  C_12
REMARK                            x       y       z     vdW  Elec       q    Type
REMARK                         _______ _______ _______ _____ _____    ______ ____
ROOT
ATOM      1  C   UNL     1       9.084   2.528  -3.490  0.00  0.00    +0.017 C 
ATOM      2  C   UNL     1       8.303   3.123  -4.691  0.00  0.00    +0.025 C 
ATOM      3  C   UNL     1       8.376   4.643  -4.434  0.00  0.00    +0.088 C 
ATOM      4  N   UNL     1       8.633   4.831  -2.995  0.00  0.00    -0.298 NA
ATOM      5  C   UNL     1       8.695   3.502  -2.350  0.00  0.00    +0.085 C 
ATOM      6  C   UNL     1       9.875   5.583  -2.775  0.00  0.00    +0.105 C 
ENDROOT
BRANCH   3   7
ATOM      7  C   UNL     1       7.070   5.291  -4.812  0.00  0.00    -0.012 A 
ATOM      8  C   UNL     1       6.660   6.454  -4.188  0.00  0.00    +0.115 A 
ATOM      9  N   UNL     1       5.518   7.028  -4.513  0.00  0.00    -0.263 NA
ATOM     10  C   UNL     1       4.726   6.521  -5.438  0.00  0.00    +0.111 A 
ATOM     11  C   UNL     1       5.070   5.360  -6.105  0.00  0.00    +0.020 A 
ATOM     12  C   UNL     1       6.266   4.732  -5.793  0.00  0.00    +0.008 A 
ENDBRANCH   3   7
TORSDOF 1
ENDMDL
MODEL 8
REMARK VINA RESULT:    -3.206      1.690      2.076
REMARK INTER + INTRA:          -3.623
REMARK INTER:                  -3.376
REMARK INTRA:                  -0.247
REMARK UNBOUND:                -0.230
REMARK  Name = Nicotine.pdb
REMARK  2 active torsions:
REMARK  status: ('A' for Active; 'I' for Inactive)
REMARK    1  A    between atoms: C_3  and  C_6
REMARK    2  A    between atoms: N_4  and  C_12
REMARK                            x       y       z     vdW  Elec       q    Type
REMARK                         _______ _______ _______ _____ _____    ______ ____
ROOT
ATOM      1  C   UNL     1       5.142   5.009  -5.324  0.00  0.00    +0.017 C 
ATOM      2  C   UNL     1       6.175   4.658  -4.221  0.00  0.00    +0.025 C 
ATOM      3  C   UNL     1       7.495   5.223  -4.789  0.00  0.00    +0.088 C 
ATOM      4  N   UNL     1       7.332   5.329  -6.250  0.00  0.00    -0.298 NA
ATOM      5  C   UNL     1       5.987   4.833  -6.611  0.00  0.00    +0.085 C 
ATOM      6  C   UNL     1       7.523   6.713  -6.703  0.00  0.00    +0.105 C 
ENDROOT
BRANCH   3   7
ATOM      7  C   UNL     1       8.633   4.291  -4.464  0.00  0.00    -0.012 A 
ATOM      8  C   UNL     1       9.933   4.639  -4.778  0.00  0.00    +0.115 A 
ATOM      9  N   UNL     1      10.935   3.829  -4.498  0.00  0.00    -0.263 NA
ATOM     10  C   UNL     1      10.741   2.664  -3.912  0.00  0.00    +0.111 A 
ATOM     11  C   UNL     1       9.469   2.248  -3.568  0.00  0.00    +0.020 A 
ATOM     12  C   UNL     1       8.391   3.075  -3.843  0.00  0.00    +0.008 A 
ENDBRANCH   3   7
TORSDOF 1
ENDMDL
MODEL 9
REMARK VINA RESULT:    -2.901      2.083      2.934
REMARK INTER + INTRA:          -3.300
REMARK INTER:                  -3.074
REMARK INTRA:                  -0.226
REMARK UNBOUND:                -0.230
REMARK  Name = Nicotine.pdb
REMARK  2 active torsions:
REMARK  status: ('A' for Active; 'I' for Inactive)
REMARK    1  A    between atoms: C_3  and  C_6
REMARK    2  A    between atoms: N_4  and  C_12
REMARK                            x       y       z     vdW  Elec       q    Type
REMARK                         _______ _______ _______ _____ _____    ______ ____
ROOT
ATOM      1  C   UNL     1       7.685   4.722  -1.367  0.00  0.00    +0.017 C 
ATOM      2  C   UNL     1       8.474   3.719  -2.250  0.00  0.00    +0.025 C 
ATOM      3  C   UNL     1       9.272   4.642  -3.195  0.00  0.00    +0.088 C 
ATOM      4  N   UNL     1       8.571   5.939  -3.235  0.00  0.00    -0.298 NA
ATOM      5  C   UNL     1       7.368   5.849  -2.381  0.00  0.00    +0.085 C 
ATOM      6  C   UNL     1       9.452   7.028  -2.793  0.00  0.00    +0.105 C 
ENDROOT
BRANCH   3   7
ATOM      7  C   UNL     1       9.322   4.043  -4.577  0.00  0.00    -0.012 A 
ATOM      8  C   UNL     1      10.535   3.831  -5.203  0.00  0.00    +0.115 A 
ATOM      9  N   UNL     1      10.588   3.306  -6.412  0.00  0.00    -0.263 NA
ATOM     10  C   UNL     1       9.496   2.966  -7.068  0.00  0.00    +0.111 A 
ATOM     11  C   UNL     1       8.246   3.148  -6.505  0.00  0.00    +0.020 A 
ATOM     12  C   UNL     1       8.152   3.691  -5.233  0.00  0.00    +0.008 A 
ENDBRANCH   3   7
TORSDOF 1
ENDMDL
MODEL 10
REMARK VINA RESULT:    -2.887      1.937      3.354
REMARK INTER + INTRA:          -3.286
REMARK INTER:                  -3.093
REMARK INTRA:                  -0.193
REMARK UNBOUND:                -0.230
REMARK  Name = Nicotine.pdb
REMARK  2 active torsions:
REMARK  status: ('A' for Active; 'I' for Inactive)
REMARK    1  A    between atoms: C_3  and  C_6
REMARK    2  A    between atoms: N_4  and  C_12
REMARK                            x       y       z     vdW  Elec       q    Type
REMARK                         _______ _______ _______ _____ _____    ______ ____
ROOT
ATOM      1  C   UNL     1       8.331   4.111  -1.153  0.00  0.00    +0.017 C 
ATOM      2  C   UNL     1       8.710   3.312  -2.428  0.00  0.00    +0.025 C 
ATOM      3  C   UNL     1       9.015   4.423  -3.456  0.00  0.00    +0.088 C 
ATOM      4  N   UNL     1       8.322   5.642  -2.999  0.00  0.00    -0.298 NA
ATOM      5  C   UNL     1       7.587   5.328  -1.756  0.00  0.00    +0.085 C 
ATOM      6  C   UNL     1       9.274   6.740  -2.786  0.00  0.00    +0.105 C 
ENDROOT
BRANCH   3   7
ATOM      7  C   UNL     1       8.503   4.019  -4.814  0.00  0.00    -0.012 A 
ATOM      8  C   UNL     1       7.307   4.524  -5.289  0.00  0.00    +0.115 A 
ATOM      9  N   UNL     1       6.852   4.176  -6.477  0.00  0.00    -0.263 NA
ATOM     10  C   UNL     1       7.512   3.340  -7.254  0.00  0.00    +0.111 A 
ATOM     11  C   UNL     1       8.716   2.795  -6.847  0.00  0.00    +0.020 A 
ATOM     12  C   UNL     1       9.228   3.142  -5.606  0.00  0.00    +0.008 A 
ENDBRANCH   3   7
TORSDOF 1
ENDMDL
