MODEL 1
REMARK VINA RESULT:    15.037      0.000      0.000
REMARK INTER + INTRA:          15.721
REMARK INTER:                  15.916
REMARK INTRA:                  -0.195
REMARK UNBOUND:                -0.195
REMARK  Name = Nicotine.pdb
REMARK  2 active torsions:
REMARK  status: ('A' for Active; 'I' for Inactive)
REMARK    1  A    between atoms: C_3  and  C_6
REMARK    2  A    between atoms: N_4  and  C_12
REMARK                            x       y       z     vdW  Elec       q    Type
REMARK                         _______ _______ _______ _____ _____    ______ ____
ROOT
ATOM      1  C   UNL     1      -1.859   1.909   1.744  0.00  0.00    +0.017 C 
ATOM      2  C   UNL     1      -2.195   0.542   1.092  0.00  0.00    +0.025 C 
ATOM      3  C   UNL     1      -3.651   0.292   1.541  0.00  0.00    +0.088 C 
ATOM      4  N   UNL     1      -3.878   1.099   2.753  0.00  0.00    -0.298 NA
ATOM      5  C   UNL     1      -2.627   1.813   3.086  0.00  0.00    +0.085 C 
ATOM      6  C   UNL     1      -4.987   2.042   2.558  0.00  0.00    +0.105 C 
ENDROOT
BRANCH   3   7
ATOM      7  C   UNL     1      -3.848  -1.169   1.852  0.00  0.00    -0.012 A 
ATOM      8  C   UNL     1      -2.847  -2.083   1.581  0.00  0.00    +0.115 A 
ATOM      9  N   UNL     1      -3.011  -3.363   1.849  0.00  0.00    -0.263 NA
ATOM     10  C   UNL     1      -4.126  -3.822   2.383  0.00  0.00    +0.111 A 
ATOM     11  C   UNL     1      -5.171  -2.968   2.682  0.00  0.00    +0.020 A 
ATOM     12  C   UNL     1      -5.033  -1.614   2.418  0.00  0.00    +0.008 A 
ENDBRANCH   3   7
TORSDOF 1
ENDMDL
MODEL 2
REMARK VINA RESULT:    16.130     12.836     14.499
REMARK INTER + INTRA:          16.878
REMARK INTER:                  17.071
REMARK INTRA:                  -0.193
REMARK UNBOUND:                -0.195
REMARK  Name = Nicotine.pdb
REMARK  2 active torsions:
REMARK  status: ('A' for Active; 'I' for Inactive)
REMARK    1  A    between atoms: C_3  and  C_6
REMARK    2  A    between atoms: N_4  and  C_12
REMARK                            x       y       z     vdW  Elec       q    Type
REMARK                         _______ _______ _______ _____ _____    ______ ____
ROOT
ATOM      1  C   UNL     1       6.004  -0.048  -3.698  0.00  0.00    +0.017 C 
ATOM      2  C   UNL     1       7.412   0.274  -4.263  0.00  0.00    +0.025 C 
ATOM      3  C   UNL     1       7.325  -0.230  -5.719  0.00  0.00    +0.088 C 
ATOM      4  N   UNL     1       6.243  -1.229  -5.772  0.00  0.00    -0.298 NA
ATOM      5  C   UNL     1       5.677  -1.382  -4.415  0.00  0.00    +0.085 C 
ATOM      6  C   UNL     1       5.206  -0.833  -6.734  0.00  0.00    +0.105 C 
ENDROOT
BRANCH   3   7
ATOM      7  C   UNL     1       8.631  -0.866  -6.120  0.00  0.00    -0.012 A 
ATOM      8  C   UNL     1       8.768  -2.241  -6.119  0.00  0.00    +0.115 A 
ATOM      9  N   UNL     1       9.908  -2.806  -6.469  0.00  0.00    -0.263 NA
ATOM     10  C   UNL     1      10.954  -2.090  -6.830  0.00  0.00    +0.111 A 
ATOM     11  C   UNL     1      10.891  -0.709  -6.856  0.00  0.00    +0.020 A 
ATOM     12  C   UNL     1       9.708  -0.080  -6.500  0.00  0.00    +0.008 A 
ENDBRANCH   3   7
TORSDOF 1
ENDMDL
MODEL 3
REMARK VINA RESULT:    16.416      1.325      2.198
REMARK INTER + INTRA:          17.181
REMARK INTER:                  17.407
REMARK INTRA:                  -0.226
REMARK UNBOUND:                -0.195
REMARK  Name = Nicotine.pdb
REMARK  2 active torsions:
REMARK  status: ('A' for Active; 'I' for Inactive)
REMARK    1  A    between atoms: C_3  and  C_6
REMARK    2  A    between atoms: N_4  and  C_12
REMARK                            x       y       z     vdW  Elec       q    Type
REMARK                         _______ _______ _______ _____ _____    ______ ____
ROOT
ATOM      1  C   UNL     1      -2.277   2.707   1.742  0.00  0.00    +0.017 C 
ATOM      2  C   UNL     1      -2.944   1.632   2.641  0.00  0.00    +0.025 C 
ATOM      3  C   UNL     1      -2.132   0.359   2.321  0.00  0.00    +0.088 C 
ATOM      4  N   UNL     1      -1.510   0.559   1.000  0.00  0.00    -0.298 NA
ATOM      5  C   UNL     1      -1.919   1.881   0.481  0.00  0.00    +0.085 C 
ATOM      6  C   UNL     1      -0.047   0.456   1.086  0.00  0.00    +0.105 C 
ENDROOT
BRANCH   3   7
ATOM      7  C   UNL     1      -3.048  -0.837   2.283  0.00  0.00    -0.012 A 
ATOM      8  C   UNL     1      -2.593  -2.051   1.805  0.00  0.00    +0.115 A 
ATOM      9  N   UNL     1      -3.388  -3.103   1.768  0.00  0.00    -0.263 NA
ATOM     10  C   UNL     1      -4.639  -3.040   2.180  0.00  0.00    +0.111 A 
ATOM     11  C   UNL     1      -5.164  -1.860   2.671  0.00  0.00    +0.020 A 
ATOM     12  C   UNL     1      -4.357  -0.735   2.730  0.00  0.00    +0.008 A 
ENDBRANCH   3   7
TORSDOF 1
ENDMDL
MODEL 4
REMARK VINA RESULT:    16.461     12.968     14.555
REMARK INTER + INTRA:          17.228
REMARK INTER:                  17.450
REMARK INTRA:                  -0.221
REMARK UNBOUND:                -0.195
REMARK  Name = Nicotine.pdb
REMARK  2 active torsions:
REMARK  status: ('A' for Active; 'I' for Inactive)
REMARK    1  A    between atoms: C_3  and  C_6
REMARK    2  A    between atoms: N_4  and  C_12
REMARK                            x       y       z     vdW  Elec       q    Type
REMARK                         _______ _______ _______ _____ _____    ______ ____
ROOT
ATOM      1  C   UNL     1      10.504  -2.703  -6.598  0.00  0.00    +0.017 C 
ATOM      2  C   UNL     1       8.960  -2.613  -6.474  0.00  0.00    +0.025 C 
ATOM      3  C   UNL     1       8.693  -1.095  -6.557  0.00  0.00    +0.088 C 
ATOM      4  N   UNL     1       9.941  -0.410  -6.173  0.00  0.00    -0.298 NA
ATOM      5  C   UNL     1      10.954  -1.433  -5.834  0.00  0.00    +0.085 C 
ATOM      6  C   UNL     1      10.416   0.464  -7.253  0.00  0.00    +0.105 C 
ENDROOT
BRANCH   3   7
ATOM      7  C   UNL     1       7.586  -0.717  -5.607  0.00  0.00    -0.012 A 
ATOM      8  C   UNL     1       7.822   0.175  -4.578  0.00  0.00    +0.115 A 
ATOM      9  N   UNL     1       6.859   0.512  -3.743  0.00  0.00    -0.263 NA
ATOM     10  C   UNL     1       5.642   0.016  -3.853  0.00  0.00    +0.111 A 
ATOM     11  C   UNL     1       5.331  -0.881  -4.858  0.00  0.00    +0.020 A 
ATOM     12  C   UNL     1       6.317  -1.254  -5.758  0.00  0.00    +0.008 A 
ENDBRANCH   3   7
TORSDOF 1
ENDMDL
MODEL 5
REMARK VINA RESULT:    16.597      1.124      4.522
REMARK INTER + INTRA:          17.372
REMARK INTER:                  17.622
REMARK INTRA:                  -0.249
REMARK UNBOUND:                -0.195
REMARK  Name = Nicotine.pdb
REMARK  2 active torsions:
REMARK  status: ('A' for Active; 'I' for Inactive)
REMARK    1  A    between atoms: C_3  and  C_6
REMARK    2  A    between atoms: N_4  and  C_12
REMARK                            x       y       z     vdW  Elec       q    Type
REMARK                         _______ _______ _______ _____ _____    ______ ____
ROOT
ATOM      1  C   UNL     1      -5.102  -3.080   2.285  0.00  0.00    +0.017 C 
ATOM      2  C   UNL     1      -5.171  -1.596   1.840  0.00  0.00    +0.025 C 
ATOM      3  C   UNL     1      -3.733  -1.311   1.356  0.00  0.00    +0.088 C 
ATOM      4  N   UNL     1      -2.851  -2.301   2.001  0.00  0.00    -0.298 NA
ATOM      5  C   UNL     1      -3.673  -3.164   2.877  0.00  0.00    +0.085 C 
ATOM      6  C   UNL     1      -2.134  -3.099   0.998  0.00  0.00    +0.105 C 
ENDROOT
BRANCH   3   7
ATOM      7  C   UNL     1      -3.323   0.081   1.759  0.00  0.00    -0.012 A 
ATOM      8  C   UNL     1      -2.135   0.619   1.301  0.00  0.00    +0.115 A 
ATOM      9  N   UNL     1      -1.768   1.838   1.649  0.00  0.00    -0.263 NA
ATOM     10  C   UNL     1      -2.512   2.586   2.439  0.00  0.00    +0.111 A 
ATOM     11  C   UNL     1      -3.713   2.116   2.935  0.00  0.00    +0.020 A 
ATOM     12  C   UNL     1      -4.134   0.842   2.587  0.00  0.00    +0.008 A 
ENDBRANCH   3   7
TORSDOF 1
ENDMDL
MODEL 6
REMARK VINA RESULT:    16.803      1.654      2.426
REMARK INTER + INTRA:          17.591
REMARK INTER:                  17.822
REMARK INTRA:                  -0.232
REMARK UNBOUND:                -0.195
REMARK  Name = Nicotine.pdb
REMARK  2 active torsions:
REMARK  status: ('A' for Active; 'I' for Inactive)
REMARK    1  A    between atoms: C_3  and  C_6
REMARK    2  A    between atoms: N_4  and  C_12
REMARK                            x       y       z     vdW  Elec       q    Type
REMARK                         _______ _______ _______ _____ _____    ______ ____
ROOT
ATOM      1  C   UNL     1      -0.051  -0.074   0.319  0.00  0.00    +0.017 C 
ATOM      2  C   UNL     1      -1.374  -0.878   0.224  0.00  0.00    +0.025 C 
ATOM      3  C   UNL     1      -2.400   0.060   0.894  0.00  0.00    +0.088 C 
ATOM      4  N   UNL     1      -1.647   0.977   1.769  0.00  0.00    -0.298 NA
ATOM      5  C   UNL     1      -0.212   0.632   1.689  0.00  0.00    +0.085 C 
ATOM      6  C   UNL     1      -1.874   2.377   1.386  0.00  0.00    +0.105 C 
ENDROOT
BRANCH   3   7
ATOM      7  C   UNL     1      -3.375  -0.746   1.712  0.00  0.00    -0.012 A 
ATOM      8  C   UNL     1      -4.314  -0.112   2.505  0.00  0.00    +0.115 A 
ATOM      9  N   UNL     1      -5.171  -0.811   3.224  0.00  0.00    -0.263 NA
ATOM     10  C   UNL     1      -5.169  -2.129   3.217  0.00  0.00    +0.111 A 
ATOM     11  C   UNL     1      -4.260  -2.831   2.448  0.00  0.00    +0.020 A 
ATOM     12  C   UNL     1      -3.347  -2.131   1.675  0.00  0.00    +0.008 A 
ENDBRANCH   3   7
TORSDOF 1
ENDMDL
MODEL 7
REMARK VINA RESULT:    16.889     12.850     14.536
REMARK INTER + INTRA:          17.682
REMARK INTER:                  17.859
REMARK INTRA:                  -0.178
REMARK UNBOUND:                -0.195
REMARK  Name = Nicotine.pdb
REMARK  2 active torsions:
REMARK  status: ('A' for Active; 'I' for Inactive)
REMARK    1  A    between atoms: C_3  and  C_6
REMARK    2  A    between atoms: N_4  and  C_12
REMARK                            x       y       z     vdW  Elec       q    Type
REMARK                         _______ _______ _______ _____ _____    ______ ____
ROOT
ATOM      1  C   UNL     1      10.953  -1.035  -6.898  0.00  0.00    +0.017 C 
ATOM      2  C   UNL     1       9.933  -0.188  -6.093  0.00  0.00    +0.025 C 
ATOM      3  C   UNL     1       9.120  -1.256  -5.330  0.00  0.00    +0.088 C 
ATOM      4  N   UNL     1       9.268  -2.525  -6.065  0.00  0.00    -0.298 NA
ATOM      5  C   UNL     1      10.110  -2.284  -7.256  0.00  0.00    +0.085 C 
ATOM      6  C   UNL     1       9.852  -3.565  -5.208  0.00  0.00    +0.105 C 
ENDROOT
BRANCH   3   7
ATOM      7  C   UNL     1       7.669  -0.856  -5.280  0.00  0.00    -0.012 A 
ATOM      8  C   UNL     1       6.799  -1.256  -6.276  0.00  0.00    +0.115 A 
ATOM      9  N   UNL     1       5.526  -0.911  -6.240  0.00  0.00    -0.263 NA
ATOM     10  C   UNL     1       5.035  -0.177  -5.261  0.00  0.00    +0.111 A 
ATOM     11  C   UNL     1       5.845   0.259  -4.229  0.00  0.00    +0.020 A 
ATOM     12  C   UNL     1       7.187  -0.088  -4.231  0.00  0.00    +0.008 A 
ENDBRANCH   3   7
TORSDOF 1
ENDMDL
