MODEL 1
REMARK VINA RESULT:    -0.626      0.000      0.000
REMARK INTER + INTRA:          -0.886
REMARK INTER:                  -0.663
REMARK INTRA:                  -0.223
REMARK UNBOUND:                -0.223
REMARK  Name = Nicotine.pdb
REMARK  2 active torsions:
REMARK  status: ('A' for Active; 'I' for Inactive)
REMARK    1  A    between atoms: C_3  and  C_6
REMARK    2  A    between atoms: N_4  and  C_12
REMARK                            x       y       z     vdW  Elec       q    Type
REMARK                         _______ _______ _______ _____ _____    ______ ____
ROOT
ATOM      1  C   UNL     1       9.390  -3.215  -1.736  0.00  0.00    +0.017 C 
ATOM      2  C   UNL     1       8.660  -3.829  -2.959  0.00  0.00    +0.025 C 
ATOM      3  C   UNL     1       9.364  -5.192  -3.134  0.00  0.00    +0.088 C 
ATOM      4  N   UNL     1      10.685  -5.088  -2.489  0.00  0.00    -0.298 NA
ATOM      5  C   UNL     1      10.839  -3.720  -1.948  0.00  0.00    +0.085 C 
ATOM      6  C   UNL     1      10.835  -6.093  -1.429  0.00  0.00    +0.105 C 
ENDROOT
BRANCH   3   7
ATOM      7  C   UNL     1       9.530  -5.499  -4.600  0.00  0.00    -0.012 A 
ATOM      8  C   UNL     1      10.773  -5.827  -5.109  0.00  0.00    +0.115 A 
ATOM      9  N   UNL     1      10.927  -6.097  -6.390  0.00  0.00    -0.263 NA
ATOM     10  C   UNL     1       9.913  -6.066  -7.232  0.00  0.00    +0.111 A 
ATOM     11  C   UNL     1       8.640  -5.747  -6.796  0.00  0.00    +0.020 A 
ATOM     12  C   UNL     1       8.439  -5.462  -5.454  0.00  0.00    +0.008 A 
ENDBRANCH   3   7
TORSDOF 1
ENDMDL
MODEL 2
REMARK VINA RESULT:    -0.395      1.379      4.688
REMARK INTER + INTRA:          -0.641
REMARK INTER:                  -0.421
REMARK INTRA:                  -0.220
REMARK UNBOUND:                -0.223
REMARK  Name = Nicotine.pdb
REMARK  2 active torsions:
REMARK  status: ('A' for Active; 'I' for Inactive)
REMARK    1  A    between atoms: C_3  and  C_6
REMARK    2  A    between atoms: N_4  and  C_12
REMARK                            x       y       z     vdW  Elec       q    Type
REMARK                         _______ _______ _______ _____ _____    ______ ____
ROOT
ATOM      1  C   UNL     1      10.252  -5.886  -7.141  0.00  0.00    +0.017 C 
ATOM      2  C   UNL     1      10.587  -6.097  -5.641  0.00  0.00    +0.025 C 
ATOM      3  C   UNL     1       9.203  -6.022  -4.962  0.00  0.00    +0.088 C 
ATOM      4  N   UNL     1       8.311  -5.278  -5.869  0.00  0.00    -0.298 NA
ATOM      5  C   UNL     1       9.085  -4.869  -7.061  0.00  0.00    +0.085 C 
ATOM      6  C   UNL     1       7.149  -6.090  -6.249  0.00  0.00    +0.105 C 
ENDROOT
BRANCH   3   7
ATOM      7  C   UNL     1       9.317  -5.298  -3.645  0.00  0.00    -0.012 A 
ATOM      8  C   UNL     1       8.654  -4.102  -3.445  0.00  0.00    +0.115 A 
ATOM      9  N   UNL     1       8.748  -3.463  -2.295  0.00  0.00    -0.263 NA
ATOM     10  C   UNL     1       9.471  -3.932  -1.298  0.00  0.00    +0.111 A 
ATOM     11  C   UNL     1      10.162  -5.123  -1.425  0.00  0.00    +0.020 A 
ATOM     12  C   UNL     1      10.083  -5.826  -2.617  0.00  0.00    +0.008 A 
ENDBRANCH   3   7
TORSDOF 1
ENDMDL
MODEL 3
REMARK VINA RESULT:     0.798      1.533      4.703
REMARK INTER + INTRA:           0.622
REMARK INTER:                   0.806
REMARK INTRA:                  -0.185
REMARK UNBOUND:                -0.223
REMARK  Name = Nicotine.pdb
REMARK  2 active torsions:
REMARK  status: ('A' for Active; 'I' for Inactive)
REMARK    1  A    between atoms: C_3  and  C_6
REMARK    2  A    between atoms: N_4  and  C_12
REMARK                            x       y       z     vdW  Elec       q    Type
REMARK                         _______ _______ _______ _____ _____    ______ ____
ROOT
ATOM      1  C   UNL     1       7.967  -4.639  -5.201  0.00  0.00    +0.017 C 
ATOM      2  C   UNL     1       8.392  -3.954  -3.875  0.00  0.00    +0.025 C 
ATOM      3  C   UNL     1       9.713  -4.670  -3.522  0.00  0.00    +0.088 C 
ATOM      4  N   UNL     1       9.706  -5.968  -4.219  0.00  0.00    -0.298 NA
ATOM      5  C   UNL     1       8.435  -6.097  -4.963  0.00  0.00    +0.085 C 
ATOM      6  C   UNL     1      10.859  -6.089  -5.121  0.00  0.00    +0.105 C 
ENDROOT
BRANCH   3   7
ATOM      7  C   UNL     1       9.796  -4.886  -2.033  0.00  0.00    -0.012 A 
ATOM      8  C   UNL     1       9.133  -4.039  -1.165  0.00  0.00    +0.115 A 
ATOM      9  N   UNL     1       9.201  -4.222   0.139  0.00  0.00    -0.263 NA
ATOM     10  C   UNL     1       9.898  -5.209   0.665  0.00  0.00    +0.111 A 
ATOM     11  C   UNL     1      10.587  -6.097  -0.140  0.00  0.00    +0.020 A 
ATOM     12  C   UNL     1      10.535  -5.940  -1.516  0.00  0.00    +0.008 A 
ENDBRANCH   3   7
TORSDOF 1
ENDMDL
