MODEL 1
REMARK VINA RESULT:    15.804      0.000      0.000
REMARK INTER + INTRA:          16.541
REMARK INTER:                  16.728
REMARK INTRA:                  -0.187
REMARK UNBOUND:                -0.187
REMARK  Name = Nicotine.pdb
REMARK  2 active torsions:
REMARK  status: ('A' for Active; 'I' for Inactive)
REMARK    1  A    between atoms: C_3  and  C_6
REMARK    2  A    between atoms: N_4  and  C_12
REMARK                            x       y       z     vdW  Elec       q    Type
REMARK                         _______ _______ _______ _____ _____    ______ ____
ROOT
ATOM      1  C   UNL     1       2.685   2.952   0.444  0.00  0.00    +0.017 C 
ATOM      2  C   UNL     1       1.447   2.099   0.825  0.00  0.00    +0.025 C 
ATOM      3  C   UNL     1       1.691   1.778   2.315  0.00  0.00    +0.088 C 
ATOM      4  N   UNL     1       3.138   1.917   2.560  0.00  0.00    -0.298 NA
ATOM      5  C   UNL     1       3.798   2.283   1.289  0.00  0.00    +0.085 C 
ATOM      6  C   UNL     1       3.402   2.921   3.599  0.00  0.00    +0.105 C 
ENDROOT
BRANCH   3   7
ATOM      7  C   UNL     1       1.253   0.368   2.615  0.00  0.00    -0.012 A 
ATOM      8  C   UNL     1       0.207  -0.202   1.913  0.00  0.00    +0.115 A 
ATOM      9  N   UNL     1      -0.183  -1.436   2.169  0.00  0.00    -0.263 NA
ATOM     10  C   UNL     1       0.401  -2.169   3.096  0.00  0.00    +0.111 A 
ATOM     11  C   UNL     1       1.454  -1.666   3.838  0.00  0.00    +0.020 A 
ATOM     12  C   UNL     1       1.895  -0.375   3.593  0.00  0.00    +0.008 A 
ENDBRANCH   3   7
TORSDOF 1
ENDMDL
MODEL 2
REMARK VINA RESULT:    16.103      1.743      4.864
REMARK INTER + INTRA:          16.858
REMARK INTER:                  17.044
REMARK INTRA:                  -0.187
REMARK UNBOUND:                -0.187
REMARK  Name = Nicotine.pdb
REMARK  2 active torsions:
REMARK  status: ('A' for Active; 'I' for Inactive)
REMARK    1  A    between atoms: C_3  and  C_6
REMARK    2  A    between atoms: N_4  and  C_12
REMARK                            x       y       z     vdW  Elec       q    Type
REMARK                         _______ _______ _______ _____ _____    ______ ____
ROOT
ATOM      1  C   UNL     1      -1.262  -3.196   4.394  0.00  0.00    +0.017 C 
ATOM      2  C   UNL     1      -0.976  -2.323   3.144  0.00  0.00    +0.025 C 
ATOM      3  C   UNL     1       0.561  -2.181   3.164  0.00  0.00    +0.088 C 
ATOM      4  N   UNL     1       1.005  -2.425   4.549  0.00  0.00    -0.298 NA
ATOM      5  C   UNL     1      -0.186  -2.686   5.385  0.00  0.00    +0.085 C 
ATOM      6  C   UNL     1       1.947  -3.550   4.609  0.00  0.00    +0.105 C 
ENDROOT
BRANCH   3   7
ATOM      7  C   UNL     1       0.953  -0.790   2.737  0.00  0.00    -0.012 A 
ATOM      8  C   UNL     1       0.165  -0.084   1.848  0.00  0.00    +0.115 A 
ATOM      9  N   UNL     1       0.501   1.134   1.469  0.00  0.00    -0.263 NA
ATOM     10  C   UNL     1       1.592   1.723   1.917  0.00  0.00    +0.111 A 
ATOM     11  C   UNL     1       2.429   1.078   2.808  0.00  0.00    +0.020 A 
ATOM     12  C   UNL     1       2.106  -0.201   3.234  0.00  0.00    +0.008 A 
ENDBRANCH   3   7
TORSDOF 1
ENDMDL
MODEL 3
REMARK VINA RESULT:    17.351      1.848      5.092
REMARK INTER + INTRA:          18.179
REMARK INTER:                  18.396
REMARK INTRA:                  -0.217
REMARK UNBOUND:                -0.187
REMARK  Name = Nicotine.pdb
REMARK  2 active torsions:
REMARK  status: ('A' for Active; 'I' for Inactive)
REMARK    1  A    between atoms: C_3  and  C_6
REMARK    2  A    between atoms: N_4  and  C_12
REMARK                            x       y       z     vdW  Elec       q    Type
REMARK                         _______ _______ _______ _____ _____    ______ ____
ROOT
ATOM      1  C   UNL     1       1.614  -3.864   5.126  0.00  0.00    +0.017 C 
ATOM      2  C   UNL     1       1.804  -2.328   5.019  0.00  0.00    +0.025 C 
ATOM      3  C   UNL     1       0.509  -1.866   4.317  0.00  0.00    +0.088 C 
ATOM      4  N   UNL     1      -0.038  -3.031   3.599  0.00  0.00    -0.298 NA
ATOM      5  C   UNL     1       0.870  -4.180   3.804  0.00  0.00    +0.085 C 
ATOM      6  C   UNL     1      -1.397  -3.344   4.061  0.00  0.00    +0.105 C 
ENDROOT
BRANCH   3   7
ATOM      7  C   UNL     1       0.821  -0.761   3.341  0.00  0.00    -0.012 A 
ATOM      8  C   UNL     1      -0.041  -0.487   2.296  0.00  0.00    +0.115 A 
ATOM      9  N   UNL     1       0.224   0.478   1.438  0.00  0.00    -0.263 NA
ATOM     10  C   UNL     1       1.312   1.216   1.539  0.00  0.00    +0.111 A 
ATOM     11  C   UNL     1       2.221   1.000   2.558  0.00  0.00    +0.020 A 
ATOM     12  C   UNL     1       1.973  -0.002   3.483  0.00  0.00    +0.008 A 
ENDBRANCH   3   7
TORSDOF 1
ENDMDL
