MODEL 1
REMARK VINA RESULT:     5.140      0.000      0.000
REMARK INTER + INTRA:           5.224
REMARK INTER:                   5.440
REMARK INTRA:                  -0.216
REMARK UNBOUND:                -0.216
REMARK  Name = Nicotine.pdb
REMARK  2 active torsions:
REMARK  status: ('A' for Active; 'I' for Inactive)
REMARK    1  A    between atoms: C_3  and  C_6
REMARK    2  A    between atoms: N_4  and  C_12
REMARK                            x       y       z     vdW  Elec       q    Type
REMARK                         _______ _______ _______ _____ _____    ______ ____
ROOT
ATOM      1  C   UNL     1      -0.700  -1.229  -3.008  0.00  0.00    +0.017 C 
ATOM      2  C   UNL     1      -0.103  -1.799  -1.694  0.00  0.00    +0.025 C 
ATOM      3  C   UNL     1      -1.307  -2.516  -1.049  0.00  0.00    +0.088 C 
ATOM      4  N   UNL     1      -2.528  -1.919  -1.618  0.00  0.00    -0.298 NA
ATOM      5  C   UNL     1      -2.135  -0.852  -2.562  0.00  0.00    +0.085 C 
ATOM      6  C   UNL     1      -3.351  -2.936  -2.285  0.00  0.00    +0.105 C 
ENDROOT
BRANCH   3   7
ATOM      7  C   UNL     1      -1.284  -2.315   0.444  0.00  0.00    -0.012 A 
ATOM      8  C   UNL     1      -2.442  -2.451   1.186  0.00  0.00    +0.115 A 
ATOM      9  N   UNL     1      -2.431  -2.276   2.493  0.00  0.00    -0.263 NA
ATOM     10  C   UNL     1      -1.325  -1.967   3.142  0.00  0.00    +0.111 A 
ATOM     11  C   UNL     1      -0.128  -1.815   2.467  0.00  0.00    +0.020 A 
ATOM     12  C   UNL     1      -0.100  -1.996   1.093  0.00  0.00    +0.008 A 
ENDBRANCH   3   7
TORSDOF 1
ENDMDL
MODEL 2
REMARK VINA RESULT:     5.827      1.812      3.714
REMARK INTER + INTRA:           5.951
REMARK INTER:                   6.207
REMARK INTRA:                  -0.256
REMARK UNBOUND:                -0.216
REMARK  Name = Nicotine.pdb
REMARK  2 active torsions:
REMARK  status: ('A' for Active; 'I' for Inactive)
REMARK    1  A    between atoms: C_3  and  C_6
REMARK    2  A    between atoms: N_4  and  C_12
REMARK                            x       y       z     vdW  Elec       q    Type
REMARK                         _______ _______ _______ _____ _____    ______ ____
ROOT
ATOM      1  C   UNL     1       0.804  -2.314   1.520  0.00  0.00    +0.017 C 
ATOM      2  C   UNL     1      -0.691  -2.725   1.452  0.00  0.00    +0.025 C 
ATOM      3  C   UNL     1      -1.045  -2.498  -0.033  0.00  0.00    +0.088 C 
ATOM      4  N   UNL     1      -0.070  -1.533  -0.573  0.00  0.00    -0.298 NA
ATOM      5  C   UNL     1       0.851  -1.137   0.514  0.00  0.00    +0.085 C 
ATOM      6  C   UNL     1       0.668  -2.107  -1.706  0.00  0.00    +0.105 C 
ENDROOT
BRANCH   3   7
ATOM      7  C   UNL     1      -2.439  -1.938  -0.147  0.00  0.00    -0.012 A 
ATOM      8  C   UNL     1      -3.113  -1.979  -1.354  0.00  0.00    +0.115 A 
ATOM      9  N   UNL     1      -4.333  -1.491  -1.462  0.00  0.00    -0.263 NA
ATOM     10  C   UNL     1      -4.956  -0.948  -0.435  0.00  0.00    +0.111 A 
ATOM     11  C   UNL     1      -4.346  -0.872   0.803  0.00  0.00    +0.020 A 
ATOM     12  C   UNL     1      -3.065  -1.379   0.957  0.00  0.00    +0.008 A 
ENDBRANCH   3   7
TORSDOF 1
ENDMDL
MODEL 3
REMARK VINA RESULT:     5.844      1.957      3.784
REMARK INTER + INTRA:           5.970
REMARK INTER:                   6.190
REMARK INTRA:                  -0.220
REMARK UNBOUND:                -0.216
REMARK  Name = Nicotine.pdb
REMARK  2 active torsions:
REMARK  status: ('A' for Active; 'I' for Inactive)
REMARK    1  A    between atoms: C_3  and  C_6
REMARK    2  A    between atoms: N_4  and  C_12
REMARK                            x       y       z     vdW  Elec       q    Type
REMARK                         _______ _______ _______ _____ _____    ______ ____
ROOT
ATOM      1  C   UNL     1       0.740  -1.588   1.332  0.00  0.00    +0.017 C 
ATOM      2  C   UNL     1      -0.733  -1.299   1.723  0.00  0.00    +0.025 C 
ATOM      3  C   UNL     1      -1.517  -2.380   0.949  0.00  0.00    +0.088 C 
ATOM      4  N   UNL     1      -0.667  -2.816  -0.174  0.00  0.00    -0.298 NA
ATOM      5  C   UNL     1       0.590  -2.037  -0.143  0.00  0.00    +0.085 C 
ATOM      6  C   UNL     1      -0.396  -4.257  -0.102  0.00  0.00    +0.105 C 
ENDROOT
BRANCH   3   7
ATOM      7  C   UNL     1      -2.806  -1.802   0.424  0.00  0.00    -0.012 A 
ATOM      8  C   UNL     1      -3.032  -1.721  -0.937  0.00  0.00    +0.115 A 
ATOM      9  N   UNL     1      -4.158  -1.217  -1.404  0.00  0.00    -0.263 NA
ATOM     10  C   UNL     1      -5.104  -0.773  -0.601  0.00  0.00    +0.111 A 
ATOM     11  C   UNL     1      -4.949  -0.823   0.772  0.00  0.00    +0.020 A 
ATOM     12  C   UNL     1      -3.781  -1.351   1.300  0.00  0.00    +0.008 A 
ENDBRANCH   3   7
TORSDOF 1
ENDMDL
MODEL 4
REMARK VINA RESULT:     5.963      1.313      4.706
REMARK INTER + INTRA:           6.095
REMARK INTER:                   6.319
REMARK INTRA:                  -0.224
REMARK UNBOUND:                -0.216
REMARK  Name = Nicotine.pdb
REMARK  2 active torsions:
REMARK  status: ('A' for Active; 'I' for Inactive)
REMARK    1  A    between atoms: C_3  and  C_6
REMARK    2  A    between atoms: N_4  and  C_12
REMARK                            x       y       z     vdW  Elec       q    Type
REMARK                         _______ _______ _______ _____ _____    ______ ____
ROOT
ATOM      1  C   UNL     1      -1.664  -2.281   2.932  0.00  0.00    +0.017 C 
ATOM      2  C   UNL     1      -2.209  -2.725   1.549  0.00  0.00    +0.025 C 
ATOM      3  C   UNL     1      -0.962  -2.647   0.644  0.00  0.00    +0.088 C 
ATOM      4  N   UNL     1      -0.013  -1.720   1.286  0.00  0.00    -0.298 NA
ATOM      5  C   UNL     1      -0.626  -1.205   2.529  0.00  0.00    +0.085 C 
ATOM      6  C   UNL     1       1.266  -2.386   1.565  0.00  0.00    +0.105 C 
ENDROOT
BRANCH   3   7
ATOM      7  C   UNL     1      -1.348  -2.126  -0.717  0.00  0.00    -0.012 A 
ATOM      8  C   UNL     1      -0.376  -1.713  -1.608  0.00  0.00    +0.115 A 
ATOM      9  N   UNL     1      -0.705  -1.256  -2.801  0.00  0.00    -0.263 NA
ATOM     10  C   UNL     1      -1.963  -1.175  -3.189  0.00  0.00    +0.111 A 
ATOM     11  C   UNL     1      -2.989  -1.571  -2.352  0.00  0.00    +0.020 A 
ATOM     12  C   UNL     1      -2.681  -2.061  -1.092  0.00  0.00    +0.008 A 
ENDBRANCH   3   7
TORSDOF 1
ENDMDL
MODEL 5
REMARK VINA RESULT:     6.366      1.351      1.553
REMARK INTER + INTRA:           6.522
REMARK INTER:                   6.777
REMARK INTRA:                  -0.254
REMARK UNBOUND:                -0.216
REMARK  Name = Nicotine.pdb
REMARK  2 active torsions:
REMARK  status: ('A' for Active; 'I' for Inactive)
REMARK    1  A    between atoms: C_3  and  C_6
REMARK    2  A    between atoms: N_4  and  C_12
REMARK                            x       y       z     vdW  Elec       q    Type
REMARK                         _______ _______ _______ _____ _____    ______ ____
ROOT
ATOM      1  C   UNL     1      -2.581  -1.364  -2.793  0.00  0.00    +0.017 C 
ATOM      2  C   UNL     1      -1.915  -2.320  -1.769  0.00  0.00    +0.025 C 
ATOM      3  C   UNL     1      -2.727  -2.070  -0.481  0.00  0.00    +0.088 C 
ATOM      4  N   UNL     1      -3.350  -0.740  -0.608  0.00  0.00    -0.298 NA
ATOM      5  C   UNL     1      -2.940  -0.150  -1.900  0.00  0.00    +0.085 C 
ATOM      6  C   UNL     1      -4.812  -0.831  -0.511  0.00  0.00    +0.105 C 
ENDROOT
BRANCH   3   7
ATOM      7  C   UNL     1      -1.812  -2.096   0.716  0.00  0.00    -0.012 A 
ATOM      8  C   UNL     1      -2.333  -2.183   1.993  0.00  0.00    +0.115 A 
ATOM      9  N   UNL     1      -1.539  -2.207   3.046  0.00  0.00    -0.263 NA
ATOM     10  C   UNL     1      -0.228  -2.148   2.926  0.00  0.00    +0.111 A 
ATOM     11  C   UNL     1       0.366  -2.060   1.681  0.00  0.00    +0.020 A 
ATOM     12  C   UNL     1      -0.437  -2.038   0.550  0.00  0.00    +0.008 A 
ENDBRANCH   3   7
TORSDOF 1
ENDMDL
MODEL 6
REMARK VINA RESULT:     6.675      1.490      2.524
REMARK INTER + INTRA:           6.849
REMARK INTER:                   7.075
REMARK INTRA:                  -0.225
REMARK UNBOUND:                -0.216
REMARK  Name = Nicotine.pdb
REMARK  2 active torsions:
REMARK  status: ('A' for Active; 'I' for Inactive)
REMARK    1  A    between atoms: C_3  and  C_6
REMARK    2  A    between atoms: N_4  and  C_12
REMARK                            x       y       z     vdW  Elec       q    Type
REMARK                         _______ _______ _______ _____ _____    ______ ____
ROOT
ATOM      1  C   UNL     1      -4.683  -1.657  -1.435  0.00  0.00    +0.017 C 
ATOM      2  C   UNL     1      -3.984  -1.198  -0.128  0.00  0.00    +0.025 C 
ATOM      3  C   UNL     1      -2.498  -1.118  -0.540  0.00  0.00    +0.088 C 
ATOM      4  N   UNL     1      -2.324  -1.984  -1.720  0.00  0.00    -0.298 NA
ATOM      5  C   UNL     1      -3.624  -2.612  -2.039  0.00  0.00    +0.085 C 
ATOM      6  C   UNL     1      -1.814  -1.218  -2.865  0.00  0.00    +0.105 C 
ENDROOT
BRANCH   3   7
ATOM      7  C   UNL     1      -1.627  -1.605   0.588  0.00  0.00    -0.012 A 
ATOM      8  C   UNL     1      -0.283  -1.853   0.377  0.00  0.00    +0.115 A 
ATOM      9  N   UNL     1       0.487  -2.279   1.359  0.00  0.00    -0.263 NA
ATOM     10  C   UNL     1       0.013  -2.486   2.572  0.00  0.00    +0.111 A 
ATOM     11  C   UNL     1      -1.321  -2.260   2.858  0.00  0.00    +0.020 A 
ATOM     12  C   UNL     1      -2.160  -1.806   1.852  0.00  0.00    +0.008 A 
ENDBRANCH   3   7
TORSDOF 1
ENDMDL
