MODEL 1
REMARK VINA RESULT:    -3.941      0.000      0.000
REMARK INTER + INTRA:          -4.341
REMARK INTER:                  -4.171
REMARK INTRA:                  -0.170
REMARK UNBOUND:                -0.170
REMARK  Name = Nicotine.pdb
REMARK  2 active torsions:
REMARK  status: ('A' for Active; 'I' for Inactive)
REMARK    1  A    between atoms: C_3  and  C_6
REMARK    2  A    between atoms: N_4  and  C_12
REMARK                            x       y       z     vdW  Elec       q    Type
REMARK                         _______ _______ _______ _____ _____    ______ ____
ROOT
ATOM      1  C   UNL     1      -4.147   1.966  -7.181  0.00  0.00    +0.017 C 
ATOM      2  C   UNL     1      -4.825   1.904  -5.788  0.00  0.00    +0.025 C 
ATOM      3  C   UNL     1      -4.542   3.304  -5.202  0.00  0.00    +0.088 C 
ATOM      4  N   UNL     1      -3.368   3.845  -5.911  0.00  0.00    -0.298 NA
ATOM      5  C   UNL     1      -2.900   2.836  -6.885  0.00  0.00    +0.085 C 
ATOM      6  C   UNL     1      -3.693   5.112  -6.579  0.00  0.00    +0.105 C 
ENDROOT
BRANCH   3   7
ATOM      7  C   UNL     1      -4.247   3.194  -3.729  0.00  0.00    -0.012 A 
ATOM      8  C   UNL     1      -3.069   2.617  -3.293  0.00  0.00    +0.115 A 
ATOM      9  N   UNL     1      -2.804   2.516  -2.005  0.00  0.00    -0.263 NA
ATOM     10  C   UNL     1      -3.642   2.957  -1.088  0.00  0.00    +0.111 A 
ATOM     11  C   UNL     1      -4.840   3.546  -1.448  0.00  0.00    +0.020 A 
ATOM     12  C   UNL     1      -5.151   3.674  -2.793  0.00  0.00    +0.008 A 
ENDBRANCH   3   7
TORSDOF 1
ENDMDL
MODEL 2
REMARK VINA RESULT:    -3.638      1.554      4.372
REMARK INTER + INTRA:          -4.020
REMARK INTER:                  -3.809
REMARK INTRA:                  -0.211
REMARK UNBOUND:                -0.170
REMARK  Name = Nicotine.pdb
REMARK  2 active torsions:
REMARK  status: ('A' for Active; 'I' for Inactive)
REMARK    1  A    between atoms: C_3  and  C_6
REMARK    2  A    between atoms: N_4  and  C_12
REMARK                            x       y       z     vdW  Elec       q    Type
REMARK                         _______ _______ _______ _____ _____    ______ ____
ROOT
ATOM      1  C   UNL     1      -3.886   3.244  -1.223  0.00  0.00    +0.017 C 
ATOM      2  C   UNL     1      -3.253   2.529  -2.446  0.00  0.00    +0.025 C 
ATOM      3  C   UNL     1      -3.246   3.630  -3.527  0.00  0.00    +0.088 C 
ATOM      4  N   UNL     1      -4.274   4.618  -3.151  0.00  0.00    -0.298 NA
ATOM      5  C   UNL     1      -4.929   4.165  -1.905  0.00  0.00    +0.085 C 
ATOM      6  C   UNL     1      -3.685   5.953  -2.982  0.00  0.00    +0.105 C 
ENDROOT
BRANCH   3   7
ATOM      7  C   UNL     1      -3.576   3.032  -4.870  0.00  0.00    -0.012 A 
ATOM      8  C   UNL     1      -4.503   2.012  -4.972  0.00  0.00    +0.115 A 
ATOM      9  N   UNL     1      -4.797   1.482  -6.144  0.00  0.00    -0.263 NA
ATOM     10  C   UNL     1      -4.226   1.900  -7.256  0.00  0.00    +0.111 A 
ATOM     11  C   UNL     1      -3.290   2.917  -7.232  0.00  0.00    +0.020 A 
ATOM     12  C   UNL     1      -2.959   3.501  -6.019  0.00  0.00    +0.008 A 
ENDBRANCH   3   7
TORSDOF 1
ENDMDL
MODEL 3
REMARK VINA RESULT:    -3.211      2.160      2.625
REMARK INTER + INTRA:          -3.568
REMARK INTER:                  -3.334
REMARK INTRA:                  -0.234
REMARK UNBOUND:                -0.170
REMARK  Name = Nicotine.pdb
REMARK  2 active torsions:
REMARK  status: ('A' for Active; 'I' for Inactive)
REMARK    1  A    between atoms: C_3  and  C_6
REMARK    2  A    between atoms: N_4  and  C_12
REMARK                            x       y       z     vdW  Elec       q    Type
REMARK                         _______ _______ _______ _____ _____    ______ ____
ROOT
ATOM      1  C   UNL     1      -4.311   2.182  -4.670  0.00  0.00    +0.017 C 
ATOM      2  C   UNL     1      -4.965   2.892  -3.455  0.00  0.00    +0.025 C 
ATOM      3  C   UNL     1      -4.489   4.352  -3.608  0.00  0.00    +0.088 C 
ATOM      4  N   UNL     1      -3.268   4.329  -4.433  0.00  0.00    -0.298 NA
ATOM      5  C   UNL     1      -2.955   2.925  -4.773  0.00  0.00    +0.085 C 
ATOM      6  C   UNL     1      -3.436   5.140  -5.646  0.00  0.00    +0.105 C 
ENDROOT
BRANCH   3   7
ATOM      7  C   UNL     1      -4.184   4.937  -2.254  0.00  0.00    -0.012 A 
ATOM      8  C   UNL     1      -3.665   6.213  -2.144  0.00  0.00    +0.115 A 
ATOM      9  N   UNL     1      -3.395   6.733  -0.962  0.00  0.00    -0.263 NA
ATOM     10  C   UNL     1      -3.606   6.063   0.153  0.00  0.00    +0.111 A 
ATOM     11  C   UNL     1      -4.123   4.781   0.123  0.00  0.00    +0.020 A 
ATOM     12  C   UNL     1      -4.424   4.204  -1.101  0.00  0.00    +0.008 A 
ENDBRANCH   3   7
TORSDOF 1
ENDMDL
MODEL 4
REMARK VINA RESULT:    -3.186      1.296      4.728
REMARK INTER + INTRA:          -3.542
REMARK INTER:                  -3.333
REMARK INTRA:                  -0.209
REMARK UNBOUND:                -0.170
REMARK  Name = Nicotine.pdb
REMARK  2 active torsions:
REMARK  status: ('A' for Active; 'I' for Inactive)
REMARK    1  A    between atoms: C_3  and  C_6
REMARK    2  A    between atoms: N_4  and  C_12
REMARK                            x       y       z     vdW  Elec       q    Type
REMARK                         _______ _______ _______ _____ _____    ______ ____
ROOT
ATOM      1  C   UNL     1      -4.524   5.631  -1.111  0.00  0.00    +0.017 C 
ATOM      2  C   UNL     1      -4.715   5.504  -2.645  0.00  0.00    +0.025 C 
ATOM      3  C   UNL     1      -4.844   3.980  -2.854  0.00  0.00    +0.088 C 
ATOM      4  N   UNL     1      -4.213   3.325  -1.695  0.00  0.00    -0.298 NA
ATOM      5  C   UNL     1      -3.680   4.371  -0.796  0.00  0.00    +0.085 C 
ATOM      6  C   UNL     1      -5.171   2.463  -0.990  0.00  0.00    +0.105 C 
ENDROOT
BRANCH   3   7
ATOM      7  C   UNL     1      -4.137   3.575  -4.122  0.00  0.00    -0.012 A 
ATOM      8  C   UNL     1      -4.678   3.886  -5.355  0.00  0.00    +0.115 A 
ATOM      9  N   UNL     1      -4.066   3.535  -6.468  0.00  0.00    -0.263 NA
ATOM     10  C   UNL     1      -2.923   2.878  -6.453  0.00  0.00    +0.111 A 
ATOM     11  C   UNL     1      -2.321   2.532  -5.258  0.00  0.00    +0.020 A 
ATOM     12  C   UNL     1      -2.933   2.889  -4.066  0.00  0.00    +0.008 A 
ENDBRANCH   3   7
TORSDOF 1
ENDMDL
MODEL 5
REMARK VINA RESULT:    -3.105      1.955      2.541
REMARK INTER + INTRA:          -3.457
REMARK INTER:                  -3.254
REMARK INTRA:                  -0.203
REMARK UNBOUND:                -0.170
REMARK  Name = Nicotine.pdb
REMARK  2 active torsions:
REMARK  status: ('A' for Active; 'I' for Inactive)
REMARK    1  A    between atoms: C_3  and  C_6
REMARK    2  A    between atoms: N_4  and  C_12
REMARK                            x       y       z     vdW  Elec       q    Type
REMARK                         _______ _______ _______ _____ _____    ______ ____
ROOT
ATOM      1  C   UNL     1      -1.981   2.146  -6.009  0.00  0.00    +0.017 C 
ATOM      2  C   UNL     1      -2.193   2.570  -4.531  0.00  0.00    +0.025 C 
ATOM      3  C   UNL     1      -3.667   3.026  -4.509  0.00  0.00    +0.088 C 
ATOM      4  N   UNL     1      -4.037   3.376  -5.893  0.00  0.00    -0.298 NA
ATOM      5  C   UNL     1      -2.855   3.182  -6.760  0.00  0.00    +0.085 C 
ATOM      6  C   UNL     1      -5.170   2.566  -6.357  0.00  0.00    +0.105 C 
ENDROOT
BRANCH   3   7
ATOM      7  C   UNL     1      -3.818   4.230  -3.617  0.00  0.00    -0.012 A 
ATOM      8  C   UNL     1      -4.532   4.141  -2.437  0.00  0.00    +0.115 A 
ATOM      9  N   UNL     1      -4.668   5.190  -1.649  0.00  0.00    -0.263 NA
ATOM     10  C   UNL     1      -4.135   6.357  -1.952  0.00  0.00    +0.111 A 
ATOM     11  C   UNL     1      -3.406   6.523  -3.115  0.00  0.00    +0.020 A 
ATOM     12  C   UNL     1      -3.237   5.441  -3.965  0.00  0.00    +0.008 A 
ENDBRANCH   3   7
TORSDOF 1
ENDMDL
MODEL 6
REMARK VINA RESULT:    -2.971      1.566      4.548
REMARK INTER + INTRA:          -3.315
REMARK INTER:                  -3.099
REMARK INTRA:                  -0.215
REMARK UNBOUND:                -0.170
REMARK  Name = Nicotine.pdb
REMARK  2 active torsions:
REMARK  status: ('A' for Active; 'I' for Inactive)
REMARK    1  A    between atoms: C_3  and  C_6
REMARK    2  A    between atoms: N_4  and  C_12
REMARK                            x       y       z     vdW  Elec       q    Type
REMARK                         _______ _______ _______ _____ _____    ______ ____
ROOT
ATOM      1  C   UNL     1      -3.843   2.578  -1.583  0.00  0.00    +0.017 C 
ATOM      2  C   UNL     1      -2.980   2.987  -2.806  0.00  0.00    +0.025 C 
ATOM      3  C   UNL     1      -3.419   4.443  -3.069  0.00  0.00    +0.088 C 
ATOM      4  N   UNL     1      -4.756   4.612  -2.470  0.00  0.00    -0.298 NA
ATOM      5  C   UNL     1      -5.170   3.324  -1.874  0.00  0.00    +0.085 C 
ATOM      6  C   UNL     1      -4.751   5.681  -1.464  0.00  0.00    +0.105 C 
ENDROOT
BRANCH   3   7
ATOM      7  C   UNL     1      -3.485   4.698  -4.553  0.00  0.00    -0.012 A 
ATOM      8  C   UNL     1      -3.568   3.642  -5.441  0.00  0.00    +0.115 A 
ATOM      9  N   UNL     1      -3.626   3.856  -6.741  0.00  0.00    -0.263 NA
ATOM     10  C   UNL     1      -3.607   5.075  -7.244  0.00  0.00    +0.111 A 
ATOM     11  C   UNL     1      -3.526   6.180  -6.417  0.00  0.00    +0.020 A 
ATOM     12  C   UNL     1      -3.469   5.994  -5.045  0.00  0.00    +0.008 A 
ENDBRANCH   3   7
TORSDOF 1
ENDMDL
MODEL 7
REMARK VINA RESULT:    -2.329      2.063      3.074
REMARK INTER + INTRA:          -2.635
REMARK INTER:                  -2.379
REMARK INTRA:                  -0.256
REMARK UNBOUND:                -0.170
REMARK  Name = Nicotine.pdb
REMARK  2 active torsions:
REMARK  status: ('A' for Active; 'I' for Inactive)
REMARK    1  A    between atoms: C_3  and  C_6
REMARK    2  A    between atoms: N_4  and  C_12
REMARK                            x       y       z     vdW  Elec       q    Type
REMARK                         _______ _______ _______ _____ _____    ______ ____
ROOT
ATOM      1  C   UNL     1      -3.748   5.111  -5.548  0.00  0.00    +0.017 C 
ATOM      2  C   UNL     1      -3.297   5.441  -4.100  0.00  0.00    +0.025 C 
ATOM      3  C   UNL     1      -3.722   4.184  -3.311  0.00  0.00    +0.088 C 
ATOM      4  N   UNL     1      -4.788   3.522  -4.083  0.00  0.00    -0.298 NA
ATOM      5  C   UNL     1      -5.058   4.323  -5.296  0.00  0.00    +0.085 C 
ATOM      6  C   UNL     1      -4.410   2.147  -4.433  0.00  0.00    +0.105 C 
ENDROOT
BRANCH   3   7
ATOM      7  C   UNL     1      -4.242   4.583  -1.954  0.00  0.00    -0.012 A 
ATOM      8  C   UNL     1      -4.353   3.646  -0.944  0.00  0.00    +0.115 A 
ATOM      9  N   UNL     1      -4.807   3.987   0.246  0.00  0.00    -0.263 NA
ATOM     10  C   UNL     1      -5.171   5.224   0.521  0.00  0.00    +0.111 A 
ATOM     11  C   UNL     1      -5.088   6.216  -0.439  0.00  0.00    +0.020 A 
ATOM     12  C   UNL     1      -4.610   5.896  -1.700  0.00  0.00    +0.008 A 
ENDBRANCH   3   7
TORSDOF 1
ENDMDL
MODEL 8
REMARK VINA RESULT:    -2.312      2.544      5.528
REMARK INTER + INTRA:          -2.617
REMARK INTER:                  -2.415
REMARK INTRA:                  -0.202
REMARK UNBOUND:                -0.170
REMARK  Name = Nicotine.pdb
REMARK  2 active torsions:
REMARK  status: ('A' for Active; 'I' for Inactive)
REMARK    1  A    between atoms: C_3  and  C_6
REMARK    2  A    between atoms: N_4  and  C_12
REMARK                            x       y       z     vdW  Elec       q    Type
REMARK                         _______ _______ _______ _____ _____    ______ ____
ROOT
ATOM      1  C   UNL     1      -4.689   6.944  -0.052  0.00  0.00    +0.017 C 
ATOM      2  C   UNL     1      -5.124   7.027  -1.539  0.00  0.00    +0.025 C 
ATOM      3  C   UNL     1      -4.856   5.599  -2.059  0.00  0.00    +0.088 C 
ATOM      4  N   UNL     1      -3.856   4.988  -1.164  0.00  0.00    -0.298 NA
ATOM      5  C   UNL     1      -3.479   5.980  -0.134  0.00  0.00    +0.085 C 
ATOM      6  C   UNL     1      -4.380   3.762  -0.549  0.00  0.00    +0.105 C 
ENDROOT
BRANCH   3   7
ATOM      7  C   UNL     1      -4.317   5.658  -3.465  0.00  0.00    -0.012 A 
ATOM      8  C   UNL     1      -4.144   6.876  -4.097  0.00  0.00    +0.115 A 
ATOM      9  N   UNL     1      -3.673   6.937  -5.327  0.00  0.00    -0.263 NA
ATOM     10  C   UNL     1      -3.352   5.850  -6.001  0.00  0.00    +0.111 A 
ATOM     11  C   UNL     1      -3.498   4.597  -5.435  0.00  0.00    +0.020 A 
ATOM     12  C   UNL     1      -3.985   4.494  -4.141  0.00  0.00    +0.008 A 
ENDBRANCH   3   7
TORSDOF 1
ENDMDL
