MODEL 1
REMARK VINA RESULT:    -2.930      0.000      0.000
REMARK INTER + INTRA:          -3.315
REMARK INTER:                  -3.101
REMARK INTRA:                  -0.213
REMARK UNBOUND:                -0.213
REMARK  Name = Nicotine.pdb
REMARK  2 active torsions:
REMARK  status: ('A' for Active; 'I' for Inactive)
REMARK    1  A    between atoms: C_3  and  C_6
REMARK    2  A    between atoms: N_4  and  C_12
REMARK                            x       y       z     vdW  Elec       q    Type
REMARK                         _______ _______ _______ _____ _____    ______ ____
ROOT
ATOM      1  C   UNL     1       8.238  -2.647   5.928  0.00  0.00    +0.017 C 
ATOM      2  C   UNL     1       7.933  -1.337   5.154  0.00  0.00    +0.025 C 
ATOM      3  C   UNL     1       9.231  -1.096   4.355  0.00  0.00    +0.088 C 
ATOM      4  N   UNL     1      10.310  -1.824   5.045  0.00  0.00    -0.298 NA
ATOM      5  C   UNL     1       9.745  -2.480   6.244  0.00  0.00    +0.085 C 
ATOM      6  C   UNL     1      10.937  -2.808   4.153  0.00  0.00    +0.105 C 
ENDROOT
BRANCH   3   7
ATOM      7  C   UNL     1       9.545   0.377   4.319  0.00  0.00    -0.012 A 
ATOM      8  C   UNL     1       9.195   1.192   5.379  0.00  0.00    +0.115 A 
ATOM      9  N   UNL     1       9.466   2.483   5.356  0.00  0.00    -0.263 NA
ATOM     10  C   UNL     1      10.077   3.044   4.331  0.00  0.00    +0.111 A 
ATOM     11  C   UNL     1      10.458   2.292   3.236  0.00  0.00    +0.020 A 
ATOM     12  C   UNL     1      10.194   0.931   3.226  0.00  0.00    +0.008 A 
ENDBRANCH   3   7
TORSDOF 1
ENDMDL
MODEL 2
REMARK VINA RESULT:    -2.734      2.057      3.285
REMARK INTER + INTRA:          -3.107
REMARK INTER:                  -2.851
REMARK INTRA:                  -0.256
REMARK UNBOUND:                -0.213
REMARK  Name = Nicotine.pdb
REMARK  2 active torsions:
REMARK  status: ('A' for Active; 'I' for Inactive)
REMARK    1  A    between atoms: C_3  and  C_6
REMARK    2  A    between atoms: N_4  and  C_12
REMARK                            x       y       z     vdW  Elec       q    Type
REMARK                         _______ _______ _______ _____ _____    ______ ____
ROOT
ATOM      1  C   UNL     1       9.902  -1.436   4.712  0.00  0.00    +0.017 C 
ATOM      2  C   UNL     1      10.911  -0.721   3.774  0.00  0.00    +0.025 C 
ATOM      3  C   UNL     1      10.572   0.772   3.973  0.00  0.00    +0.088 C 
ATOM      4  N   UNL     1       9.189   0.842   4.478  0.00  0.00    -0.298 NA
ATOM      5  C   UNL     1       8.652  -0.532   4.574  0.00  0.00    +0.085 C 
ATOM      6  C   UNL     1       9.136   1.521   5.779  0.00  0.00    +0.105 C 
ENDROOT
BRANCH   3   7
ATOM      7  C   UNL     1      10.678   1.501   2.659  0.00  0.00    -0.012 A 
ATOM      8  C   UNL     1      10.859   2.871   2.633  0.00  0.00    +0.115 A 
ATOM      9  N   UNL     1      10.953   3.517   1.487  0.00  0.00    -0.263 NA
ATOM     10  C   UNL     1      10.878   2.890   0.330  0.00  0.00    +0.111 A 
ATOM     11  C   UNL     1      10.698   1.520   0.277  0.00  0.00    +0.020 A 
ATOM     12  C   UNL     1      10.600   0.807   1.461  0.00  0.00    +0.008 A 
ENDBRANCH   3   7
TORSDOF 1
ENDMDL
MODEL 3
REMARK VINA RESULT:    -1.454      2.204      3.834
REMARK INTER + INTRA:          -1.753
REMARK INTER:                  -1.569
REMARK INTRA:                  -0.184
REMARK UNBOUND:                -0.213
REMARK  Name = Nicotine.pdb
REMARK  2 active torsions:
REMARK  status: ('A' for Active; 'I' for Inactive)
REMARK    1  A    between atoms: C_3  and  C_6
REMARK    2  A    between atoms: N_4  and  C_12
REMARK                            x       y       z     vdW  Elec       q    Type
REMARK                         _______ _______ _______ _____ _____    ______ ____
ROOT
ATOM      1  C   UNL     1       9.153  -0.272   3.821  0.00  0.00    +0.017 C 
ATOM      2  C   UNL     1      10.058   0.473   2.805  0.00  0.00    +0.025 C 
ATOM      3  C   UNL     1      10.675   1.605   3.654  0.00  0.00    +0.088 C 
ATOM      4  N   UNL     1       9.782   1.823   4.806  0.00  0.00    -0.298 NA
ATOM      5  C   UNL     1       8.634   0.898   4.694  0.00  0.00    +0.085 C 
ATOM      6  C   UNL     1      10.498   1.622   6.073  0.00  0.00    +0.105 C 
ENDROOT
BRANCH   3   7
ATOM      7  C   UNL     1      10.773   2.866   2.835  0.00  0.00    -0.012 A 
ATOM      8  C   UNL     1      10.864   2.799   1.457  0.00  0.00    +0.115 A 
ATOM      9  N   UNL     1      10.951   3.897   0.733  0.00  0.00    -0.263 NA
ATOM     10  C   UNL     1      10.954   5.094   1.286  0.00  0.00    +0.111 A 
ATOM     11  C   UNL     1      10.866   5.240   2.658  0.00  0.00    +0.020 A 
ATOM     12  C   UNL     1      10.768   4.107   3.452  0.00  0.00    +0.008 A 
ENDBRANCH   3   7
TORSDOF 1
ENDMDL
MODEL 4
REMARK VINA RESULT:    -0.698      9.508     11.669
REMARK INTER + INTRA:          -0.952
REMARK INTER:                  -0.735
REMARK INTRA:                  -0.217
REMARK UNBOUND:                -0.213
REMARK  Name = Nicotine.pdb
REMARK  2 active torsions:
REMARK  status: ('A' for Active; 'I' for Inactive)
REMARK    1  A    between atoms: C_3  and  C_6
REMARK    2  A    between atoms: N_4  and  C_12
REMARK                            x       y       z     vdW  Elec       q    Type
REMARK                         _______ _______ _______ _____ _____    ______ ____
ROOT
ATOM      1  C   UNL     1       8.653   4.504  -7.143  0.00  0.00    +0.017 C 
ATOM      2  C   UNL     1       8.154   5.216  -5.857  0.00  0.00    +0.025 C 
ATOM      3  C   UNL     1       9.255   6.265  -5.592  0.00  0.00    +0.088 C 
ATOM      4  N   UNL     1      10.476   5.799  -6.275  0.00  0.00    -0.298 NA
ATOM      5  C   UNL     1      10.186   4.503  -6.925  0.00  0.00    +0.085 C 
ATOM      6  C   UNL     1      10.941   6.789  -7.255  0.00  0.00    +0.105 C 
ENDROOT
BRANCH   3   7
ATOM      7  C   UNL     1       9.507   6.381  -4.111  0.00  0.00    -0.012 A 
ATOM      8  C   UNL     1      10.725   6.004  -3.578  0.00  0.00    +0.115 A 
ATOM      9  N   UNL     1      10.954   6.102  -2.283  0.00  0.00    -0.263 NA
ATOM     10  C   UNL     1      10.040   6.559  -1.450  0.00  0.00    +0.111 A 
ATOM     11  C   UNL     1       8.798   6.956  -1.911  0.00  0.00    +0.020 A 
ATOM     12  C   UNL     1       8.523   6.872  -3.267  0.00  0.00    +0.008 A 
ENDBRANCH   3   7
TORSDOF 1
ENDMDL
MODEL 5
REMARK VINA RESULT:    -0.518      4.237      7.326
REMARK INTER + INTRA:          -0.761
REMARK INTER:                  -0.576
REMARK INTRA:                  -0.185
REMARK UNBOUND:                -0.213
REMARK  Name = Nicotine.pdb
REMARK  2 active torsions:
REMARK  status: ('A' for Active; 'I' for Inactive)
REMARK    1  A    between atoms: C_3  and  C_6
REMARK    2  A    between atoms: N_4  and  C_12
REMARK                            x       y       z     vdW  Elec       q    Type
REMARK                         _______ _______ _______ _____ _____    ______ ____
ROOT
ATOM      1  C   UNL     1       9.751   7.027   0.335  0.00  0.00    +0.017 C 
ATOM      2  C   UNL     1      10.496   6.020   1.251  0.00  0.00    +0.025 C 
ATOM      3  C   UNL     1      10.954   4.925   0.264  0.00  0.00    +0.088 C 
ATOM      4  N   UNL     1      10.075   5.006  -0.916  0.00  0.00    -0.298 NA
ATOM      5  C   UNL     1       9.083   6.079  -0.693  0.00  0.00    +0.085 C 
ATOM      6  C   UNL     1      10.853   5.253  -2.137  0.00  0.00    +0.105 C 
ENDROOT
BRANCH   3   7
ATOM      7  C   UNL     1      10.827   3.569   0.908  0.00  0.00    -0.012 A 
ATOM      8  C   UNL     1      10.749   3.453   2.283  0.00  0.00    +0.115 A 
ATOM      9  N   UNL     1      10.637   2.270   2.855  0.00  0.00    -0.263 NA
ATOM     10  C   UNL     1      10.597   1.159   2.146  0.00  0.00    +0.111 A 
ATOM     11  C   UNL     1      10.670   1.196   0.766  0.00  0.00    +0.020 A 
ATOM     12  C   UNL     1      10.782   2.423   0.130  0.00  0.00    +0.008 A 
ENDBRANCH   3   7
TORSDOF 1
ENDMDL
MODEL 6
REMARK VINA RESULT:    -0.078      1.432      2.027
REMARK INTER + INTRA:          -0.296
REMARK INTER:                  -0.052
REMARK INTRA:                  -0.244
REMARK UNBOUND:                -0.213
REMARK  Name = Nicotine.pdb
REMARK  2 active torsions:
REMARK  status: ('A' for Active; 'I' for Inactive)
REMARK    1  A    between atoms: C_3  and  C_6
REMARK    2  A    between atoms: N_4  and  C_12
REMARK                            x       y       z     vdW  Elec       q    Type
REMARK                         _______ _______ _______ _____ _____    ______ ____
ROOT
ATOM      1  C   UNL     1       8.224  -1.212   5.181  0.00  0.00    +0.017 C 
ATOM      2  C   UNL     1       8.124   0.205   4.557  0.00  0.00    +0.025 C 
ATOM      3  C   UNL     1       9.457   0.341   3.790  0.00  0.00    +0.088 C 
ATOM      4  N   UNL     1      10.408  -0.607   4.397  0.00  0.00    -0.298 NA
ATOM      5  C   UNL     1       9.734  -1.301   5.514  0.00  0.00    +0.085 C 
ATOM      6  C   UNL     1      10.902  -1.567   3.401  0.00  0.00    +0.105 C 
ENDROOT
BRANCH   3   7
ATOM      7  C   UNL     1       9.980   1.748   3.919  0.00  0.00    -0.012 A 
ATOM      8  C   UNL     1      10.494   2.406   2.818  0.00  0.00    +0.115 A 
ATOM      9  N   UNL     1      10.954   3.638   2.921  0.00  0.00    -0.263 NA
ATOM     10  C   UNL     1      10.944   4.287   4.069  0.00  0.00    +0.111 A 
ATOM     11  C   UNL     1      10.445   3.693   5.213  0.00  0.00    +0.020 A 
ATOM     12  C   UNL     1       9.948   2.401   5.142  0.00  0.00    +0.008 A 
ENDBRANCH   3   7
TORSDOF 1
ENDMDL
