MODEL 1
REMARK VINA RESULT:     0.000      0.000      0.000
REMARK INTER + INTRA:          -0.256
REMARK INTER:                   0.000
REMARK INTRA:                  -0.256
REMARK UNBOUND:                -0.256
REMARK  Name = Nicotine.pdb
REMARK  2 active torsions:
REMARK  status: ('A' for Active; 'I' for Inactive)
REMARK    1  A    between atoms: C_3  and  C_6
REMARK    2  A    between atoms: N_4  and  C_12
REMARK                            x       y       z     vdW  Elec       q    Type
REMARK                         _______ _______ _______ _____ _____    ______ ____
ROOT
ATOM      1  C   UNL     1       0.938  -2.188  -0.236  0.00  0.00    +0.017 C 
ATOM      2  C   UNL     1       1.781  -1.077  -0.915  0.00  0.00    +0.025 C 
ATOM      3  C   UNL     1       2.061  -0.096   0.244  0.00  0.00    +0.088 C 
ATOM      4  N   UNL     1       1.022  -0.318   1.265  0.00  0.00    -0.298 NA
ATOM      5  C   UNL     1       0.102  -1.370   0.780  0.00  0.00    +0.085 C 
ATOM      6  C   UNL     1       1.620  -0.694   2.552  0.00  0.00    +0.105 C 
ENDROOT
BRANCH   3   7
ATOM      7  C   UNL     1       1.993   1.323  -0.258  0.00  0.00    -0.012 A 
ATOM      8  C   UNL     1       2.618   2.341   0.437  0.00  0.00    +0.115 A 
ATOM      9  N   UNL     1       2.564   3.586   0.005  0.00  0.00    -0.263 NA
ATOM     10  C   UNL     1       1.917   3.909  -1.098  0.00  0.00    +0.111 A 
ATOM     11  C   UNL     1       1.269   2.944  -1.846  0.00  0.00    +0.020 A 
ATOM     12  C   UNL     1       1.308   1.624  -1.426  0.00  0.00    +0.008 A 
ENDBRANCH   3   7
TORSDOF 1
ENDMDL
MODEL 2
REMARK VINA RESULT:     0.000      2.977      3.901
REMARK INTER + INTRA:          -0.256
REMARK INTER:                   0.000
REMARK INTRA:                  -0.256
REMARK UNBOUND:                -0.256
REMARK  Name = Nicotine.pdb
REMARK  2 active torsions:
REMARK  status: ('A' for Active; 'I' for Inactive)
REMARK    1  A    between atoms: C_3  and  C_6
REMARK    2  A    between atoms: N_4  and  C_12
REMARK                            x       y       z     vdW  Elec       q    Type
REMARK                         _______ _______ _______ _____ _____    ______ ____
ROOT
ATOM      1  C   UNL     1       1.024  -3.940  -1.959  0.00  0.00    +0.017 C 
ATOM      2  C   UNL     1       0.235  -2.921  -2.822  0.00  0.00    +0.025 C 
ATOM      3  C   UNL     1       0.633  -1.562  -2.206  0.00  0.00    +0.088 C 
ATOM      4  N   UNL     1       1.091  -1.824  -0.830  0.00  0.00    -0.298 NA
ATOM      5  C   UNL     1       0.971  -3.273  -0.561  0.00  0.00    +0.085 C 
ATOM      6  C   UNL     1       2.473  -1.366  -0.638  0.00  0.00    +0.105 C 
ENDROOT
BRANCH   3   7
ATOM      7  C   UNL     1      -0.559  -0.641  -2.184  0.00  0.00    -0.012 A 
ATOM      8  C   UNL     1      -0.383   0.728  -2.103  0.00  0.00    +0.115 A 
ATOM      9  N   UNL     1      -1.420   1.541  -2.083  0.00  0.00    -0.263 NA
ATOM     10  C   UNL     1      -2.657   1.089  -2.140  0.00  0.00    +0.111 A 
ATOM     11  C   UNL     1      -2.911  -0.268  -2.223  0.00  0.00    +0.020 A 
ATOM     12  C   UNL     1      -1.845  -1.153  -2.251  0.00  0.00    +0.008 A 
ENDBRANCH   3   7
TORSDOF 1
ENDMDL
MODEL 3
REMARK VINA RESULT:     0.000      7.357      8.754
REMARK INTER + INTRA:          -0.256
REMARK INTER:                   0.000
REMARK INTRA:                  -0.256
REMARK UNBOUND:                -0.256
REMARK  Name = Nicotine.pdb
REMARK  2 active torsions:
REMARK  status: ('A' for Active; 'I' for Inactive)
REMARK    1  A    between atoms: C_3  and  C_6
REMARK    2  A    between atoms: N_4  and  C_12
REMARK                            x       y       z     vdW  Elec       q    Type
REMARK                         _______ _______ _______ _____ _____    ______ ____
ROOT
ATOM      1  C   UNL     1       9.644   1.177  -3.955  0.00  0.00    +0.017 C 
ATOM      2  C   UNL     1       9.258   0.142  -5.044  0.00  0.00    +0.025 C 
ATOM      3  C   UNL     1       7.818   0.552  -5.417  0.00  0.00    +0.088 C 
ATOM      4  N   UNL     1       7.271   1.314  -4.280  0.00  0.00    -0.298 NA
ATOM      5  C   UNL     1       8.296   1.371  -3.216  0.00  0.00    +0.085 C 
ATOM      6  C   UNL     1       6.867   2.663  -4.695  0.00  0.00    +0.105 C 
ENDROOT
BRANCH   3   7
ATOM      7  C   UNL     1       6.982  -0.678  -5.661  0.00  0.00    -0.012 A 
ATOM      8  C   UNL     1       5.826  -0.600  -6.414  0.00  0.00    +0.115 A 
ATOM      9  N   UNL     1       5.089  -1.671  -6.632  0.00  0.00    -0.263 NA
ATOM     10  C   UNL     1       5.420  -2.851  -6.145  0.00  0.00    +0.111 A 
ATOM     11  C   UNL     1       6.562  -3.007  -5.383  0.00  0.00    +0.020 A 
ATOM     12  C   UNL     1       7.365  -1.903  -5.137  0.00  0.00    +0.008 A 
ENDBRANCH   3   7
TORSDOF 1
ENDMDL
MODEL 4
REMARK VINA RESULT:     0.000      2.115      4.509
REMARK INTER + INTRA:          -0.256
REMARK INTER:                   0.000
REMARK INTRA:                  -0.256
REMARK UNBOUND:                -0.256
REMARK  Name = Nicotine.pdb
REMARK  2 active torsions:
REMARK  status: ('A' for Active; 'I' for Inactive)
REMARK    1  A    between atoms: C_3  and  C_6
REMARK    2  A    between atoms: N_4  and  C_12
REMARK                            x       y       z     vdW  Elec       q    Type
REMARK                         _______ _______ _______ _____ _____    ______ ____
ROOT
ATOM      1  C   UNL     1       1.243   2.345  -0.692  0.00  0.00    +0.017 C 
ATOM      2  C   UNL     1       2.357   2.214   0.381  0.00  0.00    +0.025 C 
ATOM      3  C   UNL     1       3.077   0.910  -0.024  0.00  0.00    +0.088 C 
ATOM      4  N   UNL     1       2.129   0.120  -0.831  0.00  0.00    -0.298 NA
ATOM      5  C   UNL     1       0.854   0.863  -0.921  0.00  0.00    +0.085 C 
ATOM      6  C   UNL     1       2.675  -0.153  -2.167  0.00  0.00    +0.105 C 
ENDROOT
BRANCH   3   7
ATOM      7  C   UNL     1       3.470   0.138   1.208  0.00  0.00    -0.012 A 
ATOM      8  C   UNL     1       4.480  -0.804   1.151  0.00  0.00    +0.115 A 
ATOM      9  N   UNL     1       4.830  -1.484   2.225  0.00  0.00    -0.263 NA
ATOM     10  C   UNL     1       4.238  -1.296   3.388  0.00  0.00    +0.111 A 
ATOM     11  C   UNL     1       3.221  -0.370   3.523  0.00  0.00    +0.020 A 
ATOM     12  C   UNL     1       2.829   0.367   2.416  0.00  0.00    +0.008 A 
ENDBRANCH   3   7
TORSDOF 1
ENDMDL
MODEL 5
REMARK VINA RESULT:     0.000      5.549      7.605
REMARK INTER + INTRA:          -0.256
REMARK INTER:                   0.000
REMARK INTRA:                  -0.256
REMARK UNBOUND:                -0.256
REMARK  Name = Nicotine.pdb
REMARK  2 active torsions:
REMARK  status: ('A' for Active; 'I' for Inactive)
REMARK    1  A    between atoms: C_3  and  C_6
REMARK    2  A    between atoms: N_4  and  C_12
REMARK                            x       y       z     vdW  Elec       q    Type
REMARK                         _______ _______ _______ _____ _____    ______ ____
ROOT
ATOM      1  C   UNL     1       3.105   0.296  -3.936  0.00  0.00    +0.017 C 
ATOM      2  C   UNL     1       4.027  -0.826  -4.482  0.00  0.00    +0.025 C 
ATOM      3  C   UNL     1       3.073  -1.661  -5.363  0.00  0.00    +0.088 C 
ATOM      4  N   UNL     1       1.701  -1.398  -4.893  0.00  0.00    -0.298 NA
ATOM      5  C   UNL     1       1.766  -0.462  -3.750  0.00  0.00    +0.085 C 
ATOM      6  C   UNL     1       0.869  -0.853  -5.973  0.00  0.00    +0.105 C 
ENDROOT
BRANCH   3   7
ATOM      7  C   UNL     1       3.394  -3.126  -5.219  0.00  0.00    -0.012 A 
ATOM      8  C   UNL     1       3.008  -4.025  -6.195  0.00  0.00    +0.115 A 
ATOM      9  N   UNL     1       3.285  -5.309  -6.077  0.00  0.00    -0.263 NA
ATOM     10  C   UNL     1       3.935  -5.785  -5.033  0.00  0.00    +0.111 A 
ATOM     11  C   UNL     1       4.353  -4.946  -4.018  0.00  0.00    +0.020 A 
ATOM     12  C   UNL     1       4.085  -3.589  -4.110  0.00  0.00    +0.008 A 
ENDBRANCH   3   7
TORSDOF 1
ENDMDL
MODEL 6
REMARK VINA RESULT:     0.000      3.095      4.343
REMARK INTER + INTRA:          -0.256
REMARK INTER:                   0.000
REMARK INTRA:                  -0.256
REMARK UNBOUND:                -0.256
REMARK  Name = Nicotine.pdb
REMARK  2 active torsions:
REMARK  status: ('A' for Active; 'I' for Inactive)
REMARK    1  A    between atoms: C_3  and  C_6
REMARK    2  A    between atoms: N_4  and  C_12
REMARK                            x       y       z     vdW  Elec       q    Type
REMARK                         _______ _______ _______ _____ _____    ______ ____
ROOT
ATOM      1  C   UNL     1       2.807  -0.465   4.114  0.00  0.00    +0.017 C 
ATOM      2  C   UNL     1       1.431  -0.832   3.497  0.00  0.00    +0.025 C 
ATOM      3  C   UNL     1       1.812  -1.785   2.344  0.00  0.00    +0.088 C 
ATOM      4  N   UNL     1       3.216  -1.508   1.993  0.00  0.00    -0.298 NA
ATOM      5  C   UNL     1       3.710  -0.414   2.857  0.00  0.00    +0.085 C 
ATOM      6  C   UNL     1       4.044  -2.712   2.142  0.00  0.00    +0.105 C 
ENDROOT
BRANCH   3   7
ATOM      7  C   UNL     1       0.924  -1.528   1.154  0.00  0.00    -0.012 A 
ATOM      8  C   UNL     1       0.756  -2.500   0.185  0.00  0.00    +0.115 A 
ATOM      9  N   UNL     1      -0.019  -2.284  -0.860  0.00  0.00    -0.263 NA
ATOM     10  C   UNL     1      -0.659  -1.143  -1.024  0.00  0.00    +0.111 A 
ATOM     11  C   UNL     1      -0.540  -0.125  -0.096  0.00  0.00    +0.020 A 
ATOM     12  C   UNL     1       0.262  -0.318   1.018  0.00  0.00    +0.008 A 
ENDBRANCH   3   7
TORSDOF 1
ENDMDL
MODEL 7
REMARK VINA RESULT:     0.000      2.708      3.804
REMARK INTER + INTRA:          -0.256
REMARK INTER:                   0.000
REMARK INTRA:                  -0.256
REMARK UNBOUND:                -0.256
REMARK  Name = Nicotine.pdb
REMARK  2 active torsions:
REMARK  status: ('A' for Active; 'I' for Inactive)
REMARK    1  A    between atoms: C_3  and  C_6
REMARK    2  A    between atoms: N_4  and  C_12
REMARK                            x       y       z     vdW  Elec       q    Type
REMARK                         _______ _______ _______ _____ _____    ______ ____
ROOT
ATOM      1  C   UNL     1       2.595   0.453  -0.586  0.00  0.00    +0.017 C 
ATOM      2  C   UNL     1       1.888   0.935   0.708  0.00  0.00    +0.025 C 
ATOM      3  C   UNL     1       0.602   1.600   0.174  0.00  0.00    +0.088 C 
ATOM      4  N   UNL     1       0.852   1.969  -1.231  0.00  0.00    -0.298 NA
ATOM      5  C   UNL     1       2.238   1.587  -1.579  0.00  0.00    +0.085 C 
ATOM      6  C   UNL     1      -0.114   1.321  -2.127  0.00  0.00    +0.105 C 
ENDROOT
BRANCH   3   7
ATOM      7  C   UNL     1       0.288   2.832   0.981  0.00  0.00    -0.012 A 
ATOM      8  C   UNL     1      -0.995   3.345   1.005  0.00  0.00    +0.115 A 
ATOM      9  N   UNL     1      -1.278   4.423   1.710  0.00  0.00    -0.263 NA
ATOM     10  C   UNL     1      -0.358   5.052   2.414  0.00  0.00    +0.111 A 
ATOM     11  C   UNL     1       0.947   4.598   2.439  0.00  0.00    +0.020 A 
ATOM     12  C   UNL     1       1.281   3.464   1.715  0.00  0.00    +0.008 A 
ENDBRANCH   3   7
TORSDOF 1
ENDMDL
MODEL 8
REMARK VINA RESULT:     0.000      2.504      5.081
REMARK INTER + INTRA:          -0.256
REMARK INTER:                   0.000
REMARK INTRA:                  -0.256
REMARK UNBOUND:                -0.256
REMARK  Name = Nicotine.pdb
REMARK  2 active torsions:
REMARK  status: ('A' for Active; 'I' for Inactive)
REMARK    1  A    between atoms: C_3  and  C_6
REMARK    2  A    between atoms: N_4  and  C_12
REMARK                            x       y       z     vdW  Elec       q    Type
REMARK                         _______ _______ _______ _____ _____    ______ ____
ROOT
ATOM      1  C   UNL     1       3.425   2.808  -0.150  0.00  0.00    +0.017 C 
ATOM      2  C   UNL     1       3.264   1.469   0.615  0.00  0.00    +0.025 C 
ATOM      3  C   UNL     1       4.187   0.509  -0.165  0.00  0.00    +0.088 C 
ATOM      4  N   UNL     1       4.361   1.072  -1.516  0.00  0.00    -0.298 NA
ATOM      5  C   UNL     1       3.570   2.317  -1.613  0.00  0.00    +0.085 C 
ATOM      6  C   UNL     1       5.779   1.325  -1.803  0.00  0.00    +0.105 C 
ENDROOT
BRANCH   3   7
ATOM      7  C   UNL     1       3.552  -0.854  -0.254  0.00  0.00    -0.012 A 
ATOM      8  C   UNL     1       4.327  -1.972  -0.498  0.00  0.00    +0.115 A 
ATOM      9  N   UNL     1       3.780  -3.169  -0.577  0.00  0.00    -0.263 NA
ATOM     10  C   UNL     1       2.482  -3.348  -0.430  0.00  0.00    +0.111 A 
ATOM     11  C   UNL     1       1.643  -2.277  -0.183  0.00  0.00    +0.020 A 
ATOM     12  C   UNL     1       2.184  -1.004  -0.088  0.00  0.00    +0.008 A 
ENDBRANCH   3   7
TORSDOF 1
ENDMDL
MODEL 9
REMARK VINA RESULT:     0.000      4.293      5.829
REMARK INTER + INTRA:          -0.256
REMARK INTER:                   0.000
REMARK INTRA:                  -0.256
REMARK UNBOUND:                -0.256
REMARK  Name = Nicotine.pdb
REMARK  2 active torsions:
REMARK  status: ('A' for Active; 'I' for Inactive)
REMARK    1  A    between atoms: C_3  and  C_6
REMARK    2  A    between atoms: N_4  and  C_12
REMARK                            x       y       z     vdW  Elec       q    Type
REMARK                         _______ _______ _______ _____ _____    ______ ____
ROOT
ATOM      1  C   UNL     1       3.453   1.597  -3.285  0.00  0.00    +0.017 C 
ATOM      2  C   UNL     1       4.332   1.690  -2.010  0.00  0.00    +0.025 C 
ATOM      3  C   UNL     1       4.377   3.208  -1.731  0.00  0.00    +0.088 C 
ATOM      4  N   UNL     1       4.078   3.895  -3.000  0.00  0.00    -0.298 NA
ATOM      5  C   UNL     1       3.876   2.875  -4.051  0.00  0.00    +0.085 C 
ATOM      6  C   UNL     1       2.897   4.756  -2.867  0.00  0.00    +0.105 C 
ENDROOT
BRANCH   3   7
ATOM      7  C   UNL     1       5.749   3.599  -1.245  0.00  0.00    -0.012 A 
ATOM      8  C   UNL     1       5.930   4.765  -0.526  0.00  0.00    +0.115 A 
ATOM      9  N   UNL     1       7.128   5.114  -0.098  0.00  0.00    -0.263 NA
ATOM     10  C   UNL     1       8.192   4.373  -0.335  0.00  0.00    +0.111 A 
ATOM     11  C   UNL     1       8.088   3.193  -1.047  0.00  0.00    +0.020 A 
ATOM     12  C   UNL     1       6.845   2.791  -1.509  0.00  0.00    +0.008 A 
ENDBRANCH   3   7
TORSDOF 1
ENDMDL
MODEL 10
REMARK VINA RESULT:     0.000      2.868      4.003
REMARK INTER + INTRA:          -0.256
REMARK INTER:                   0.000
REMARK INTRA:                  -0.256
REMARK UNBOUND:                -0.256
REMARK  Name = Nicotine.pdb
REMARK  2 active torsions:
REMARK  status: ('A' for Active; 'I' for Inactive)
REMARK    1  A    between atoms: C_3  and  C_6
REMARK    2  A    between atoms: N_4  and  C_12
REMARK                            x       y       z     vdW  Elec       q    Type
REMARK                         _______ _______ _______ _____ _____    ______ ____
ROOT
ATOM      1  C   UNL     1      -1.617   2.490   1.874  0.00  0.00    +0.017 C 
ATOM      2  C   UNL     1      -0.168   2.697   1.359  0.00  0.00    +0.025 C 
ATOM      3  C   UNL     1       0.494   1.328   1.621  0.00  0.00    +0.088 C 
ATOM      4  N   UNL     1      -0.290   0.659   2.675  0.00  0.00    -0.298 NA
ATOM      5  C   UNL     1      -1.386   1.560   3.091  0.00  0.00    +0.085 C 
ATOM      6  C   UNL     1      -0.817  -0.628   2.204  0.00  0.00    +0.105 C 
ENDROOT
BRANCH   3   7
ATOM      7  C   UNL     1       1.914   1.525   2.084  0.00  0.00    -0.012 A 
ATOM      8  C   UNL     1       2.836   0.502   1.964  0.00  0.00    +0.115 A 
ATOM      9  N   UNL     1       4.082   0.666   2.366  0.00  0.00    -0.263 NA
ATOM     10  C   UNL     1       4.495   1.801   2.894  0.00  0.00    +0.111 A 
ATOM     11  C   UNL     1       3.630   2.868   3.046  0.00  0.00    +0.020 A 
ATOM     12  C   UNL     1       2.314   2.735   2.630  0.00  0.00    +0.008 A 
ENDBRANCH   3   7
TORSDOF 1
ENDMDL
