MODEL 1
REMARK VINA RESULT:     0.000      0.000      0.000
REMARK INTER + INTRA:          -0.256
REMARK INTER:                   0.000
REMARK INTRA:                  -0.256
REMARK UNBOUND:                -0.256
REMARK  Name = Nicotine.pdb
REMARK  2 active torsions:
REMARK  status: ('A' for Active; 'I' for Inactive)
REMARK    1  A    between atoms: C_3  and  C_6
REMARK    2  A    between atoms: N_4  and  C_12
REMARK                            x       y       z     vdW  Elec       q    Type
REMARK                         _______ _______ _______ _____ _____    ______ ____
ROOT
ATOM      1  C   UNL     1      -2.230  -0.076  -1.966  0.00  0.00    +0.017 C 
ATOM      2  C   UNL     1      -3.012   0.352  -0.696  0.00  0.00    +0.025 C 
ATOM      3  C   UNL     1      -2.988   1.894  -0.778  0.00  0.00    +0.088 C 
ATOM      4  N   UNL     1      -1.848   2.268  -1.633  0.00  0.00    -0.298 NA
ATOM      5  C   UNL     1      -1.154   1.035  -2.061  0.00  0.00    +0.085 C 
ATOM      6  C   UNL     1      -2.294   3.052  -2.793  0.00  0.00    +0.105 C 
ENDROOT
BRANCH   3   7
ATOM      7  C   UNL     1      -2.810   2.477   0.600  0.00  0.00    -0.012 A 
ATOM      8  C   UNL     1      -3.188   3.780   0.861  0.00  0.00    +0.115 A 
ATOM      9  N   UNL     1      -3.036   4.298   2.065  0.00  0.00    -0.263 NA
ATOM     10  C   UNL     1      -2.523   3.602   3.059  0.00  0.00    +0.111 A 
ATOM     11  C   UNL     1      -2.122   2.292   2.873  0.00  0.00    +0.020 A 
ATOM     12  C   UNL     1      -2.272   1.712   1.623  0.00  0.00    +0.008 A 
ENDBRANCH   3   7
TORSDOF 1
ENDMDL
MODEL 2
REMARK VINA RESULT:     0.000      4.867      6.304
REMARK INTER + INTRA:          -0.256
REMARK INTER:                   0.000
REMARK INTRA:                  -0.256
REMARK UNBOUND:                -0.256
REMARK  Name = Nicotine.pdb
REMARK  2 active torsions:
REMARK  status: ('A' for Active; 'I' for Inactive)
REMARK    1  A    between atoms: C_3  and  C_6
REMARK    2  A    between atoms: N_4  and  C_12
REMARK                            x       y       z     vdW  Elec       q    Type
REMARK                         _______ _______ _______ _____ _____    ______ ____
ROOT
ATOM      1  C   UNL     1       0.225   2.242  -0.805  0.00  0.00    +0.017 C 
ATOM      2  C   UNL     1       1.003   0.926  -1.069  0.00  0.00    +0.025 C 
ATOM      3  C   UNL     1       1.018   0.247   0.318  0.00  0.00    +0.088 C 
ATOM      4  N   UNL     1       0.811   1.305   1.324  0.00  0.00    -0.298 NA
ATOM      5  C   UNL     1       0.697   2.603   0.625  0.00  0.00    +0.085 C 
ATOM      6  C   UNL     1      -0.383   1.035   2.135  0.00  0.00    +0.105 C 
ENDROOT
BRANCH   3   7
ATOM      7  C   UNL     1       2.346  -0.426   0.545  0.00  0.00    -0.012 A 
ATOM      8  C   UNL     1       2.464  -1.443   1.474  0.00  0.00    +0.115 A 
ATOM      9  N   UNL     1       3.623  -2.038   1.679  0.00  0.00    -0.263 NA
ATOM     10  C   UNL     1       4.707  -1.692   1.014  0.00  0.00    +0.111 A 
ATOM     11  C   UNL     1       4.666  -0.684   0.069  0.00  0.00    +0.020 A 
ATOM     12  C   UNL     1       3.464  -0.039  -0.177  0.00  0.00    +0.008 A 
ENDBRANCH   3   7
TORSDOF 1
ENDMDL
MODEL 3
REMARK VINA RESULT:     0.000      3.990      4.916
REMARK INTER + INTRA:          -0.256
REMARK INTER:                   0.000
REMARK INTRA:                  -0.256
REMARK UNBOUND:                -0.256
REMARK  Name = Nicotine.pdb
REMARK  2 active torsions:
REMARK  status: ('A' for Active; 'I' for Inactive)
REMARK    1  A    between atoms: C_3  and  C_6
REMARK    2  A    between atoms: N_4  and  C_12
REMARK                            x       y       z     vdW  Elec       q    Type
REMARK                         _______ _______ _______ _____ _____    ______ ____
ROOT
ATOM      1  C   UNL     1       0.477   2.551  -3.498  0.00  0.00    +0.017 C 
ATOM      2  C   UNL     1       1.237   2.207  -2.190  0.00  0.00    +0.025 C 
ATOM      3  C   UNL     1       1.333   0.668  -2.239  0.00  0.00    +0.088 C 
ATOM      4  N   UNL     1       0.260   0.191  -3.130  0.00  0.00    -0.298 NA
ATOM      5  C   UNL     1      -0.507   1.360  -3.611  0.00  0.00    +0.085 C 
ATOM      6  C   UNL     1       0.811  -0.577  -4.254  0.00  0.00    +0.105 C 
ENDROOT
BRANCH   3   7
ATOM      7  C   UNL     1       1.145   0.098  -0.857  0.00  0.00    -0.012 A 
ATOM      8  C   UNL     1       1.610  -1.168  -0.553  0.00  0.00    +0.115 A 
ATOM      9  N   UNL     1       1.449  -1.674   0.654  0.00  0.00    -0.263 NA
ATOM     10  C   UNL     1       0.844  -1.001   1.613  0.00  0.00    +0.111 A 
ATOM     11  C   UNL     1       0.353   0.271   1.383  0.00  0.00    +0.020 A 
ATOM     12  C   UNL     1       0.509   0.838   0.128  0.00  0.00    +0.008 A 
ENDBRANCH   3   7
TORSDOF 1
ENDMDL
MODEL 4
REMARK VINA RESULT:     0.000      4.074      4.755
REMARK INTER + INTRA:          -0.256
REMARK INTER:                   0.000
REMARK INTRA:                  -0.256
REMARK UNBOUND:                -0.256
REMARK  Name = Nicotine.pdb
REMARK  2 active torsions:
REMARK  status: ('A' for Active; 'I' for Inactive)
REMARK    1  A    between atoms: C_3  and  C_6
REMARK    2  A    between atoms: N_4  and  C_12
REMARK                            x       y       z     vdW  Elec       q    Type
REMARK                         _______ _______ _______ _____ _____    ______ ____
ROOT
ATOM      1  C   UNL     1       3.394   1.055  -1.585  0.00  0.00    +0.017 C 
ATOM      2  C   UNL     1       3.539   1.788  -0.225  0.00  0.00    +0.025 C 
ATOM      3  C   UNL     1       2.140   1.629   0.405  0.00  0.00    +0.088 C 
ATOM      4  N   UNL     1       1.191   1.378  -0.694  0.00  0.00    -0.298 NA
ATOM      5  C   UNL     1       1.934   1.399  -1.972  0.00  0.00    +0.085 C 
ATOM      6  C   UNL     1       0.497   0.097  -0.509  0.00  0.00    +0.105 C 
ENDROOT
BRANCH   3   7
ATOM      7  C   UNL     1       1.759   2.892   1.134  0.00  0.00    -0.012 A 
ATOM      8  C   UNL     1       0.794   2.866   2.123  0.00  0.00    +0.115 A 
ATOM      9  N   UNL     1       0.456   3.967   2.765  0.00  0.00    -0.263 NA
ATOM     10  C   UNL     1       1.018   5.128   2.493  0.00  0.00    +0.111 A 
ATOM     11  C   UNL     1       1.991   5.232   1.517  0.00  0.00    +0.020 A 
ATOM     12  C   UNL     1       2.377   4.095   0.824  0.00  0.00    +0.008 A 
ENDBRANCH   3   7
TORSDOF 1
ENDMDL
MODEL 5
REMARK VINA RESULT:     0.000      6.969      7.759
REMARK INTER + INTRA:          -0.256
REMARK INTER:                   0.000
REMARK INTRA:                  -0.256
REMARK UNBOUND:                -0.256
REMARK  Name = Nicotine.pdb
REMARK  2 active torsions:
REMARK  status: ('A' for Active; 'I' for Inactive)
REMARK    1  A    between atoms: C_3  and  C_6
REMARK    2  A    between atoms: N_4  and  C_12
REMARK                            x       y       z     vdW  Elec       q    Type
REMARK                         _______ _______ _______ _____ _____    ______ ____
ROOT
ATOM      1  C   UNL     1       4.788   0.888  -2.649  0.00  0.00    +0.017 C 
ATOM      2  C   UNL     1       5.313   0.179  -1.373  0.00  0.00    +0.025 C 
ATOM      3  C   UNL     1       4.334   0.659  -0.281  0.00  0.00    +0.088 C 
ATOM      4  N   UNL     1       3.731   1.917  -0.757  0.00  0.00    -0.298 NA
ATOM      5  C   UNL     1       4.310   2.246  -2.077  0.00  0.00    +0.085 C 
ATOM      6  C   UNL     1       2.269   1.804  -0.836  0.00  0.00    +0.105 C 
ENDROOT
BRANCH   3   7
ATOM      7  C   UNL     1       5.080   0.902   1.006  0.00  0.00    -0.012 A 
ATOM      8  C   UNL     1       4.409   0.906   2.213  0.00  0.00    +0.115 A 
ATOM      9  N   UNL     1       5.054   1.117   3.344  0.00  0.00    -0.263 NA
ATOM     10  C   UNL     1       6.355   1.332   3.369  0.00  0.00    +0.111 A 
ATOM     11  C   UNL     1       7.093   1.342   2.201  0.00  0.00    +0.020 A 
ATOM     12  C   UNL     1       6.450   1.119   0.994  0.00  0.00    +0.008 A 
ENDBRANCH   3   7
TORSDOF 1
ENDMDL
MODEL 6
REMARK VINA RESULT:     0.000     10.218     12.663
REMARK INTER + INTRA:          -0.256
REMARK INTER:                   0.000
REMARK INTRA:                  -0.256
REMARK UNBOUND:                -0.256
REMARK  Name = Nicotine.pdb
REMARK  2 active torsions:
REMARK  status: ('A' for Active; 'I' for Inactive)
REMARK    1  A    between atoms: C_3  and  C_6
REMARK    2  A    between atoms: N_4  and  C_12
REMARK                            x       y       z     vdW  Elec       q    Type
REMARK                         _______ _______ _______ _____ _____    ______ ____
ROOT
ATOM      1  C   UNL     1       4.075  -4.639  -5.820  0.00  0.00    +0.017 C 
ATOM      2  C   UNL     1       5.586  -4.992  -5.831  0.00  0.00    +0.025 C 
ATOM      3  C   UNL     1       6.167  -4.062  -4.745  0.00  0.00    +0.088 C 
ATOM      4  N   UNL     1       5.228  -2.937  -4.585  0.00  0.00    -0.298 NA
ATOM      5  C   UNL     1       4.111  -3.117  -5.536  0.00  0.00    +0.085 C 
ATOM      6  C   UNL     1       4.736  -2.855  -3.203  0.00  0.00    +0.105 C 
ENDROOT
BRANCH   3   7
ATOM      7  C   UNL     1       7.516  -3.548  -5.179  0.00  0.00    -0.012 A 
ATOM      8  C   UNL     1       8.417  -3.076  -4.244  0.00  0.00    +0.115 A 
ATOM      9  N   UNL     1       9.600  -2.624  -4.615  0.00  0.00    -0.263 NA
ATOM     10  C   UNL     1       9.968  -2.604  -5.880  0.00  0.00    +0.111 A 
ATOM     11  C   UNL     1       9.119  -3.060  -6.872  0.00  0.00    +0.020 A 
ATOM     12  C   UNL     1       7.870  -3.547  -6.519  0.00  0.00    +0.008 A 
ENDBRANCH   3   7
TORSDOF 1
ENDMDL
MODEL 7
REMARK VINA RESULT:     0.000      3.687      4.883
REMARK INTER + INTRA:          -0.256
REMARK INTER:                   0.000
REMARK INTRA:                  -0.256
REMARK UNBOUND:                -0.256
REMARK  Name = Nicotine.pdb
REMARK  2 active torsions:
REMARK  status: ('A' for Active; 'I' for Inactive)
REMARK    1  A    between atoms: C_3  and  C_6
REMARK    2  A    between atoms: N_4  and  C_12
REMARK                            x       y       z     vdW  Elec       q    Type
REMARK                         _______ _______ _______ _____ _____    ______ ____
ROOT
ATOM      1  C   UNL     1      -0.658   3.374  -5.975  0.00  0.00    +0.017 C 
ATOM      2  C   UNL     1      -1.397   3.842  -4.694  0.00  0.00    +0.025 C 
ATOM      3  C   UNL     1      -0.548   5.041  -4.222  0.00  0.00    +0.088 C 
ATOM      4  N   UNL     1       0.795   4.883  -4.807  0.00  0.00    -0.298 NA
ATOM      5  C   UNL     1       0.821   3.633  -5.595  0.00  0.00    +0.085 C 
ATOM      6  C   UNL     1       1.146   6.040  -5.641  0.00  0.00    +0.105 C 
ENDROOT
BRANCH   3   7
ATOM      7  C   UNL     1      -0.457   5.044  -2.718  0.00  0.00    -0.012 A 
ATOM      8  C   UNL     1      -0.148   6.207  -2.038  0.00  0.00    +0.115 A 
ATOM      9  N   UNL     1      -0.066   6.219  -0.722  0.00  0.00    -0.263 NA
ATOM     10  C   UNL     1      -0.273   5.132  -0.006  0.00  0.00    +0.111 A 
ATOM     11  C   UNL     1      -0.588   3.931  -0.615  0.00  0.00    +0.020 A 
ATOM     12  C   UNL     1      -0.688   3.882  -1.997  0.00  0.00    +0.008 A 
ENDBRANCH   3   7
TORSDOF 1
ENDMDL
MODEL 8
REMARK VINA RESULT:     0.000      5.828      6.908
REMARK INTER + INTRA:          -0.256
REMARK INTER:                   0.000
REMARK INTRA:                  -0.256
REMARK UNBOUND:                -0.256
REMARK  Name = Nicotine.pdb
REMARK  2 active torsions:
REMARK  status: ('A' for Active; 'I' for Inactive)
REMARK    1  A    between atoms: C_3  and  C_6
REMARK    2  A    between atoms: N_4  and  C_12
REMARK                            x       y       z     vdW  Elec       q    Type
REMARK                         _______ _______ _______ _____ _____    ______ ____
ROOT
ATOM      1  C   UNL     1       2.617   2.891  -6.234  0.00  0.00    +0.017 C 
ATOM      2  C   UNL     1       3.628   2.213  -5.272  0.00  0.00    +0.025 C 
ATOM      3  C   UNL     1       2.714   1.539  -4.227  0.00  0.00    +0.088 C 
ATOM      4  N   UNL     1       1.419   2.243  -4.259  0.00  0.00    -0.298 NA
ATOM      5  C   UNL     1       1.501   3.333  -5.254  0.00  0.00    +0.085 C 
ATOM      6  C   UNL     1       0.324   1.319  -4.579  0.00  0.00    +0.105 C 
ENDROOT
BRANCH   3   7
ATOM      7  C   UNL     1       3.328   1.656  -2.856  0.00  0.00    -0.012 A 
ATOM      8  C   UNL     1       2.958   0.787  -1.847  0.00  0.00    +0.115 A 
ATOM      9  N   UNL     1       3.491   0.882  -0.645  0.00  0.00    -0.263 NA
ATOM     10  C   UNL     1       4.391   1.802  -0.357  0.00  0.00    +0.111 A 
ATOM     11  C   UNL     1       4.811   2.706  -1.315  0.00  0.00    +0.020 A 
ATOM     12  C   UNL     1       4.276   2.632  -2.592  0.00  0.00    +0.008 A 
ENDBRANCH   3   7
TORSDOF 1
ENDMDL
MODEL 9
REMARK VINA RESULT:     0.000     10.861     11.702
REMARK INTER + INTRA:          -0.256
REMARK INTER:                   0.000
REMARK INTRA:                  -0.256
REMARK UNBOUND:                -0.256
REMARK  Name = Nicotine.pdb
REMARK  2 active torsions:
REMARK  status: ('A' for Active; 'I' for Inactive)
REMARK    1  A    between atoms: C_3  and  C_6
REMARK    2  A    between atoms: N_4  and  C_12
REMARK                            x       y       z     vdW  Elec       q    Type
REMARK                         _______ _______ _______ _____ _____    ______ ____
ROOT
ATOM      1  C   UNL     1       7.540  -1.856  -2.798  0.00  0.00    +0.017 C 
ATOM      2  C   UNL     1       6.665  -2.279  -1.589  0.00  0.00    +0.025 C 
ATOM      3  C   UNL     1       7.579  -1.987  -0.380  0.00  0.00    +0.088 C 
ATOM      4  N   UNL     1       8.967  -1.977  -0.874  0.00  0.00    -0.298 NA
ATOM      5  C   UNL     1       8.954  -2.273  -2.323  0.00  0.00    +0.085 C 
ATOM      6  C   UNL     1       9.613  -0.685  -0.607  0.00  0.00    +0.105 C 
ENDROOT
BRANCH   3   7
ATOM      7  C   UNL     1       7.411  -3.063   0.661  0.00  0.00    -0.012 A 
ATOM      8  C   UNL     1       7.758  -2.823   1.977  0.00  0.00    +0.115 A 
ATOM      9  N   UNL     1       7.615  -3.759   2.894  0.00  0.00    -0.263 NA
ATOM     10  C   UNL     1       7.139  -4.953   2.598  0.00  0.00    +0.111 A 
ATOM     11  C   UNL     1       6.770  -5.266   1.303  0.00  0.00    +0.020 A 
ATOM     12  C   UNL     1       6.902  -4.305   0.312  0.00  0.00    +0.008 A 
ENDBRANCH   3   7
TORSDOF 1
ENDMDL
MODEL 10
REMARK VINA RESULT:     0.000      3.618      4.654
REMARK INTER + INTRA:          -0.256
REMARK INTER:                   0.000
REMARK INTRA:                  -0.256
REMARK UNBOUND:                -0.256
REMARK  Name = Nicotine.pdb
REMARK  2 active torsions:
REMARK  status: ('A' for Active; 'I' for Inactive)
REMARK    1  A    between atoms: C_3  and  C_6
REMARK    2  A    between atoms: N_4  and  C_12
REMARK                            x       y       z     vdW  Elec       q    Type
REMARK                         _______ _______ _______ _____ _____    ______ ____
ROOT
ATOM      1  C   UNL     1       4.068  -0.375  -1.659  0.00  0.00    +0.017 C 
ATOM      2  C   UNL     1       2.783  -0.319  -0.793  0.00  0.00    +0.025 C 
ATOM      3  C   UNL     1       1.777   0.408  -1.711  0.00  0.00    +0.088 C 
ATOM      4  N   UNL     1       2.560   1.176  -2.696  0.00  0.00    -0.298 NA
ATOM      5  C   UNL     1       3.997   0.977  -2.412  0.00  0.00    +0.085 C 
ATOM      6  C   UNL     1       2.231   0.765  -4.066  0.00  0.00    +0.105 C 
ENDROOT
BRANCH   3   7
ATOM      7  C   UNL     1       0.920   1.341  -0.895  0.00  0.00    -0.012 A 
ATOM      8  C   UNL     1      -0.306   1.762  -1.374  0.00  0.00    +0.115 A 
ATOM      9  N   UNL     1      -1.063   2.579  -0.666  0.00  0.00    -0.263 NA
ATOM     10  C   UNL     1      -0.685   3.024   0.516  0.00  0.00    +0.111 A 
ATOM     11  C   UNL     1       0.529   2.646   1.059  0.00  0.00    +0.020 A 
ATOM     12  C   UNL     1       1.349   1.784   0.347  0.00  0.00    +0.008 A 
ENDBRANCH   3   7
TORSDOF 1
ENDMDL
