MODEL 1
REMARK VINA RESULT:    -4.020      0.000      0.000
REMARK INTER + INTRA:          -4.469
REMARK INTER:                  -4.255
REMARK INTRA:                  -0.214
REMARK UNBOUND:                -0.214
REMARK  Name = Nicotine.pdb
REMARK  2 active torsions:
REMARK  status: ('A' for Active; 'I' for Inactive)
REMARK    1  A    between atoms: C_3  and  C_6
REMARK    2  A    between atoms: N_4  and  C_12
REMARK                            x       y       z     vdW  Elec       q    Type
REMARK                         _______ _______ _______ _____ _____    ______ ____
ROOT
ATOM      1  C   UNL     1       5.942  -3.792   5.366  0.00  0.00    +0.017 C 
ATOM      2  C   UNL     1       4.717  -4.161   6.244  0.00  0.00    +0.025 C 
ATOM      3  C   UNL     1       3.826  -4.968   5.276  0.00  0.00    +0.088 C 
ATOM      4  N   UNL     1       4.213  -4.587   3.906  0.00  0.00    -0.298 NA
ATOM      5  C   UNL     1       5.279  -3.566   3.984  0.00  0.00    +0.085 C 
ATOM      6  C   UNL     1       4.658  -5.757   3.139  0.00  0.00    +0.105 C 
ENDROOT
BRANCH   3   7
ATOM      7  C   UNL     1       2.376  -4.634   5.513  0.00  0.00    -0.012 A 
ATOM      8  C   UNL     1       2.016  -3.388   5.991  0.00  0.00    +0.115 A 
ATOM      9  N   UNL     1       0.749  -3.087   6.201  0.00  0.00    -0.263 NA
ATOM     10  C   UNL     1      -0.217  -3.952   5.967  0.00  0.00    +0.111 A 
ATOM     11  C   UNL     1       0.067  -5.218   5.488  0.00  0.00    +0.020 A 
ATOM     12  C   UNL     1       1.387  -5.568   5.250  0.00  0.00    +0.008 A 
ENDBRANCH   3   7
TORSDOF 1
ENDMDL
MODEL 2
REMARK VINA RESULT:    -3.945      1.267      1.523
REMARK INTER + INTRA:          -4.390
REMARK INTER:                  -4.198
REMARK INTRA:                  -0.192
REMARK UNBOUND:                -0.214
REMARK  Name = Nicotine.pdb
REMARK  2 active torsions:
REMARK  status: ('A' for Active; 'I' for Inactive)
REMARK    1  A    between atoms: C_3  and  C_6
REMARK    2  A    between atoms: N_4  and  C_12
REMARK                            x       y       z     vdW  Elec       q    Type
REMARK                         _______ _______ _______ _____ _____    ______ ____
ROOT
ATOM      1  C   UNL     1       5.246  -1.970   5.090  0.00  0.00    +0.017 C 
ATOM      2  C   UNL     1       3.857  -2.024   5.779  0.00  0.00    +0.025 C 
ATOM      3  C   UNL     1       3.702  -3.518   6.131  0.00  0.00    +0.088 C 
ATOM      4  N   UNL     1       4.594  -4.274   5.233  0.00  0.00    -0.298 NA
ATOM      5  C   UNL     1       5.271  -3.319   4.330  0.00  0.00    +0.085 C 
ATOM      6  C   UNL     1       5.571  -5.058   5.999  0.00  0.00    +0.105 C 
ENDROOT
BRANCH   3   7
ATOM      7  C   UNL     1       2.274  -3.949   5.918  0.00  0.00    -0.012 A 
ATOM      8  C   UNL     1       1.232  -3.101   6.243  0.00  0.00    +0.115 A 
ATOM      9  N   UNL     1      -0.021  -3.470   6.060  0.00  0.00    -0.263 NA
ATOM     10  C   UNL     1      -0.330  -4.653   5.565  0.00  0.00    +0.111 A 
ATOM     11  C   UNL     1       0.659  -5.554   5.216  0.00  0.00    +0.020 A 
ATOM     12  C   UNL     1       1.988  -5.199   5.390  0.00  0.00    +0.008 A 
ENDBRANCH   3   7
TORSDOF 1
ENDMDL
MODEL 3
REMARK VINA RESULT:    -2.880      1.765      4.369
REMARK INTER + INTRA:          -3.263
REMARK INTER:                  -3.058
REMARK INTRA:                  -0.205
REMARK UNBOUND:                -0.214
REMARK  Name = Nicotine.pdb
REMARK  2 active torsions:
REMARK  status: ('A' for Active; 'I' for Inactive)
REMARK    1  A    between atoms: C_3  and  C_6
REMARK    2  A    between atoms: N_4  and  C_12
REMARK                            x       y       z     vdW  Elec       q    Type
REMARK                         _______ _______ _______ _____ _____    ______ ____
ROOT
ATOM      1  C   UNL     1       1.048  -4.280   6.017  0.00  0.00    +0.017 C 
ATOM      2  C   UNL     1       2.146  -3.203   5.813  0.00  0.00    +0.025 C 
ATOM      3  C   UNL     1       3.213  -3.948   4.983  0.00  0.00    +0.088 C 
ATOM      4  N   UNL     1       3.016  -5.391   5.211  0.00  0.00    -0.298 NA
ATOM      5  C   UNL     1       1.896  -5.569   6.161  0.00  0.00    +0.085 C 
ATOM      6  C   UNL     1       2.753  -6.093   3.949  0.00  0.00    +0.105 C 
ENDROOT
BRANCH   3   7
ATOM      7  C   UNL     1       4.591  -3.540   5.435  0.00  0.00    -0.012 A 
ATOM      8  C   UNL     1       4.922  -2.203   5.550  0.00  0.00    +0.115 A 
ATOM      9  N   UNL     1       6.126  -1.837   5.945  0.00  0.00    -0.263 NA
ATOM     10  C   UNL     1       7.056  -2.722   6.244  0.00  0.00    +0.111 A 
ATOM     11  C   UNL     1       6.798  -4.077   6.154  0.00  0.00    +0.020 A 
ATOM     12  C   UNL     1       5.542  -4.500   5.747  0.00  0.00    +0.008 A 
ENDBRANCH   3   7
TORSDOF 1
ENDMDL
MODEL 4
REMARK VINA RESULT:    -2.827      1.475      2.216
REMARK INTER + INTRA:          -3.207
REMARK INTER:                  -2.987
REMARK INTRA:                  -0.219
REMARK UNBOUND:                -0.214
REMARK  Name = Nicotine.pdb
REMARK  2 active torsions:
REMARK  status: ('A' for Active; 'I' for Inactive)
REMARK    1  A    between atoms: C_3  and  C_6
REMARK    2  A    between atoms: N_4  and  C_12
REMARK                            x       y       z     vdW  Elec       q    Type
REMARK                         _______ _______ _______ _____ _____    ______ ____
ROOT
ATOM      1  C   UNL     1       4.643  -1.489   4.648  0.00  0.00    +0.017 C 
ATOM      2  C   UNL     1       3.268  -1.653   5.348  0.00  0.00    +0.025 C 
ATOM      3  C   UNL     1       3.367  -3.056   5.983  0.00  0.00    +0.088 C 
ATOM      4  N   UNL     1       4.400  -3.800   5.240  0.00  0.00    -0.298 NA
ATOM      5  C   UNL     1       4.921  -2.933   4.162  0.00  0.00    +0.085 C 
ATOM      6  C   UNL     1       5.480  -4.239   6.133  0.00  0.00    +0.105 C 
ENDROOT
BRANCH   3   7
ATOM      7  C   UNL     1       2.042  -3.764   5.872  0.00  0.00    -0.012 A 
ATOM      8  C   UNL     1       1.987  -5.083   5.464  0.00  0.00    +0.115 A 
ATOM      9  N   UNL     1       0.831  -5.711   5.364  0.00  0.00    -0.263 NA
ATOM     10  C   UNL     1      -0.309  -5.112   5.647  0.00  0.00    +0.111 A 
ATOM     11  C   UNL     1      -0.332  -3.794   6.061  0.00  0.00    +0.020 A 
ATOM     12  C   UNL     1       0.864  -3.103   6.183  0.00  0.00    +0.008 A 
ENDBRANCH   3   7
TORSDOF 1
ENDMDL
MODEL 5
REMARK VINA RESULT:    -2.160      2.112      5.037
REMARK INTER + INTRA:          -2.501
REMARK INTER:                  -2.247
REMARK INTRA:                  -0.254
REMARK UNBOUND:                -0.214
REMARK  Name = Nicotine.pdb
REMARK  2 active torsions:
REMARK  status: ('A' for Active; 'I' for Inactive)
REMARK    1  A    between atoms: C_3  and  C_6
REMARK    2  A    between atoms: N_4  and  C_12
REMARK                            x       y       z     vdW  Elec       q    Type
REMARK                         _______ _______ _______ _____ _____    ______ ____
ROOT
ATOM      1  C   UNL     1       2.334  -0.469   4.784  0.00  0.00    +0.017 C 
ATOM      2  C   UNL     1       3.611  -1.205   4.300  0.00  0.00    +0.025 C 
ATOM      3  C   UNL     1       3.516  -2.571   5.012  0.00  0.00    +0.088 C 
ATOM      4  N   UNL     1       2.641  -2.392   6.185  0.00  0.00    -0.298 NA
ATOM      5  C   UNL     1       2.215  -0.978   6.243  0.00  0.00    +0.085 C 
ATOM      6  C   UNL     1       1.481  -3.290   6.119  0.00  0.00    +0.105 C 
ENDROOT
BRANCH   3   7
ATOM      7  C   UNL     1       4.886  -3.015   5.455  0.00  0.00    -0.012 A 
ATOM      8  C   UNL     1       5.207  -4.358   5.495  0.00  0.00    +0.115 A 
ATOM      9  N   UNL     1       6.404  -4.755   5.882  0.00  0.00    -0.263 NA
ATOM     10  C   UNL     1       7.335  -3.895   6.244  0.00  0.00    +0.111 A 
ATOM     11  C   UNL     1       7.087  -2.535   6.230  0.00  0.00    +0.020 A 
ATOM     12  C   UNL     1       5.842  -2.081   5.824  0.00  0.00    +0.008 A 
ENDBRANCH   3   7
TORSDOF 1
ENDMDL
MODEL 6
REMARK VINA RESULT:    -1.993      1.993      4.949
REMARK INTER + INTRA:          -2.324
REMARK INTER:                  -2.102
REMARK INTRA:                  -0.222
REMARK UNBOUND:                -0.214
REMARK  Name = Nicotine.pdb
REMARK  2 active torsions:
REMARK  status: ('A' for Active; 'I' for Inactive)
REMARK    1  A    between atoms: C_3  and  C_6
REMARK    2  A    between atoms: N_4  and  C_12
REMARK                            x       y       z     vdW  Elec       q    Type
REMARK                         _______ _______ _______ _____ _____    ______ ____
ROOT
ATOM      1  C   UNL     1      -2.319  -4.725   6.164  0.00  0.00    +0.017 C 
ATOM      2  C   UNL     1      -1.038  -3.852   6.242  0.00  0.00    +0.025 C 
ATOM      3  C   UNL     1      -0.173  -4.402   5.088  0.00  0.00    +0.088 C 
ATOM      4  N   UNL     1      -0.643  -5.770   4.803  0.00  0.00    -0.298 NA
ATOM      5  C   UNL     1      -1.738  -6.097   5.742  0.00  0.00    +0.085 C 
ATOM      6  C   UNL     1      -1.089  -5.894   3.409  0.00  0.00    +0.105 C 
ENDROOT
BRANCH   3   7
ATOM      7  C   UNL     1       1.275  -4.432   5.503  0.00  0.00    -0.012 A 
ATOM      8  C   UNL     1       1.966  -5.629   5.545  0.00  0.00    +0.115 A 
ATOM      9  N   UNL     1       3.233  -5.664   5.907  0.00  0.00    -0.263 NA
ATOM     10  C   UNL     1       3.889  -4.570   6.241  0.00  0.00    +0.111 A 
ATOM     11  C   UNL     1       3.265  -3.337   6.222  0.00  0.00    +0.020 A 
ATOM     12  C   UNL     1       1.934  -3.260   5.842  0.00  0.00    +0.008 A 
ENDBRANCH   3   7
TORSDOF 1
ENDMDL
