MODEL 1
REMARK VINA RESULT:    -2.999      0.000      0.000
REMARK INTER + INTRA:          -3.382
REMARK INTER:                  -3.174
REMARK INTRA:                  -0.208
REMARK UNBOUND:                -0.208
REMARK  Name = Nicotine.pdb
REMARK  2 active torsions:
REMARK  status: ('A' for Active; 'I' for Inactive)
REMARK    1  A    between atoms: C_3  and  C_6
REMARK    2  A    between atoms: N_4  and  C_12
REMARK                            x       y       z     vdW  Elec       q    Type
REMARK                         _______ _______ _______ _____ _____    ______ ____
ROOT
ATOM      1  C   UNL     1       3.023   2.039   5.973  0.00  0.00    +0.017 C 
ATOM      2  C   UNL     1       2.024   0.878   6.221  0.00  0.00    +0.025 C 
ATOM      3  C   UNL     1       2.926  -0.373   6.170  0.00  0.00    +0.088 C 
ATOM      4  N   UNL     1       4.134  -0.011   5.407  0.00  0.00    -0.298 NA
ATOM      5  C   UNL     1       4.007   1.394   4.965  0.00  0.00    +0.085 C 
ATOM      6  C   UNL     1       5.345  -0.201   6.215  0.00  0.00    +0.105 C 
ENDROOT
BRANCH   3   7
ATOM      7  C   UNL     1       2.201  -1.500   5.481  0.00  0.00    -0.012 A 
ATOM      8  C   UNL     1       1.423  -1.252   4.366  0.00  0.00    +0.115 A 
ATOM      9  N   UNL     1       0.786  -2.233   3.757  0.00  0.00    -0.263 NA
ATOM     10  C   UNL     1       0.863  -3.478   4.181  0.00  0.00    +0.111 A 
ATOM     11  C   UNL     1       1.622  -3.803   5.290  0.00  0.00    +0.020 A 
ATOM     12  C   UNL     1       2.311  -2.799   5.953  0.00  0.00    +0.008 A 
ENDBRANCH   3   7
TORSDOF 1
ENDMDL
MODEL 2
REMARK VINA RESULT:    -2.766      3.025      6.242
REMARK INTER + INTRA:          -3.135
REMARK INTER:                  -2.951
REMARK INTRA:                  -0.184
REMARK UNBOUND:                -0.208
REMARK  Name = Nicotine.pdb
REMARK  2 active torsions:
REMARK  status: ('A' for Active; 'I' for Inactive)
REMARK    1  A    between atoms: C_3  and  C_6
REMARK    2  A    between atoms: N_4  and  C_12
REMARK                            x       y       z     vdW  Elec       q    Type
REMARK                         _______ _______ _______ _____ _____    ______ ____
ROOT
ATOM      1  C   UNL     1       5.892   1.042   4.811  0.00  0.00    +0.017 C 
ATOM      2  C   UNL     1       5.930   2.369   5.614  0.00  0.00    +0.025 C 
ATOM      3  C   UNL     1       4.522   2.434   6.244  0.00  0.00    +0.088 C 
ATOM      4  N   UNL     1       3.638   1.585   5.425  0.00  0.00    -0.298 NA
ATOM      5  C   UNL     1       4.427   1.022   4.309  0.00  0.00    +0.085 C 
ATOM      6  C   UNL     1       3.034   0.519   6.234  0.00  0.00    +0.105 C 
ENDROOT
BRANCH   3   7
ATOM      7  C   UNL     1       4.023   3.855   6.237  0.00  0.00    -0.012 A 
ATOM      8  C   UNL     1       4.915   4.910   6.225  0.00  0.00    +0.115 A 
ATOM      9  N   UNL     1       4.486   6.157   6.218  0.00  0.00    -0.263 NA
ATOM     10  C   UNL     1       3.200   6.447   6.223  0.00  0.00    +0.111 A 
ATOM     11  C   UNL     1       2.248   5.445   6.234  0.00  0.00    +0.020 A 
ATOM     12  C   UNL     1       2.662   4.121   6.236  0.00  0.00    +0.008 A 
ENDBRANCH   3   7
TORSDOF 1
ENDMDL
MODEL 3
REMARK VINA RESULT:    -2.620      1.496      4.970
REMARK INTER + INTRA:          -2.981
REMARK INTER:                  -2.812
REMARK INTRA:                  -0.169
REMARK UNBOUND:                -0.208
REMARK  Name = Nicotine.pdb
REMARK  2 active torsions:
REMARK  status: ('A' for Active; 'I' for Inactive)
REMARK    1  A    between atoms: C_3  and  C_6
REMARK    2  A    between atoms: N_4  and  C_12
REMARK                            x       y       z     vdW  Elec       q    Type
REMARK                         _______ _______ _______ _____ _____    ______ ____
ROOT
ATOM      1  C   UNL     1       0.934  -5.752   5.827  0.00  0.00    +0.017 C 
ATOM      2  C   UNL     1       0.723  -4.268   6.229  0.00  0.00    +0.025 C 
ATOM      3  C   UNL     1       1.178  -3.499   4.970  0.00  0.00    +0.088 C 
ATOM      4  N   UNL     1       2.075  -4.392   4.214  0.00  0.00    -0.298 NA
ATOM      5  C   UNL     1       2.213  -5.662   4.958  0.00  0.00    +0.085 C 
ATOM      6  C   UNL     1       1.561  -4.628   2.858  0.00  0.00    +0.105 C 
ENDROOT
BRANCH   3   7
ATOM      7  C   UNL     1       1.917  -2.249   5.373  0.00  0.00    -0.012 A 
ATOM      8  C   UNL     1       3.197  -2.329   5.889  0.00  0.00    +0.115 A 
ATOM      9  N   UNL     1       3.850  -1.240   6.243  0.00  0.00    -0.263 NA
ATOM     10  C   UNL     1       3.316  -0.041   6.121  0.00  0.00    +0.111 A 
ATOM     11  C   UNL     1       2.041   0.118   5.612  0.00  0.00    +0.020 A 
ATOM     12  C   UNL     1       1.325  -1.004   5.224  0.00  0.00    +0.008 A 
ENDBRANCH   3   7
TORSDOF 1
ENDMDL
MODEL 4
REMARK VINA RESULT:    -2.594      3.699      5.575
REMARK INTER + INTRA:          -2.954
REMARK INTER:                  -2.737
REMARK INTRA:                  -0.217
REMARK UNBOUND:                -0.208
REMARK  Name = Nicotine.pdb
REMARK  2 active torsions:
REMARK  status: ('A' for Active; 'I' for Inactive)
REMARK    1  A    between atoms: C_3  and  C_6
REMARK    2  A    between atoms: N_4  and  C_12
REMARK                            x       y       z     vdW  Elec       q    Type
REMARK                         _______ _______ _______ _____ _____    ______ ____
ROOT
ATOM      1  C   UNL     1       0.822  -3.663   3.245  0.00  0.00    +0.017 C 
ATOM      2  C   UNL     1       1.980  -4.678   3.053  0.00  0.00    +0.025 C 
ATOM      3  C   UNL     1       2.174  -5.255   4.471  0.00  0.00    +0.088 C 
ATOM      4  N   UNL     1       1.623  -4.273   5.422  0.00  0.00    -0.298 NA
ATOM      5  C   UNL     1       1.123  -3.109   4.660  0.00  0.00    +0.085 C 
ATOM      6  C   UNL     1       0.555  -4.868   6.235  0.00  0.00    +0.105 C 
ENDROOT
BRANCH   3   7
ATOM      7  C   UNL     1       3.640  -5.467   4.742  0.00  0.00    -0.012 A 
ATOM      8  C   UNL     1       4.163  -5.216   5.997  0.00  0.00    +0.115 A 
ATOM      9  N   UNL     1       5.445  -5.398   6.243  0.00  0.00    -0.263 NA
ATOM     10  C   UNL     1       6.276  -5.824   5.312  0.00  0.00    +0.111 A 
ATOM     11  C   UNL     1       5.826  -6.097   4.033  0.00  0.00    +0.020 A 
ATOM     12  C   UNL     1       4.482  -5.921   3.739  0.00  0.00    +0.008 A 
ENDBRANCH   3   7
TORSDOF 1
ENDMDL
MODEL 5
REMARK VINA RESULT:    -2.429     12.468     13.663
REMARK INTER + INTRA:          -2.779
REMARK INTER:                  -2.556
REMARK INTRA:                  -0.224
REMARK UNBOUND:                -0.208
REMARK  Name = Nicotine.pdb
REMARK  2 active torsions:
REMARK  status: ('A' for Active; 'I' for Inactive)
REMARK    1  A    between atoms: C_3  and  C_6
REMARK    2  A    between atoms: N_4  and  C_12
REMARK                            x       y       z     vdW  Elec       q    Type
REMARK                         _______ _______ _______ _____ _____    ______ ____
ROOT
ATOM      1  C   UNL     1      -3.360  -5.889  -4.062  0.00  0.00    +0.017 C 
ATOM      2  C   UNL     1      -4.246  -4.693  -4.501  0.00  0.00    +0.025 C 
ATOM      3  C   UNL     1      -3.825  -4.471  -5.970  0.00  0.00    +0.088 C 
ATOM      4  N   UNL     1      -2.482  -5.056  -6.133  0.00  0.00    -0.298 NA
ATOM      5  C   UNL     1      -2.046  -5.604  -4.831  0.00  0.00    +0.085 C 
ATOM      6  C   UNL     1      -2.483  -6.097  -7.169  0.00  0.00    +0.105 C 
ENDROOT
BRANCH   3   7
ATOM      7  C   UNL     1      -3.784  -2.996  -6.274  0.00  0.00    -0.012 A 
ATOM      8  C   UNL     1      -2.619  -2.409  -6.729  0.00  0.00    +0.115 A 
ATOM      9  N   UNL     1      -2.574  -1.118  -6.998  0.00  0.00    -0.263 NA
ATOM     10  C   UNL     1      -3.628  -0.342  -6.845  0.00  0.00    +0.111 A 
ATOM     11  C   UNL     1      -4.829  -0.859  -6.394  0.00  0.00    +0.020 A 
ATOM     12  C   UNL     1      -4.915  -2.212  -6.107  0.00  0.00    +0.008 A 
ENDBRANCH   3   7
TORSDOF 1
ENDMDL
MODEL 6
REMARK VINA RESULT:    -2.221      2.972      5.038
REMARK INTER + INTRA:          -2.559
REMARK INTER:                  -2.344
REMARK INTRA:                  -0.215
REMARK UNBOUND:                -0.208
REMARK  Name = Nicotine.pdb
REMARK  2 active torsions:
REMARK  status: ('A' for Active; 'I' for Inactive)
REMARK    1  A    between atoms: C_3  and  C_6
REMARK    2  A    between atoms: N_4  and  C_12
REMARK                            x       y       z     vdW  Elec       q    Type
REMARK                         _______ _______ _______ _____ _____    ______ ____
ROOT
ATOM      1  C   UNL     1       7.200   4.840   4.775  0.00  0.00    +0.017 C 
ATOM      2  C   UNL     1       6.487   3.550   4.289  0.00  0.00    +0.025 C 
ATOM      3  C   UNL     1       5.133   3.602   5.028  0.00  0.00    +0.088 C 
ATOM      4  N   UNL     1       5.312   4.468   6.207  0.00  0.00    -0.298 NA
ATOM      5  C   UNL     1       6.716   4.930   6.244  0.00  0.00    +0.085 C 
ATOM      6  C   UNL     1       4.384   5.605   6.173  0.00  0.00    +0.105 C 
ENDROOT
BRANCH   3   7
ATOM      7  C   UNL     1       4.733   2.216   5.463  0.00  0.00    -0.012 A 
ATOM      8  C   UNL     1       5.665   1.196   5.490  0.00  0.00    +0.115 A 
ATOM      9  N   UNL     1       5.323  -0.020   5.869  0.00  0.00    -0.263 NA
ATOM     10  C   UNL     1       4.091  -0.311   6.235  0.00  0.00    +0.111 A 
ATOM     11  C   UNL     1       3.105   0.658   6.234  0.00  0.00    +0.020 A 
ATOM     12  C   UNL     1       3.428   1.949   5.846  0.00  0.00    +0.008 A 
ENDBRANCH   3   7
TORSDOF 1
ENDMDL
MODEL 7
REMARK VINA RESULT:    -2.141      1.402      2.012
REMARK INTER + INTRA:          -2.474
REMARK INTER:                  -2.222
REMARK INTRA:                  -0.252
REMARK UNBOUND:                -0.208
REMARK  Name = Nicotine.pdb
REMARK  2 active torsions:
REMARK  status: ('A' for Active; 'I' for Inactive)
REMARK    1  A    between atoms: C_3  and  C_6
REMARK    2  A    between atoms: N_4  and  C_12
REMARK                            x       y       z     vdW  Elec       q    Type
REMARK                         _______ _______ _______ _____ _____    ______ ____
ROOT
ATOM      1  C   UNL     1       4.605   2.889   5.741  0.00  0.00    +0.017 C 
ATOM      2  C   UNL     1       3.476   1.952   6.244  0.00  0.00    +0.025 C 
ATOM      3  C   UNL     1       4.130   0.555   6.181  0.00  0.00    +0.088 C 
ATOM      4  N   UNL     1       5.242   0.637   5.216  0.00  0.00    -0.298 NA
ATOM      5  C   UNL     1       5.288   2.008   4.665  0.00  0.00    +0.085 C 
ATOM      6  C   UNL     1       6.518   0.282   5.852  0.00  0.00    +0.105 C 
ENDROOT
BRANCH   3   7
ATOM      7  C   UNL     1       3.121  -0.463   5.717  0.00  0.00    -0.012 A 
ATOM      8  C   UNL     1       3.135  -1.746   6.231  0.00  0.00    +0.115 A 
ATOM      9  N   UNL     1       2.255  -2.643   5.831  0.00  0.00    -0.263 NA
ATOM     10  C   UNL     1       1.335  -2.357   4.931  0.00  0.00    +0.111 A 
ATOM     11  C   UNL     1       1.260  -1.095   4.371  0.00  0.00    +0.020 A 
ATOM     12  C   UNL     1       2.164  -0.124   4.772  0.00  0.00    +0.008 A 
ENDBRANCH   3   7
TORSDOF 1
ENDMDL
MODEL 8
REMARK VINA RESULT:    -2.135      4.423      5.580
REMARK INTER + INTRA:          -2.468
REMARK INTER:                  -2.284
REMARK INTRA:                  -0.184
REMARK UNBOUND:                -0.208
REMARK  Name = Nicotine.pdb
REMARK  2 active torsions:
REMARK  status: ('A' for Active; 'I' for Inactive)
REMARK    1  A    between atoms: C_3  and  C_6
REMARK    2  A    between atoms: N_4  and  C_12
REMARK                            x       y       z     vdW  Elec       q    Type
REMARK                         _______ _______ _______ _____ _____    ______ ____
ROOT
ATOM      1  C   UNL     1       7.189   4.058   4.807  0.00  0.00    +0.017 C 
ATOM      2  C   UNL     1       6.043   4.701   5.632  0.00  0.00    +0.025 C 
ATOM      3  C   UNL     1       5.316   3.478   6.230  0.00  0.00    +0.088 C 
ATOM      4  N   UNL     1       5.638   2.319   5.378  0.00  0.00    -0.298 NA
ATOM      5  C   UNL     1       6.506   2.775   4.271  0.00  0.00    +0.085 C 
ATOM      6  C   UNL     1       6.289   1.257   6.155  0.00  0.00    +0.105 C 
ENDROOT
BRANCH   3   7
ATOM      7  C   UNL     1       3.829   3.717   6.234  0.00  0.00    -0.012 A 
ATOM      8  C   UNL     1       3.327   5.005   6.229  0.00  0.00    +0.115 A 
ATOM      9  N   UNL     1       2.027   5.222   6.232  0.00  0.00    -0.263 NA
ATOM     10  C   UNL     1       1.158   4.231   6.240  0.00  0.00    +0.111 A 
ATOM     11  C   UNL     1       1.585   2.916   6.244  0.00  0.00    +0.020 A 
ATOM     12  C   UNL     1       2.945   2.648   6.236  0.00  0.00    +0.008 A 
ENDBRANCH   3   7
TORSDOF 1
ENDMDL
MODEL 9
REMARK VINA RESULT:    -1.328      6.142      7.041
REMARK INTER + INTRA:          -1.614
REMARK INTER:                  -1.362
REMARK INTRA:                  -0.252
REMARK UNBOUND:                -0.208
REMARK  Name = Nicotine.pdb
REMARK  2 active torsions:
REMARK  status: ('A' for Active; 'I' for Inactive)
REMARK    1  A    between atoms: C_3  and  C_6
REMARK    2  A    between atoms: N_4  and  C_12
REMARK                            x       y       z     vdW  Elec       q    Type
REMARK                         _______ _______ _______ _____ _____    ______ ____
ROOT
ATOM      1  C   UNL     1      10.167  -2.234   2.490  0.00  0.00    +0.017 C 
ATOM      2  C   UNL     1       8.707  -2.528   2.926  0.00  0.00    +0.025 C 
ATOM      3  C   UNL     1       8.867  -2.979   4.394  0.00  0.00    +0.088 C 
ATOM      4  N   UNL     1      10.256  -3.446   4.558  0.00  0.00    -0.298 NA
ATOM      5  C   UNL     1      10.949  -3.329   3.258  0.00  0.00    +0.085 C 
ATOM      6  C   UNL     1      10.951  -2.677   5.598  0.00  0.00    +0.105 C 
ENDROOT
BRANCH   3   7
ATOM      7  C   UNL     1       7.908  -4.102   4.693  0.00  0.00    -0.012 A 
ATOM      8  C   UNL     1       7.299  -4.190   5.931  0.00  0.00    +0.115 A 
ATOM      9  N   UNL     1       6.458  -5.169   6.201  0.00  0.00    -0.263 NA
ATOM     10  C   UNL     1       6.166  -6.097   5.311  0.00  0.00    +0.111 A 
ATOM     11  C   UNL     1       6.736  -6.074   4.051  0.00  0.00    +0.020 A 
ATOM     12  C   UNL     1       7.621  -5.056   3.729  0.00  0.00    +0.008 A 
ENDBRANCH   3   7
TORSDOF 1
ENDMDL
