MODEL 1
REMARK VINA RESULT:    -4.461      0.000      0.000
REMARK INTER + INTRA:          -4.914
REMARK INTER:                  -4.721
REMARK INTRA:                  -0.193
REMARK UNBOUND:                -0.193
REMARK  Name = Nicotine.pdb
REMARK  2 active torsions:
REMARK  status: ('A' for Active; 'I' for Inactive)
REMARK    1  A    between atoms: C_3  and  C_6
REMARK    2  A    between atoms: N_4  and  C_12
REMARK                            x       y       z     vdW  Elec       q    Type
REMARK                         _______ _______ _______ _____ _____    ______ ____
ROOT
ATOM      1  C   UNL     1      -0.257   3.975   1.640  0.00  0.00    +0.017 C 
ATOM      2  C   UNL     1      -0.973   2.670   1.202  0.00  0.00    +0.025 C 
ATOM      3  C   UNL     1       0.018   1.568   1.633  0.00  0.00    +0.088 C 
ATOM      4  N   UNL     1       1.348   2.195   1.741  0.00  0.00    -0.298 NA
ATOM      5  C   UNL     1       1.227   3.622   1.372  0.00  0.00    +0.085 C 
ATOM      6  C   UNL     1       1.894   2.045   3.096  0.00  0.00    +0.105 C 
ENDROOT
BRANCH   3   7
ATOM      7  C   UNL     1       0.048   0.472   0.600  0.00  0.00    -0.012 A 
ATOM      8  C   UNL     1      -0.653  -0.701   0.804  0.00  0.00    +0.115 A 
ATOM      9  N   UNL     1      -0.632  -1.665  -0.095  0.00  0.00    -0.263 NA
ATOM     10  C   UNL     1       0.052  -1.552  -1.216  0.00  0.00    +0.111 A 
ATOM     11  C   UNL     1       0.778  -0.407  -1.490  0.00  0.00    +0.020 A 
ATOM     12  C   UNL     1       0.775   0.630  -0.570  0.00  0.00    +0.008 A 
ENDBRANCH   3   7
TORSDOF 1
ENDMDL
MODEL 2
REMARK VINA RESULT:    -4.323      1.346      4.538
REMARK INTER + INTRA:          -4.768
REMARK INTER:                  -4.567
REMARK INTRA:                  -0.202
REMARK UNBOUND:                -0.193
REMARK  Name = Nicotine.pdb
REMARK  2 active torsions:
REMARK  status: ('A' for Active; 'I' for Inactive)
REMARK    1  A    between atoms: C_3  and  C_6
REMARK    2  A    between atoms: N_4  and  C_12
REMARK                            x       y       z     vdW  Elec       q    Type
REMARK                         _______ _______ _______ _____ _____    ______ ____
ROOT
ATOM      1  C   UNL     1      -1.824  -0.435   0.891  0.00  0.00    +0.017 C 
ATOM      2  C   UNL     1      -1.798   1.089   1.179  0.00  0.00    +0.025 C 
ATOM      3  C   UNL     1      -0.479   1.545   0.521  0.00  0.00    +0.088 C 
ATOM      4  N   UNL     1       0.389   0.358   0.416  0.00  0.00    -0.298 NA
ATOM      5  C   UNL     1      -0.322  -0.799   0.999  0.00  0.00    +0.085 C 
ATOM      6  C   UNL     1       0.760   0.099  -0.981  0.00  0.00    +0.105 C 
ENDROOT
BRANCH   3   7
ATOM      7  C   UNL     1       0.185   2.593   1.376  0.00  0.00    -0.012 A 
ATOM      8  C   UNL     1       1.291   2.273   2.141  0.00  0.00    +0.115 A 
ATOM      9  N   UNL     1       1.878   3.185   2.892  0.00  0.00    -0.263 NA
ATOM     10  C   UNL     1       1.440   4.427   2.945  0.00  0.00    +0.111 A 
ATOM     11  C   UNL     1       0.339   4.821   2.206  0.00  0.00    +0.020 A 
ATOM     12  C   UNL     1      -0.301   3.891   1.401  0.00  0.00    +0.008 A 
ENDBRANCH   3   7
TORSDOF 1
ENDMDL
MODEL 3
REMARK VINA RESULT:    -4.081      1.423      1.862
REMARK INTER + INTRA:          -4.513
REMARK INTER:                  -4.307
REMARK INTRA:                  -0.206
REMARK UNBOUND:                -0.193
REMARK  Name = Nicotine.pdb
REMARK  2 active torsions:
REMARK  status: ('A' for Active; 'I' for Inactive)
REMARK    1  A    between atoms: C_3  and  C_6
REMARK    2  A    between atoms: N_4  and  C_12
REMARK                            x       y       z     vdW  Elec       q    Type
REMARK                         _______ _______ _______ _____ _____    ______ ____
ROOT
ATOM      1  C   UNL     1      -1.523   2.217   1.209  0.00  0.00    +0.017 C 
ATOM      2  C   UNL     1      -1.724   1.036   0.224  0.00  0.00    +0.025 C 
ATOM      3  C   UNL     1      -0.701  -0.008   0.720  0.00  0.00    +0.088 C 
ATOM      4  N   UNL     1       0.330   0.718   1.482  0.00  0.00    -0.298 NA
ATOM      5  C   UNL     1       0.005   2.160   1.457  0.00  0.00    +0.085 C 
ATOM      6  C   UNL     1       0.415   0.220   2.861  0.00  0.00    +0.105 C 
ENDROOT
BRANCH   3   7
ATOM      7  C   UNL     1      -0.073  -0.710  -0.456  0.00  0.00    -0.012 A 
ATOM      8  C   UNL     1      -0.302  -2.056  -0.672  0.00  0.00    +0.115 A 
ATOM      9  N   UNL     1       0.244  -2.677  -1.699  0.00  0.00    -0.263 NA
ATOM     10  C   UNL     1       1.024  -2.047  -2.555  0.00  0.00    +0.111 A 
ATOM     11  C   UNL     1       1.299  -0.701  -2.404  0.00  0.00    +0.020 A 
ATOM     12  C   UNL     1       0.738  -0.013  -1.339  0.00  0.00    +0.008 A 
ENDBRANCH   3   7
TORSDOF 1
ENDMDL
MODEL 4
REMARK VINA RESULT:    -3.788      7.394      8.554
REMARK INTER + INTRA:          -4.202
REMARK INTER:                  -3.946
REMARK INTRA:                  -0.256
REMARK UNBOUND:                -0.193
REMARK  Name = Nicotine.pdb
REMARK  2 active torsions:
REMARK  status: ('A' for Active; 'I' for Inactive)
REMARK    1  A    between atoms: C_3  and  C_6
REMARK    2  A    between atoms: N_4  and  C_12
REMARK                            x       y       z     vdW  Elec       q    Type
REMARK                         _______ _______ _______ _____ _____    ______ ____
ROOT
ATOM      1  C   UNL     1       5.327   4.796  -5.338  0.00  0.00    +0.017 C 
ATOM      2  C   UNL     1       5.174   4.442  -3.835  0.00  0.00    +0.025 C 
ATOM      3  C   UNL     1       6.629   4.481  -3.320  0.00  0.00    +0.088 C 
ATOM      4  N   UNL     1       7.511   4.288  -4.486  0.00  0.00    -0.298 NA
ATOM      5  C   UNL     1       6.669   4.106  -5.688  0.00  0.00    +0.085 C 
ATOM      6  C   UNL     1       8.425   5.425  -4.649  0.00  0.00    +0.105 C 
ENDROOT
BRANCH   3   7
ATOM      7  C   UNL     1       6.849   3.375  -2.320  0.00  0.00    -0.012 A 
ATOM      8  C   UNL     1       7.886   3.452  -1.410  0.00  0.00    +0.115 A 
ATOM      9  N   UNL     1       8.085   2.489  -0.532  0.00  0.00    -0.263 NA
ATOM     10  C   UNL     1       7.311   1.422  -0.485  0.00  0.00    +0.111 A 
ATOM     11  C   UNL     1       6.254   1.276  -1.364  0.00  0.00    +0.020 A 
ATOM     12  C   UNL     1       6.010   2.271  -2.298  0.00  0.00    +0.008 A 
ENDBRANCH   3   7
TORSDOF 1
ENDMDL
MODEL 5
REMARK VINA RESULT:    -3.626      7.077      8.176
REMARK INTER + INTRA:          -4.031
REMARK INTER:                  -3.861
REMARK INTRA:                  -0.170
REMARK UNBOUND:                -0.193
REMARK  Name = Nicotine.pdb
REMARK  2 active torsions:
REMARK  status: ('A' for Active; 'I' for Inactive)
REMARK    1  A    between atoms: C_3  and  C_6
REMARK    2  A    between atoms: N_4  and  C_12
REMARK                            x       y       z     vdW  Elec       q    Type
REMARK                         _______ _______ _______ _____ _____    ______ ____
ROOT
ATOM      1  C   UNL     1       7.244   1.451  -0.478  0.00  0.00    +0.017 C 
ATOM      2  C   UNL     1       6.114   1.465  -1.540  0.00  0.00    +0.025 C 
ATOM      3  C   UNL     1       6.875   1.752  -2.852  0.00  0.00    +0.088 C 
ATOM      4  N   UNL     1       8.148   2.400  -2.487  0.00  0.00    -0.298 NA
ATOM      5  C   UNL     1       8.195   2.549  -1.017  0.00  0.00    +0.085 C 
ATOM      6  C   UNL     1       9.294   1.623  -2.975  0.00  0.00    +0.105 C 
ENDROOT
BRANCH   3   7
ATOM      7  C   UNL     1       6.063   2.671  -3.726  0.00  0.00    -0.012 A 
ATOM      8  C   UNL     1       6.060   4.034  -3.495  0.00  0.00    +0.115 A 
ATOM      9  N   UNL     1       5.352   4.846  -4.256  0.00  0.00    -0.263 NA
ATOM     10  C   UNL     1       4.623   4.397  -5.258  0.00  0.00    +0.111 A 
ATOM     11  C   UNL     1       4.576   3.046  -5.550  0.00  0.00    +0.020 A 
ATOM     12  C   UNL     1       5.313   2.163  -4.776  0.00  0.00    +0.008 A 
ENDBRANCH   3   7
TORSDOF 1
ENDMDL
MODEL 6
REMARK VINA RESULT:    -3.587      6.830      8.235
REMARK INTER + INTRA:          -3.990
REMARK INTER:                  -3.776
REMARK INTRA:                  -0.213
REMARK UNBOUND:                -0.193
REMARK  Name = Nicotine.pdb
REMARK  2 active torsions:
REMARK  status: ('A' for Active; 'I' for Inactive)
REMARK    1  A    between atoms: C_3  and  C_6
REMARK    2  A    between atoms: N_4  and  C_12
REMARK                            x       y       z     vdW  Elec       q    Type
REMARK                         _______ _______ _______ _____ _____    ______ ____
ROOT
ATOM      1  C   UNL     1       4.429   1.169  -4.642  0.00  0.00    +0.017 C 
ATOM      2  C   UNL     1       5.005   0.978  -3.215  0.00  0.00    +0.025 C 
ATOM      3  C   UNL     1       5.593   2.368  -2.889  0.00  0.00    +0.088 C 
ATOM      4  N   UNL     1       5.845   3.047  -4.172  0.00  0.00    -0.298 NA
ATOM      5  C   UNL     1       5.464   2.135  -5.271  0.00  0.00    +0.085 C 
ATOM      6  C   UNL     1       5.100   4.310  -4.254  0.00  0.00    +0.105 C 
ENDROOT
BRANCH   3   7
ATOM      7  C   UNL     1       6.884   2.212  -2.127  0.00  0.00    -0.012 A 
ATOM      8  C   UNL     1       6.887   1.656  -0.862  0.00  0.00    +0.115 A 
ATOM      9  N   UNL     1       8.012   1.517  -0.189  0.00  0.00    -0.263 NA
ATOM     10  C   UNL     1       9.171   1.899  -0.689  0.00  0.00    +0.111 A 
ATOM     11  C   UNL     1       9.246   2.463  -1.949  0.00  0.00    +0.020 A 
ATOM     12  C   UNL     1       8.084   2.620  -2.689  0.00  0.00    +0.008 A 
ENDBRANCH   3   7
TORSDOF 1
ENDMDL
MODEL 7
REMARK VINA RESULT:    -3.573      6.464      7.857
REMARK INTER + INTRA:          -3.975
REMARK INTER:                  -3.769
REMARK INTRA:                  -0.206
REMARK UNBOUND:                -0.193
REMARK  Name = Nicotine.pdb
REMARK  2 active torsions:
REMARK  status: ('A' for Active; 'I' for Inactive)
REMARK    1  A    between atoms: C_3  and  C_6
REMARK    2  A    between atoms: N_4  and  C_12
REMARK                            x       y       z     vdW  Elec       q    Type
REMARK                         _______ _______ _______ _____ _____    ______ ____
ROOT
ATOM      1  C   UNL     1       7.543   1.049  -1.369  0.00  0.00    +0.017 C 
ATOM      2  C   UNL     1       7.012   2.430  -1.835  0.00  0.00    +0.025 C 
ATOM      3  C   UNL     1       5.619   2.092  -2.407  0.00  0.00    +0.088 C 
ATOM      4  N   UNL     1       5.628   0.661  -2.760  0.00  0.00    -0.298 NA
ATOM      5  C   UNL     1       6.965   0.109  -2.456  0.00  0.00    +0.085 C 
ATOM      6  C   UNL     1       4.580  -0.067  -2.034  0.00  0.00    +0.105 C 
ENDROOT
BRANCH   3   7
ATOM      7  C   UNL     1       5.355   2.923  -3.636  0.00  0.00    -0.012 A 
ATOM      8  C   UNL     1       5.525   4.294  -3.603  0.00  0.00    +0.115 A 
ATOM      9  N   UNL     1       5.296   5.028  -4.674  0.00  0.00    -0.263 NA
ATOM     10  C   UNL     1       4.897   4.492  -5.810  0.00  0.00    +0.111 A 
ATOM     11  C   UNL     1       4.706   3.127  -5.919  0.00  0.00    +0.020 A 
ATOM     12  C   UNL     1       4.942   2.322  -4.815  0.00  0.00    +0.008 A 
ENDBRANCH   3   7
TORSDOF 1
ENDMDL
MODEL 8
REMARK VINA RESULT:    -3.526      7.206      7.993
REMARK INTER + INTRA:          -3.925
REMARK INTER:                  -3.669
REMARK INTRA:                  -0.256
REMARK UNBOUND:                -0.193
REMARK  Name = Nicotine.pdb
REMARK  2 active torsions:
REMARK  status: ('A' for Active; 'I' for Inactive)
REMARK    1  A    between atoms: C_3  and  C_6
REMARK    2  A    between atoms: N_4  and  C_12
REMARK                            x       y       z     vdW  Elec       q    Type
REMARK                         _______ _______ _______ _____ _____    ______ ____
ROOT
ATOM      1  C   UNL     1       8.938   5.011  -2.686  0.00  0.00    +0.017 C 
ATOM      2  C   UNL     1       7.565   4.506  -2.171  0.00  0.00    +0.025 C 
ATOM      3  C   UNL     1       7.912   3.140  -1.539  0.00  0.00    +0.088 C 
ATOM      4  N   UNL     1       9.173   2.685  -2.150  0.00  0.00    -0.298 NA
ATOM      5  C   UNL     1       9.606   3.690  -3.145  0.00  0.00    +0.085 C 
ATOM      6  C   UNL     1      10.208   2.474  -1.129  0.00  0.00    +0.105 C 
ENDROOT
BRANCH   3   7
ATOM      7  C   UNL     1       6.814   2.149  -1.826  0.00  0.00    -0.012 A 
ATOM      8  C   UNL     1       6.679   1.013  -1.051  0.00  0.00    +0.115 A 
ATOM      9  N   UNL     1       5.720   0.140  -1.295  0.00  0.00    -0.263 NA
ATOM     10  C   UNL     1       4.860   0.312  -2.279  0.00  0.00    +0.111 A 
ATOM     11  C   UNL     1       4.933   1.425  -3.096  0.00  0.00    +0.020 A 
ATOM     12  C   UNL     1       5.924   2.367  -2.866  0.00  0.00    +0.008 A 
ENDBRANCH   3   7
TORSDOF 1
ENDMDL
MODEL 9
REMARK VINA RESULT:    -3.485      7.728      8.684
REMARK INTER + INTRA:          -3.882
REMARK INTER:                  -3.697
REMARK INTRA:                  -0.185
REMARK UNBOUND:                -0.193
REMARK  Name = Nicotine.pdb
REMARK  2 active torsions:
REMARK  status: ('A' for Active; 'I' for Inactive)
REMARK    1  A    between atoms: C_3  and  C_6
REMARK    2  A    between atoms: N_4  and  C_12
REMARK                            x       y       z     vdW  Elec       q    Type
REMARK                         _______ _______ _______ _____ _____    ______ ____
ROOT
ATOM      1  C   UNL     1      10.694   3.612  -0.909  0.00  0.00    +0.017 C 
ATOM      2  C   UNL     1       9.783   2.358  -0.986  0.00  0.00    +0.025 C 
ATOM      3  C   UNL     1       8.952   2.610  -2.262  0.00  0.00    +0.088 C 
ATOM      4  N   UNL     1       8.970   4.062  -2.516  0.00  0.00    -0.298 NA
ATOM      5  C   UNL     1       9.750   4.718  -1.444  0.00  0.00    +0.085 C 
ATOM      6  C   UNL     1       9.537   4.359  -3.838  0.00  0.00    +0.105 C 
ENDROOT
BRANCH   3   7
ATOM      7  C   UNL     1       7.536   2.142  -2.052  0.00  0.00    -0.012 A 
ATOM      8  C   UNL     1       7.248   1.195  -1.087  0.00  0.00    +0.115 A 
ATOM      9  N   UNL     1       6.010   0.781  -0.897  0.00  0.00    -0.263 NA
ATOM     10  C   UNL     1       5.006   1.246  -1.612  0.00  0.00    +0.111 A 
ATOM     11  C   UNL     1       5.217   2.195  -2.595  0.00  0.00    +0.020 A 
ATOM     12  C   UNL     1       6.504   2.659  -2.820  0.00  0.00    +0.008 A 
ENDBRANCH   3   7
TORSDOF 1
ENDMDL
MODEL 10
REMARK VINA RESULT:    -3.431      6.420      7.176
REMARK INTER + INTRA:          -3.824
REMARK INTER:                  -3.571
REMARK INTRA:                  -0.254
REMARK UNBOUND:                -0.193
REMARK  Name = Nicotine.pdb
REMARK  2 active torsions:
REMARK  status: ('A' for Active; 'I' for Inactive)
REMARK    1  A    between atoms: C_3  and  C_6
REMARK    2  A    between atoms: N_4  and  C_12
REMARK                            x       y       z     vdW  Elec       q    Type
REMARK                         _______ _______ _______ _____ _____    ______ ____
ROOT
ATOM      1  C   UNL     1       6.580   4.750  -3.886  0.00  0.00    +0.017 C 
ATOM      2  C   UNL     1       5.562   3.875  -3.108  0.00  0.00    +0.025 C 
ATOM      3  C   UNL     1       6.464   2.849  -2.390  0.00  0.00    +0.088 C 
ATOM      4  N   UNL     1       7.733   2.785  -3.136  0.00  0.00    -0.298 NA
ATOM      5  C   UNL     1       7.647   3.703  -4.292  0.00  0.00    +0.085 C 
ATOM      6  C   UNL     1       8.870   3.131  -2.273  0.00  0.00    +0.105 C 
ENDROOT
BRANCH   3   7
ATOM      7  C   UNL     1       5.801   1.496  -2.388  0.00  0.00    -0.012 A 
ATOM      8  C   UNL     1       6.289   0.479  -1.589  0.00  0.00    +0.115 A 
ATOM      9  N   UNL     1       5.714  -0.708  -1.581  0.00  0.00    -0.263 NA
ATOM     10  C   UNL     1       4.660  -0.972  -2.328  0.00  0.00    +0.111 A 
ATOM     11  C   UNL     1       4.116  -0.005  -3.152  0.00  0.00    +0.020 A 
ATOM     12  C   UNL     1       4.690   1.256  -3.183  0.00  0.00    +0.008 A 
ENDBRANCH   3   7
TORSDOF 1
ENDMDL
