MODEL 1
REMARK VINA RESULT:    -3.223      0.000      0.000
REMARK INTER + INTRA:          -3.664
REMARK INTER:                  -3.412
REMARK INTRA:                  -0.252
REMARK UNBOUND:                -0.252
REMARK  Name = Nicotine.pdb
REMARK  2 active torsions:
REMARK  status: ('A' for Active; 'I' for Inactive)
REMARK    1  A    between atoms: C_3  and  C_6
REMARK    2  A    between atoms: N_4  and  C_12
REMARK                            x       y       z     vdW  Elec       q    Type
REMARK                         _______ _______ _______ _____ _____    ______ ____
ROOT
ATOM      1  C   UNL     1      10.356   0.596  -6.519  0.00  0.00    +0.017 C 
ATOM      2  C   UNL     1       9.303   1.492  -7.222  0.00  0.00    +0.025 C 
ATOM      3  C   UNL     1       9.267   2.751  -6.329  0.00  0.00    +0.088 C 
ATOM      4  N   UNL     1       9.773   2.359  -5.001  0.00  0.00    -0.298 NA
ATOM      5  C   UNL     1      10.094   0.916  -5.027  0.00  0.00    +0.085 C 
ATOM      6  C   UNL     1      10.951   3.155  -4.630  0.00  0.00    +0.105 C 
ENDROOT
BRANCH   3   7
ATOM      7  C   UNL     1       7.852   3.256  -6.211  0.00  0.00    -0.012 A 
ATOM      8  C   UNL     1       7.597   4.614  -6.164  0.00  0.00    +0.115 A 
ATOM      9  N   UNL     1       6.361   5.064  -6.062  0.00  0.00    -0.263 NA
ATOM     10  C   UNL     1       5.329   4.247  -6.000  0.00  0.00    +0.111 A 
ATOM     11  C   UNL     1       5.507   2.877  -6.042  0.00  0.00    +0.020 A 
ATOM     12  C   UNL     1       6.791   2.366  -6.155  0.00  0.00    +0.008 A 
ENDBRANCH   3   7
TORSDOF 1
ENDMDL
MODEL 2
REMARK VINA RESULT:    -3.125      2.007      5.421
REMARK INTER + INTRA:          -3.559
REMARK INTER:                  -3.335
REMARK INTRA:                  -0.224
REMARK UNBOUND:                -0.252
REMARK  Name = Nicotine.pdb
REMARK  2 active torsions:
REMARK  status: ('A' for Active; 'I' for Inactive)
REMARK    1  A    between atoms: C_3  and  C_6
REMARK    2  A    between atoms: N_4  and  C_12
REMARK                            x       y       z     vdW  Elec       q    Type
REMARK                         _______ _______ _______ _____ _____    ______ ____
ROOT
ATOM      1  C   UNL     1       2.469   4.797  -7.256  0.00  0.00    +0.017 C 
ATOM      2  C   UNL     1       3.454   3.645  -6.925  0.00  0.00    +0.025 C 
ATOM      3  C   UNL     1       4.288   4.225  -5.762  0.00  0.00    +0.088 C 
ATOM      4  N   UNL     1       4.187   5.693  -5.842  0.00  0.00    -0.298 NA
ATOM      5  C   UNL     1       3.353   6.045  -7.011  0.00  0.00    +0.085 C 
ATOM      6  C   UNL     1       3.623   6.251  -4.606  0.00  0.00    +0.105 C 
ENDROOT
BRANCH   3   7
ATOM      7  C   UNL     1       5.727   3.801  -5.901  0.00  0.00    -0.012 A 
ATOM      8  C   UNL     1       6.735   4.746  -5.930  0.00  0.00    +0.115 A 
ATOM      9  N   UNL     1       7.997   4.383  -6.052  0.00  0.00    -0.263 NA
ATOM     10  C   UNL     1       8.347   3.115  -6.150  0.00  0.00    +0.111 A 
ATOM     11  C   UNL     1       7.394   2.114  -6.128  0.00  0.00    +0.020 A 
ATOM     12  C   UNL     1       6.057   2.457  -5.996  0.00  0.00    +0.008 A 
ENDBRANCH   3   7
TORSDOF 1
ENDMDL
MODEL 3
REMARK VINA RESULT:    -3.076      2.366      5.973
REMARK INTER + INTRA:          -3.508
REMARK INTER:                  -3.311
REMARK INTRA:                  -0.197
REMARK UNBOUND:                -0.252
REMARK  Name = Nicotine.pdb
REMARK  2 active torsions:
REMARK  status: ('A' for Active; 'I' for Inactive)
REMARK    1  A    between atoms: C_3  and  C_6
REMARK    2  A    between atoms: N_4  and  C_12
REMARK                            x       y       z     vdW  Elec       q    Type
REMARK                         _______ _______ _______ _____ _____    ______ ____
ROOT
ATOM      1  C   UNL     1       2.959   6.643  -4.022  0.00  0.00    +0.017 C 
ATOM      2  C   UNL     1       4.462   6.277  -4.136  0.00  0.00    +0.025 C 
ATOM      3  C   UNL     1       4.631   5.970  -5.640  0.00  0.00    +0.088 C 
ATOM      4  N   UNL     1       3.298   5.628  -6.168  0.00  0.00    -0.298 NA
ATOM      5  C   UNL     1       2.323   5.683  -5.058  0.00  0.00    +0.085 C 
ATOM      6  C   UNL     1       2.913   6.537  -7.255  0.00  0.00    +0.105 C 
ENDROOT
BRANCH   3   7
ATOM      7  C   UNL     1       5.572   4.808  -5.824  0.00  0.00    -0.012 A 
ATOM      8  C   UNL     1       6.935   5.017  -5.902  0.00  0.00    +0.115 A 
ATOM      9  N   UNL     1       7.765   4.005  -6.063  0.00  0.00    -0.263 NA
ATOM     10  C   UNL     1       7.334   2.763  -6.155  0.00  0.00    +0.111 A 
ATOM     11  C   UNL     1       5.983   2.476  -6.084  0.00  0.00    +0.020 A 
ATOM     12  C   UNL     1       5.081   3.514  -5.910  0.00  0.00    +0.008 A 
ENDBRANCH   3   7
TORSDOF 1
ENDMDL
MODEL 4
REMARK VINA RESULT:    -2.928      1.449      4.825
REMARK INTER + INTRA:          -3.351
REMARK INTER:                  -3.156
REMARK INTRA:                  -0.195
REMARK UNBOUND:                -0.252
REMARK  Name = Nicotine.pdb
REMARK  2 active torsions:
REMARK  status: ('A' for Active; 'I' for Inactive)
REMARK    1  A    between atoms: C_3  and  C_6
REMARK    2  A    between atoms: N_4  and  C_12
REMARK                            x       y       z     vdW  Elec       q    Type
REMARK                         _______ _______ _______ _____ _____    ______ ____
ROOT
ATOM      1  C   UNL     1       5.264   6.573  -5.738  0.00  0.00    +0.017 C 
ATOM      2  C   UNL     1       6.551   5.938  -6.329  0.00  0.00    +0.025 C 
ATOM      3  C   UNL     1       6.160   4.455  -6.497  0.00  0.00    +0.088 C 
ATOM      4  N   UNL     1       5.040   4.190  -5.576  0.00  0.00    -0.298 NA
ATOM      5  C   UNL     1       4.740   5.432  -4.831  0.00  0.00    +0.085 C 
ATOM      6  C   UNL     1       3.858   3.715  -6.306  0.00  0.00    +0.105 C 
ENDROOT
BRANCH   3   7
ATOM      7  C   UNL     1       7.331   3.573  -6.149  0.00  0.00    -0.012 A 
ATOM      8  C   UNL     1       8.571   4.128  -5.890  0.00  0.00    +0.115 A 
ATOM      9  N   UNL     1       9.601   3.363  -5.584  0.00  0.00    -0.263 NA
ATOM     10  C   UNL     1       9.494   2.051  -5.513  0.00  0.00    +0.111 A 
ATOM     11  C   UNL     1       8.286   1.426  -5.758  0.00  0.00    +0.020 A 
ATOM     12  C   UNL     1       7.179   2.197  -6.078  0.00  0.00    +0.008 A 
ENDBRANCH   3   7
TORSDOF 1
ENDMDL
MODEL 5
REMARK VINA RESULT:    -2.898      8.617     10.326
REMARK INTER + INTRA:          -3.320
REMARK INTER:                  -3.104
REMARK INTRA:                  -0.216
REMARK UNBOUND:                -0.252
REMARK  Name = Nicotine.pdb
REMARK  2 active torsions:
REMARK  status: ('A' for Active; 'I' for Inactive)
REMARK    1  A    between atoms: C_3  and  C_6
REMARK    2  A    between atoms: N_4  and  C_12
REMARK                            x       y       z     vdW  Elec       q    Type
REMARK                         _______ _______ _______ _____ _____    ______ ____
ROOT
ATOM      1  C   UNL     1       8.417   5.110   6.085  0.00  0.00    +0.017 C 
ATOM      2  C   UNL     1       9.451   4.099   5.524  0.00  0.00    +0.025 C 
ATOM      3  C   UNL     1       9.761   4.663   4.121  0.00  0.00    +0.088 C 
ATOM      4  N   UNL     1       8.621   5.511   3.729  0.00  0.00    -0.298 NA
ATOM      5  C   UNL     1       7.615   5.477   4.812  0.00  0.00    +0.085 C 
ATOM      6  C   UNL     1       9.057   6.887   3.458  0.00  0.00    +0.105 C 
ENDROOT
BRANCH   3   7
ATOM      7  C   UNL     1       9.921   3.532   3.138  0.00  0.00    -0.012 A 
ATOM      8  C   UNL     1       9.667   3.732   1.795  0.00  0.00    +0.115 A 
ATOM      9  N   UNL     1       9.805   2.747   0.928  0.00  0.00    -0.263 NA
ATOM     10  C   UNL     1      10.187   1.542   1.303  0.00  0.00    +0.111 A 
ATOM     11  C   UNL     1      10.460   1.267   2.630  0.00  0.00    +0.020 A 
ATOM     12  C   UNL     1      10.331   2.279   3.569  0.00  0.00    +0.008 A 
ENDBRANCH   3   7
TORSDOF 1
ENDMDL
MODEL 6
REMARK VINA RESULT:    -2.766      8.077      9.819
REMARK INTER + INTRA:          -3.179
REMARK INTER:                  -2.955
REMARK INTRA:                  -0.224
REMARK UNBOUND:                -0.252
REMARK  Name = Nicotine.pdb
REMARK  2 active torsions:
REMARK  status: ('A' for Active; 'I' for Inactive)
REMARK    1  A    between atoms: C_3  and  C_6
REMARK    2  A    between atoms: N_4  and  C_12
REMARK                            x       y       z     vdW  Elec       q    Type
REMARK                         _______ _______ _______ _____ _____    ______ ____
ROOT
ATOM      1  C   UNL     1      10.242   6.515   2.716  0.00  0.00    +0.017 C 
ATOM      2  C   UNL     1      10.215   5.270   1.790  0.00  0.00    +0.025 C 
ATOM      3  C   UNL     1       9.329   4.276   2.570  0.00  0.00    +0.088 C 
ATOM      4  N   UNL     1       9.361   4.681   3.987  0.00  0.00    -0.298 NA
ATOM      5  C   UNL     1      10.243   5.860   4.120  0.00  0.00    +0.085 C 
ATOM      6  C   UNL     1       8.009   4.975   4.481  0.00  0.00    +0.105 C 
ENDROOT
BRANCH   3   7
ATOM      7  C   UNL     1       9.874   2.879   2.422  0.00  0.00    -0.012 A 
ATOM      8  C   UNL     1      10.156   2.117   3.540  0.00  0.00    +0.115 A 
ATOM      9  N   UNL     1      10.633   0.893   3.420  0.00  0.00    -0.263 NA
ATOM     10  C   UNL     1      10.858   0.350   2.240  0.00  0.00    +0.111 A 
ATOM     11  C   UNL     1      10.600   1.052   1.077  0.00  0.00    +0.020 A 
ATOM     12  C   UNL     1      10.093   2.339   1.164  0.00  0.00    +0.008 A 
ENDBRANCH   3   7
TORSDOF 1
ENDMDL
MODEL 7
REMARK VINA RESULT:    -2.501      8.174      9.410
REMARK INTER + INTRA:          -2.899
REMARK INTER:                  -2.676
REMARK INTRA:                  -0.224
REMARK UNBOUND:                -0.252
REMARK  Name = Nicotine.pdb
REMARK  2 active torsions:
REMARK  status: ('A' for Active; 'I' for Inactive)
REMARK    1  A    between atoms: C_3  and  C_6
REMARK    2  A    between atoms: N_4  and  C_12
REMARK                            x       y       z     vdW  Elec       q    Type
REMARK                         _______ _______ _______ _____ _____    ______ ____
ROOT
ATOM      1  C   UNL     1      10.954   2.525   0.661  0.00  0.00    +0.017 C 
ATOM      2  C   UNL     1      10.901   3.945   1.284  0.00  0.00    +0.025 C 
ATOM      3  C   UNL     1      10.604   3.661   2.772  0.00  0.00    +0.088 C 
ATOM      4  N   UNL     1       9.984   2.326   2.846  0.00  0.00    -0.298 NA
ATOM      5  C   UNL     1       9.862   1.786   1.475  0.00  0.00    +0.085 C 
ATOM      6  C   UNL     1      10.772   1.426   3.699  0.00  0.00    +0.105 C 
ENDROOT
BRANCH   3   7
ATOM      7  C   UNL     1       9.655   4.699   3.312  0.00  0.00    -0.012 A 
ATOM      8  C   UNL     1       8.489   4.316   3.948  0.00  0.00    +0.115 A 
ATOM      9  N   UNL     1       7.653   5.218   4.425  0.00  0.00    -0.263 NA
ATOM     10  C   UNL     1       7.891   6.510   4.315  0.00  0.00    +0.111 A 
ATOM     11  C   UNL     1       9.037   6.968   3.692  0.00  0.00    +0.020 A 
ATOM     12  C   UNL     1       9.942   6.049   3.183  0.00  0.00    +0.008 A 
ENDBRANCH   3   7
TORSDOF 1
ENDMDL
MODEL 8
REMARK VINA RESULT:    -2.235      3.432      5.719
REMARK INTER + INTRA:          -2.618
REMARK INTER:                  -2.409
REMARK INTRA:                  -0.209
REMARK UNBOUND:                -0.252
REMARK  Name = Nicotine.pdb
REMARK  2 active torsions:
REMARK  status: ('A' for Active; 'I' for Inactive)
REMARK    1  A    between atoms: C_3  and  C_6
REMARK    2  A    between atoms: N_4  and  C_12
REMARK                            x       y       z     vdW  Elec       q    Type
REMARK                         _______ _______ _______ _____ _____    ______ ____
ROOT
ATOM      1  C   UNL     1       3.067   3.996  -6.521  0.00  0.00    +0.017 C 
ATOM      2  C   UNL     1       4.553   3.809  -6.117  0.00  0.00    +0.025 C 
ATOM      3  C   UNL     1       4.809   5.003  -5.173  0.00  0.00    +0.088 C 
ATOM      4  N   UNL     1       3.800   6.031  -5.485  0.00  0.00    -0.298 NA
ATOM      5  C   UNL     1       2.953   5.539  -6.593  0.00  0.00    +0.085 C 
ATOM      6  C   UNL     1       2.989   6.350  -4.303  0.00  0.00    +0.105 C 
ENDROOT
BRANCH   3   7
ATOM      7  C   UNL     1       6.192   5.553  -5.404  0.00  0.00    -0.012 A 
ATOM      8  C   UNL     1       6.974   5.068  -6.435  0.00  0.00    +0.115 A 
ATOM      9  N   UNL     1       8.186   5.544  -6.644  0.00  0.00    -0.263 NA
ATOM     10  C   UNL     1       8.698   6.493  -5.886  0.00  0.00    +0.111 A 
ATOM     11  C   UNL     1       7.975   7.028  -4.836  0.00  0.00    +0.020 A 
ATOM     12  C   UNL     1       6.695   6.556  -4.589  0.00  0.00    +0.008 A 
ENDBRANCH   3   7
TORSDOF 1
ENDMDL
MODEL 9
REMARK VINA RESULT:    -2.126      2.034      4.821
REMARK INTER + INTRA:          -2.502
REMARK INTER:                  -2.261
REMARK INTRA:                  -0.241
REMARK UNBOUND:                -0.252
REMARK  Name = Nicotine.pdb
REMARK  2 active torsions:
REMARK  status: ('A' for Active; 'I' for Inactive)
REMARK    1  A    between atoms: C_3  and  C_6
REMARK    2  A    between atoms: N_4  and  C_12
REMARK                            x       y       z     vdW  Elec       q    Type
REMARK                         _______ _______ _______ _____ _____    ______ ____
ROOT
ATOM      1  C   UNL     1       4.764   5.416  -6.702  0.00  0.00    +0.017 C 
ATOM      2  C   UNL     1       6.209   5.967  -6.583  0.00  0.00    +0.025 C 
ATOM      3  C   UNL     1       7.068   4.685  -6.557  0.00  0.00    +0.088 C 
ATOM      4  N   UNL     1       6.195   3.583  -6.115  0.00  0.00    -0.298 NA
ATOM      5  C   UNL     1       4.848   4.129  -5.844  0.00  0.00    +0.085 C 
ATOM      6  C   UNL     1       6.138   2.518  -7.125  0.00  0.00    +0.105 C 
ENDROOT
BRANCH   3   7
ATOM      7  C   UNL     1       8.212   4.854  -5.591  0.00  0.00    -0.012 A 
ATOM      8  C   UNL     1       9.137   3.841  -5.419  0.00  0.00    +0.115 A 
ATOM      9  N   UNL     1      10.141   3.980  -4.576  0.00  0.00    -0.263 NA
ATOM     10  C   UNL     1      10.304   5.081  -3.868  0.00  0.00    +0.111 A 
ATOM     11  C   UNL     1       9.419   6.136  -3.987  0.00  0.00    +0.020 A 
ATOM     12  C   UNL     1       8.354   6.028  -4.868  0.00  0.00    +0.008 A 
ENDBRANCH   3   7
TORSDOF 1
ENDMDL
