MODEL 1
REMARK VINA RESULT:    14.450      0.000      0.000
REMARK INTER + INTRA:          15.073
REMARK INTER:                  15.295
REMARK INTRA:                  -0.222
REMARK UNBOUND:                -0.222
REMARK  Name = Nicotine.pdb
REMARK  2 active torsions:
REMARK  status: ('A' for Active; 'I' for Inactive)
REMARK    1  A    between atoms: C_3  and  C_6
REMARK    2  A    between atoms: N_4  and  C_12
REMARK                            x       y       z     vdW  Elec       q    Type
REMARK                         _______ _______ _______ _____ _____    ______ ____
ROOT
ATOM      1  C   UNL     1       2.675   0.030  -1.381  0.00  0.00    +0.017 C 
ATOM      2  C   UNL     1       1.981  -1.247  -1.924  0.00  0.00    +0.025 C 
ATOM      3  C   UNL     1       3.163  -2.081  -2.464  0.00  0.00    +0.088 C 
ATOM      4  N   UNL     1       4.271  -1.146  -2.731  0.00  0.00    -0.298 NA
ATOM      5  C   UNL     1       3.821   0.224  -2.405  0.00  0.00    +0.085 C 
ATOM      6  C   UNL     1       5.464  -1.508  -1.953  0.00  0.00    +0.105 C 
ENDROOT
BRANCH   3   7
ATOM      7  C   UNL     1       2.759  -2.777  -3.738  0.00  0.00    -0.012 A 
ATOM      8  C   UNL     1       3.441  -2.531  -4.915  0.00  0.00    +0.115 A 
ATOM      9  N   UNL     1       3.094  -3.136  -6.034  0.00  0.00    -0.263 NA
ATOM     10  C   UNL     1       2.093  -3.992  -6.078  0.00  0.00    +0.111 A 
ATOM     11  C   UNL     1       1.365  -4.289  -4.940  0.00  0.00    +0.020 A 
ATOM     12  C   UNL     1       1.704  -3.676  -3.743  0.00  0.00    +0.008 A 
ENDBRANCH   3   7
TORSDOF 1
ENDMDL
MODEL 2
REMARK VINA RESULT:    14.517      0.979      2.007
REMARK INTER + INTRA:          15.143
REMARK INTER:                  15.353
REMARK INTRA:                  -0.210
REMARK UNBOUND:                -0.222
REMARK  Name = Nicotine.pdb
REMARK  2 active torsions:
REMARK  status: ('A' for Active; 'I' for Inactive)
REMARK    1  A    between atoms: C_3  and  C_6
REMARK    2  A    between atoms: N_4  and  C_12
REMARK                            x       y       z     vdW  Elec       q    Type
REMARK                         _______ _______ _______ _____ _____    ______ ____
ROOT
ATOM      1  C   UNL     1       5.864  -1.455  -2.181  0.00  0.00    +0.017 C 
ATOM      2  C   UNL     1       5.360  -1.976  -3.554  0.00  0.00    +0.025 C 
ATOM      3  C   UNL     1       3.907  -1.458  -3.609  0.00  0.00    +0.088 C 
ATOM      4  N   UNL     1       3.478  -1.211  -2.221  0.00  0.00    -0.298 NA
ATOM      5  C   UNL     1       4.587  -1.576  -1.313  0.00  0.00    +0.085 C 
ATOM      6  C   UNL     1       3.082   0.190  -2.032  0.00  0.00    +0.105 C 
ENDROOT
BRANCH   3   7
ATOM      7  C   UNL     1       3.018  -2.494  -4.246  0.00  0.00    -0.012 A 
ATOM      8  C   UNL     1       3.114  -2.761  -5.598  0.00  0.00    +0.115 A 
ATOM      9  N   UNL     1       2.339  -3.667  -6.164  0.00  0.00    -0.263 NA
ATOM     10  C   UNL     1       1.449  -4.348  -5.470  0.00  0.00    +0.111 A 
ATOM     11  C   UNL     1       1.296  -4.135  -4.112  0.00  0.00    +0.020 A 
ATOM     12  C   UNL     1       2.097  -3.195  -3.482  0.00  0.00    +0.008 A 
ENDBRANCH   3   7
TORSDOF 1
ENDMDL
MODEL 3
REMARK VINA RESULT:    14.797      1.795      4.519
REMARK INTER + INTRA:          15.440
REMARK INTER:                  15.696
REMARK INTRA:                  -0.256
REMARK UNBOUND:                -0.222
REMARK  Name = Nicotine.pdb
REMARK  2 active torsions:
REMARK  status: ('A' for Active; 'I' for Inactive)
REMARK    1  A    between atoms: C_3  and  C_6
REMARK    2  A    between atoms: N_4  and  C_12
REMARK                            x       y       z     vdW  Elec       q    Type
REMARK                         _______ _______ _______ _____ _____    ______ ____
ROOT
ATOM      1  C   UNL     1       2.079  -0.922  -2.386  0.00  0.00    +0.017 C 
ATOM      2  C   UNL     1       3.505  -0.401  -2.067  0.00  0.00    +0.025 C 
ATOM      3  C   UNL     1       4.397  -1.221  -3.024  0.00  0.00    +0.088 C 
ATOM      4  N   UNL     1       3.647  -2.439  -3.382  0.00  0.00    -0.298 NA
ATOM      5  C   UNL     1       2.350  -2.419  -2.673  0.00  0.00    +0.085 C 
ATOM      6  C   UNL     1       3.452  -2.529  -4.835  0.00  0.00    +0.105 C 
ENDROOT
BRANCH   3   7
ATOM      7  C   UNL     1       5.683  -1.594  -2.333  0.00  0.00    -0.012 A 
ATOM      8  C   UNL     1       6.832  -1.814  -3.068  0.00  0.00    +0.115 A 
ATOM      9  N   UNL     1       7.962  -2.141  -2.472  0.00  0.00    -0.263 NA
ATOM     10  C   UNL     1       8.043  -2.269  -1.162  0.00  0.00    +0.111 A 
ATOM     11  C   UNL     1       6.935  -2.064  -0.362  0.00  0.00    +0.020 A 
ATOM     12  C   UNL     1       5.730  -1.714  -0.953  0.00  0.00    +0.008 A 
ENDBRANCH   3   7
TORSDOF 1
ENDMDL
MODEL 4
REMARK VINA RESULT:    14.820      1.296      4.679
REMARK INTER + INTRA:          15.464
REMARK INTER:                  15.682
REMARK INTRA:                  -0.218
REMARK UNBOUND:                -0.222
REMARK  Name = Nicotine.pdb
REMARK  2 active torsions:
REMARK  status: ('A' for Active; 'I' for Inactive)
REMARK    1  A    between atoms: C_3  and  C_6
REMARK    2  A    between atoms: N_4  and  C_12
REMARK                            x       y       z     vdW  Elec       q    Type
REMARK                         _______ _______ _______ _____ _____    ______ ____
ROOT
ATOM      1  C   UNL     1       2.960  -4.214  -6.186  0.00  0.00    +0.017 C 
ATOM      2  C   UNL     1       3.827  -3.593  -5.060  0.00  0.00    +0.025 C 
ATOM      3  C   UNL     1       2.845  -3.509  -3.872  0.00  0.00    +0.088 C 
ATOM      4  N   UNL     1       1.481  -3.516  -4.431  0.00  0.00    -0.298 NA
ATOM      5  C   UNL     1       1.577  -3.575  -5.906  0.00  0.00    +0.085 C 
ATOM      6  C   UNL     1       0.703  -4.646  -3.909  0.00  0.00    +0.105 C 
ENDROOT
BRANCH   3   7
ATOM      7  C   UNL     1       3.079  -2.235  -3.103  0.00  0.00    -0.012 A 
ATOM      8  C   UNL     1       2.009  -1.493  -2.638  0.00  0.00    +0.115 A 
ATOM      9  N   UNL     1       2.205  -0.376  -1.964  0.00  0.00    -0.263 NA
ATOM     10  C   UNL     1       3.417   0.075  -1.708  0.00  0.00    +0.111 A 
ATOM     11  C   UNL     1       4.535  -0.613  -2.141  0.00  0.00    +0.020 A 
ATOM     12  C   UNL     1       4.368  -1.794  -2.848  0.00  0.00    +0.008 A 
ENDBRANCH   3   7
TORSDOF 1
ENDMDL
MODEL 5
REMARK VINA RESULT:    14.855      1.727      2.695
REMARK INTER + INTRA:          15.501
REMARK INTER:                  15.719
REMARK INTRA:                  -0.217
REMARK UNBOUND:                -0.222
REMARK  Name = Nicotine.pdb
REMARK  2 active torsions:
REMARK  status: ('A' for Active; 'I' for Inactive)
REMARK    1  A    between atoms: C_3  and  C_6
REMARK    2  A    between atoms: N_4  and  C_12
REMARK                            x       y       z     vdW  Elec       q    Type
REMARK                         _______ _______ _______ _____ _____    ______ ____
ROOT
ATOM      1  C   UNL     1       2.927  -1.599  -2.759  0.00  0.00    +0.017 C 
ATOM      2  C   UNL     1       1.961  -2.813  -2.773  0.00  0.00    +0.025 C 
ATOM      3  C   UNL     1       2.433  -3.618  -4.003  0.00  0.00    +0.088 C 
ATOM      4  N   UNL     1       3.153  -2.683  -4.886  0.00  0.00    -0.298 NA
ATOM      5  C   UNL     1       3.125  -1.338  -4.273  0.00  0.00    +0.085 C 
ATOM      6  C   UNL     1       4.533  -3.130  -5.113  0.00  0.00    +0.105 C 
ENDROOT
BRANCH   3   7
ATOM      7  C   UNL     1       1.243  -4.195  -4.725  0.00  0.00    -0.012 A 
ATOM      8  C   UNL     1       1.211  -4.225  -6.106  0.00  0.00    +0.115 A 
ATOM      9  N   UNL     1       0.174  -4.729  -6.746  0.00  0.00    -0.263 NA
ATOM     10  C   UNL     1      -0.866  -5.220  -6.102  0.00  0.00    +0.111 A 
ATOM     11  C   UNL     1      -0.905  -5.224  -4.720  0.00  0.00    +0.020 A 
ATOM     12  C   UNL     1       0.170  -4.708  -4.013  0.00  0.00    +0.008 A 
ENDBRANCH   3   7
TORSDOF 1
ENDMDL
