MODEL 1
REMARK VINA RESULT:    27.423      0.000      0.000
REMARK INTER + INTRA:          28.778
REMARK INTER:                  29.027
REMARK INTRA:                  -0.249
REMARK UNBOUND:                -0.249
REMARK  Name = Nicotine.pdb
REMARK  2 active torsions:
REMARK  status: ('A' for Active; 'I' for Inactive)
REMARK    1  A    between atoms: C_3  and  C_6
REMARK    2  A    between atoms: N_4  and  C_12
REMARK                            x       y       z     vdW  Elec       q    Type
REMARK                         _______ _______ _______ _____ _____    ______ ____
ROOT
ATOM      1  C   UNL     1      -3.507   5.057  -5.707  0.00  0.00    +0.017 C 
ATOM      2  C   UNL     1      -3.061   3.976  -4.687  0.00  0.00    +0.025 C 
ATOM      3  C   UNL     1      -3.889   2.742  -5.105  0.00  0.00    +0.088 C 
ATOM      4  N   UNL     1      -5.060   3.235  -5.854  0.00  0.00    -0.298 NA
ATOM      5  C   UNL     1      -5.005   4.712  -5.895  0.00  0.00    +0.085 C 
ATOM      6  C   UNL     1      -5.094   2.671  -7.209  0.00  0.00    +0.105 C 
ENDROOT
BRANCH   3   7
ATOM      7  C   UNL     1      -4.342   1.990  -3.881  0.00  0.00    -0.012 A 
ATOM      8  C   UNL     1      -4.341   0.608  -3.870  0.00  0.00    +0.115 A 
ATOM      9  N   UNL     1      -4.735  -0.059  -2.802  0.00  0.00    -0.263 NA
ATOM     10  C   UNL     1      -5.143   0.559  -1.711  0.00  0.00    +0.111 A 
ATOM     11  C   UNL     1      -5.171   1.939  -1.648  0.00  0.00    +0.020 A 
ATOM     12  C   UNL     1      -4.759   2.674  -2.749  0.00  0.00    +0.008 A 
ENDBRANCH   3   7
TORSDOF 1
ENDMDL
MODEL 2
REMARK VINA RESULT:    28.530      0.851      1.415
REMARK INTER + INTRA:          29.948
REMARK INTER:                  30.129
REMARK INTRA:                  -0.181
REMARK UNBOUND:                -0.249
REMARK  Name = Nicotine.pdb
REMARK  2 active torsions:
REMARK  status: ('A' for Active; 'I' for Inactive)
REMARK    1  A    between atoms: C_3  and  C_6
REMARK    2  A    between atoms: N_4  and  C_12
REMARK                            x       y       z     vdW  Elec       q    Type
REMARK                         _______ _______ _______ _____ _____    ______ ____
ROOT
ATOM      1  C   UNL     1      -2.864   4.802  -5.679  0.00  0.00    +0.017 C 
ATOM      2  C   UNL     1      -2.595   3.566  -4.781  0.00  0.00    +0.025 C 
ATOM      3  C   UNL     1      -3.741   2.605  -5.161  0.00  0.00    +0.088 C 
ATOM      4  N   UNL     1      -4.825   3.423  -5.734  0.00  0.00    -0.298 NA
ATOM      5  C   UNL     1      -4.412   4.842  -5.702  0.00  0.00    +0.085 C 
ATOM      6  C   UNL     1      -5.139   2.996  -7.104  0.00  0.00    +0.105 C 
ENDROOT
BRANCH   3   7
ATOM      7  C   UNL     1      -4.234   1.884  -3.933  0.00  0.00    -0.012 A 
ATOM      8  C   UNL     1      -4.726   2.596  -2.855  0.00  0.00    +0.115 A 
ATOM      9  N   UNL     1      -5.160   1.973  -1.777  0.00  0.00    -0.263 NA
ATOM     10  C   UNL     1      -5.143   0.659  -1.682  0.00  0.00    +0.111 A 
ATOM     11  C   UNL     1      -4.666  -0.120  -2.720  0.00  0.00    +0.020 A 
ATOM     12  C   UNL     1      -4.206   0.499  -3.872  0.00  0.00    +0.008 A 
ENDBRANCH   3   7
TORSDOF 1
ENDMDL
