MODEL 1
REMARK VINA RESULT:    -4.574      0.000      0.000
REMARK INTER + INTRA:          -5.061
REMARK INTER:                  -4.841
REMARK INTRA:                  -0.220
REMARK UNBOUND:                -0.220
REMARK  Name = Nicotine.pdb
REMARK  2 active torsions:
REMARK  status: ('A' for Active; 'I' for Inactive)
REMARK    1  A    between atoms: C_3  and  C_6
REMARK    2  A    between atoms: N_4  and  C_12
REMARK                            x       y       z     vdW  Elec       q    Type
REMARK                         _______ _______ _______ _____ _____    ______ ____
ROOT
ATOM      1  C   UNL     1       9.810  -4.956   5.921  0.00  0.00    +0.017 C 
ATOM      2  C   UNL     1       9.877  -3.440   6.244  0.00  0.00    +0.025 C 
ATOM      3  C   UNL     1       8.392  -3.018   6.240  0.00  0.00    +0.088 C 
ATOM      4  N   UNL     1       7.657  -4.013   5.440  0.00  0.00    -0.298 NA
ATOM      5  C   UNL     1       8.621  -5.012   4.930  0.00  0.00    +0.085 C 
ATOM      6  C   UNL     1       6.604  -4.656   6.236  0.00  0.00    +0.105 C 
ENDROOT
BRANCH   3   7
ATOM      7  C   UNL     1       8.249  -1.652   5.621  0.00  0.00    -0.012 A 
ATOM      8  C   UNL     1       7.520  -1.485   4.458  0.00  0.00    +0.115 A 
ATOM      9  N   UNL     1       7.389  -0.293   3.909  0.00  0.00    -0.263 NA
ATOM     10  C   UNL     1       7.942   0.779   4.441  0.00  0.00    +0.111 A 
ATOM     11  C   UNL     1       8.685   0.690   5.603  0.00  0.00    +0.020 A 
ATOM     12  C   UNL     1       8.840  -0.546   6.212  0.00  0.00    +0.008 A 
ENDBRANCH   3   7
TORSDOF 1
ENDMDL
MODEL 2
REMARK VINA RESULT:    -3.804      1.183      4.461
REMARK INTER + INTRA:          -4.247
REMARK INTER:                  -4.076
REMARK INTRA:                  -0.170
REMARK UNBOUND:                -0.220
REMARK  Name = Nicotine.pdb
REMARK  2 active torsions:
REMARK  status: ('A' for Active; 'I' for Inactive)
REMARK    1  A    between atoms: C_3  and  C_6
REMARK    2  A    between atoms: N_4  and  C_12
REMARK                            x       y       z     vdW  Elec       q    Type
REMARK                         _______ _______ _______ _____ _____    ______ ____
ROOT
ATOM      1  C   UNL     1       8.198   0.272   6.179  0.00  0.00    +0.017 C 
ATOM      2  C   UNL     1       8.984  -1.064   6.243  0.00  0.00    +0.025 C 
ATOM      3  C   UNL     1       8.488  -1.819   4.992  0.00  0.00    +0.088 C 
ATOM      4  N   UNL     1       7.180  -1.247   4.626  0.00  0.00    -0.298 NA
ATOM      5  C   UNL     1       6.836  -0.194   5.605  0.00  0.00    +0.085 C 
ATOM      6  C   UNL     1       7.204  -0.709   3.260  0.00  0.00    +0.105 C 
ENDROOT
BRANCH   3   7
ATOM      7  C   UNL     1       8.338  -3.286   5.305  0.00  0.00    -0.012 A 
ATOM      8  C   UNL     1       7.208  -3.750   5.952  0.00  0.00    +0.115 A 
ATOM      9  N   UNL     1       7.068  -5.032   6.229  0.00  0.00    -0.263 NA
ATOM     10  C   UNL     1       7.992  -5.916   5.906  0.00  0.00    +0.111 A 
ATOM     11  C   UNL     1       9.148  -5.525   5.257  0.00  0.00    +0.020 A 
ATOM     12  C   UNL     1       9.328  -4.186   4.944  0.00  0.00    +0.008 A 
ENDBRANCH   3   7
TORSDOF 1
ENDMDL
MODEL 3
REMARK VINA RESULT:    -3.648      1.546      4.373
REMARK INTER + INTRA:          -4.081
REMARK INTER:                  -3.889
REMARK INTRA:                  -0.192
REMARK UNBOUND:                -0.220
REMARK  Name = Nicotine.pdb
REMARK  2 active torsions:
REMARK  status: ('A' for Active; 'I' for Inactive)
REMARK    1  A    between atoms: C_3  and  C_6
REMARK    2  A    between atoms: N_4  and  C_12
REMARK                            x       y       z     vdW  Elec       q    Type
REMARK                         _______ _______ _______ _____ _____    ______ ____
ROOT
ATOM      1  C   UNL     1       7.213  -0.964   3.235  0.00  0.00    +0.017 C 
ATOM      2  C   UNL     1       7.565  -2.473   3.322  0.00  0.00    +0.025 C 
ATOM      3  C   UNL     1       7.276  -2.813   4.800  0.00  0.00    +0.088 C 
ATOM      4  N   UNL     1       7.337  -1.550   5.558  0.00  0.00    -0.298 NA
ATOM      5  C   UNL     1       7.675  -0.455   4.624  0.00  0.00    +0.085 C 
ATOM      6  C   UNL     1       6.066  -1.285   6.244  0.00  0.00    +0.105 C 
ENDROOT
BRANCH   3   7
ATOM      7  C   UNL     1       8.314  -3.774   5.317  0.00  0.00    -0.012 A 
ATOM      8  C   UNL     1       8.059  -5.132   5.340  0.00  0.00    +0.115 A 
ATOM      9  N   UNL     1       8.962  -5.981   5.791  0.00  0.00    -0.263 NA
ATOM     10  C   UNL     1      10.134  -5.574   6.236  0.00  0.00    +0.111 A 
ATOM     11  C   UNL     1      10.460  -4.231   6.244  0.00  0.00    +0.020 A 
ATOM     12  C   UNL     1       9.538  -3.309   5.772  0.00  0.00    +0.008 A 
ENDBRANCH   3   7
TORSDOF 1
ENDMDL
MODEL 4
REMARK VINA RESULT:    -3.305      1.454      4.703
REMARK INTER + INTRA:          -3.718
REMARK INTER:                  -3.503
REMARK INTRA:                  -0.216
REMARK UNBOUND:                -0.220
REMARK  Name = Nicotine.pdb
REMARK  2 active torsions:
REMARK  status: ('A' for Active; 'I' for Inactive)
REMARK    1  A    between atoms: C_3  and  C_6
REMARK    2  A    between atoms: N_4  and  C_12
REMARK                            x       y       z     vdW  Elec       q    Type
REMARK                         _______ _______ _______ _____ _____    ______ ____
ROOT
ATOM      1  C   UNL     1       6.150  -0.679   5.192  0.00  0.00    +0.017 C 
ATOM      2  C   UNL     1       6.244  -2.074   5.866  0.00  0.00    +0.025 C 
ATOM      3  C   UNL     1       7.737  -2.177   6.244  0.00  0.00    +0.088 C 
ATOM      4  N   UNL     1       8.474  -1.247   5.370  0.00  0.00    -0.298 NA
ATOM      5  C   UNL     1       7.511  -0.595   4.457  0.00  0.00    +0.085 C 
ATOM      6  C   UNL     1       9.207  -0.250   6.161  0.00  0.00    +0.105 C 
ENDROOT
BRANCH   3   7
ATOM      7  C   UNL     1       8.225  -3.585   6.024  0.00  0.00    -0.012 A 
ATOM      8  C   UNL     1       9.558  -3.829   5.753  0.00  0.00    +0.115 A 
ATOM      9  N   UNL     1       9.994  -5.058   5.559  0.00  0.00    -0.263 NA
ATOM     10  C   UNL     1       9.184  -6.097   5.614  0.00  0.00    +0.111 A 
ATOM     11  C   UNL     1       7.838  -5.931   5.880  0.00  0.00    +0.020 A 
ATOM     12  C   UNL     1       7.344  -4.654   6.095  0.00  0.00    +0.008 A 
ENDBRANCH   3   7
TORSDOF 1
ENDMDL
MODEL 5
REMARK VINA RESULT:    -2.732      1.152      1.988
REMARK INTER + INTRA:          -3.112
REMARK INTER:                  -2.918
REMARK INTRA:                  -0.194
REMARK UNBOUND:                -0.220
REMARK  Name = Nicotine.pdb
REMARK  2 active torsions:
REMARK  status: ('A' for Active; 'I' for Inactive)
REMARK    1  A    between atoms: C_3  and  C_6
REMARK    2  A    between atoms: N_4  and  C_12
REMARK                            x       y       z     vdW  Elec       q    Type
REMARK                         _______ _______ _______ _____ _____    ______ ____
ROOT
ATOM      1  C   UNL     1       6.778  -4.515   6.024  0.00  0.00    +0.017 C 
ATOM      2  C   UNL     1       6.395  -3.102   5.511  0.00  0.00    +0.025 C 
ATOM      3  C   UNL     1       7.621  -2.696   4.665  0.00  0.00    +0.088 C 
ATOM      4  N   UNL     1       8.762  -3.502   5.133  0.00  0.00    -0.298 NA
ATOM      5  C   UNL     1       8.305  -4.366   6.243  0.00  0.00    +0.085 C 
ATOM      6  C   UNL     1       9.326  -4.304   4.040  0.00  0.00    +0.105 C 
ENDROOT
BRANCH   3   7
ATOM      7  C   UNL     1       7.913  -1.231   4.856  0.00  0.00    -0.012 A 
ATOM      8  C   UNL     1       7.357  -0.290   4.010  0.00  0.00    +0.115 A 
ATOM      9  N   UNL     1       7.608   0.994   4.170  0.00  0.00    -0.263 NA
ATOM     10  C   UNL     1       8.392   1.432   5.135  0.00  0.00    +0.111 A 
ATOM     11  C   UNL     1       8.984   0.550   6.021  0.00  0.00    +0.020 A 
ATOM     12  C   UNL     1       8.739  -0.808   5.886  0.00  0.00    +0.008 A 
ENDBRANCH   3   7
TORSDOF 1
ENDMDL
MODEL 6
REMARK VINA RESULT:    -2.700      1.572      2.201
REMARK INTER + INTRA:          -3.078
REMARK INTER:                  -2.862
REMARK INTRA:                  -0.215
REMARK UNBOUND:                -0.220
REMARK  Name = Nicotine.pdb
REMARK  2 active torsions:
REMARK  status: ('A' for Active; 'I' for Inactive)
REMARK    1  A    between atoms: C_3  and  C_6
REMARK    2  A    between atoms: N_4  and  C_12
REMARK                            x       y       z     vdW  Elec       q    Type
REMARK                         _______ _______ _______ _____ _____    ______ ____
ROOT
ATOM      1  C   UNL     1       8.752  -5.641   4.760  0.00  0.00    +0.017 C 
ATOM      2  C   UNL     1       8.106  -4.316   4.277  0.00  0.00    +0.025 C 
ATOM      3  C   UNL     1       8.897  -3.241   5.052  0.00  0.00    +0.088 C 
ATOM      4  N   UNL     1       9.479  -3.896   6.237  0.00  0.00    -0.298 NA
ATOM      5  C   UNL     1       9.063  -5.315   6.242  0.00  0.00    +0.085 C 
ATOM      6  C   UNL     1      10.942  -3.776   6.241  0.00  0.00    +0.105 C 
ENDROOT
BRANCH   3   7
ATOM      7  C   UNL     1       7.971  -2.132   5.481  0.00  0.00    -0.012 A 
ATOM      8  C   UNL     1       6.605  -2.338   5.520  0.00  0.00    +0.115 A 
ATOM      9  N   UNL     1       5.787  -1.373   5.894  0.00  0.00    -0.263 NA
ATOM     10  C   UNL     1       6.234  -0.183   6.243  0.00  0.00    +0.111 A 
ATOM     11  C   UNL     1       7.588   0.097   6.230  0.00  0.00    +0.020 A 
ATOM     12  C   UNL     1       8.478  -0.895   5.847  0.00  0.00    +0.008 A 
ENDBRANCH   3   7
TORSDOF 1
ENDMDL
MODEL 7
REMARK VINA RESULT:    -1.820      1.111      4.523
REMARK INTER + INTRA:          -2.146
REMARK INTER:                  -1.939
REMARK INTRA:                  -0.207
REMARK UNBOUND:                -0.220
REMARK  Name = Nicotine.pdb
REMARK  2 active torsions:
REMARK  status: ('A' for Active; 'I' for Inactive)
REMARK    1  A    between atoms: C_3  and  C_6
REMARK    2  A    between atoms: N_4  and  C_12
REMARK                            x       y       z     vdW  Elec       q    Type
REMARK                         _______ _______ _______ _____ _____    ______ ____
ROOT
ATOM      1  C   UNL     1       8.745   1.201   5.599  0.00  0.00    +0.017 C 
ATOM      2  C   UNL     1       9.179  -0.277   5.778  0.00  0.00    +0.025 C 
ATOM      3  C   UNL     1       8.343  -1.016   4.711  0.00  0.00    +0.088 C 
ATOM      4  N   UNL     1       7.179  -0.166   4.402  0.00  0.00    -0.298 NA
ATOM      5  C   UNL     1       7.245   1.047   5.245  0.00  0.00    +0.085 C 
ATOM      6  C   UNL     1       7.147   0.185   2.976  0.00  0.00    +0.105 C 
ENDROOT
BRANCH   3   7
ATOM      7  C   UNL     1       7.881  -2.344   5.251  0.00  0.00    -0.012 A 
ATOM      8  C   UNL     1       8.765  -3.401   5.357  0.00  0.00    +0.115 A 
ATOM      9  N   UNL     1       8.369  -4.568   5.829  0.00  0.00    -0.263 NA
ATOM     10  C   UNL     1       7.125  -4.773   6.214  0.00  0.00    +0.111 A 
ATOM     11  C   UNL     1       6.184  -3.762   6.137  0.00  0.00    +0.020 A 
ATOM     12  C   UNL     1       6.566  -2.521   5.652  0.00  0.00    +0.008 A 
ENDBRANCH   3   7
TORSDOF 1
ENDMDL
