MODEL 1
REMARK VINA RESULT:    -3.004      0.000      0.000
REMARK INTER + INTRA:          -3.353
REMARK INTER:                  -3.179
REMARK INTRA:                  -0.174
REMARK UNBOUND:                -0.174
REMARK  Name = Nicotine.pdb
REMARK  2 active torsions:
REMARK  status: ('A' for Active; 'I' for Inactive)
REMARK    1  A    between atoms: C_3  and  C_6
REMARK    2  A    between atoms: N_4  and  C_12
REMARK                            x       y       z     vdW  Elec       q    Type
REMARK                         _______ _______ _______ _____ _____    ______ ____
ROOT
ATOM      1  C   UNL     1       4.120  -3.601  -4.096  0.00  0.00    +0.017 C 
ATOM      2  C   UNL     1       5.527  -2.954  -4.187  0.00  0.00    +0.025 C 
ATOM      3  C   UNL     1       6.020  -3.389  -5.584  0.00  0.00    +0.088 C 
ATOM      4  N   UNL     1       5.258  -4.593  -5.960  0.00  0.00    -0.298 NA
ATOM      5  C   UNL     1       4.340  -4.935  -4.853  0.00  0.00    +0.085 C 
ATOM      6  C   UNL     1       4.519  -4.380  -7.211  0.00  0.00    +0.105 C 
ENDROOT
BRANCH   3   7
ATOM      7  C   UNL     1       7.492  -3.707  -5.532  0.00  0.00    -0.012 A 
ATOM      8  C   UNL     1       7.950  -4.776  -4.786  0.00  0.00    +0.115 A 
ATOM      9  N   UNL     1       9.237  -5.061  -4.735  0.00  0.00    -0.263 NA
ATOM     10  C   UNL     1      10.131  -4.345  -5.388  0.00  0.00    +0.111 A 
ATOM     11  C   UNL     1       9.747  -3.262  -6.155  0.00  0.00    +0.020 A 
ATOM     12  C   UNL     1       8.403  -2.935  -6.237  0.00  0.00    +0.008 A 
ENDBRANCH   3   7
TORSDOF 1
ENDMDL
MODEL 2
REMARK VINA RESULT:    -2.975      1.227      1.636
REMARK INTER + INTRA:          -3.323
REMARK INTER:                  -3.105
REMARK INTRA:                  -0.218
REMARK UNBOUND:                -0.174
REMARK  Name = Nicotine.pdb
REMARK  2 active torsions:
REMARK  status: ('A' for Active; 'I' for Inactive)
REMARK    1  A    between atoms: C_3  and  C_6
REMARK    2  A    between atoms: N_4  and  C_12
REMARK                            x       y       z     vdW  Elec       q    Type
REMARK                         _______ _______ _______ _____ _____    ______ ____
ROOT
ATOM      1  C   UNL     1       4.180  -3.606  -3.963  0.00  0.00    +0.017 C 
ATOM      2  C   UNL     1       5.387  -2.710  -4.345  0.00  0.00    +0.025 C 
ATOM      3  C   UNL     1       5.668  -3.111  -5.809  0.00  0.00    +0.088 C 
ATOM      4  N   UNL     1       5.096  -4.454  -6.011  0.00  0.00    -0.298 NA
ATOM      5  C   UNL     1       4.500  -4.909  -4.737  0.00  0.00    +0.085 C 
ATOM      6  C   UNL     1       4.097  -4.445  -7.087  0.00  0.00    +0.105 C 
ENDROOT
BRANCH   3   7
ATOM      7  C   UNL     1       7.154  -3.142  -6.056  0.00  0.00    -0.012 A 
ATOM      8  C   UNL     1       7.717  -2.343  -7.033  0.00  0.00    +0.115 A 
ATOM      9  N   UNL     1       9.017  -2.365  -7.255  0.00  0.00    -0.263 NA
ATOM     10  C   UNL     1       9.826  -3.142  -6.562  0.00  0.00    +0.111 A 
ATOM     11  C   UNL     1       9.335  -3.968  -5.569  0.00  0.00    +0.020 A 
ATOM     12  C   UNL     1       7.975  -3.968  -5.303  0.00  0.00    +0.008 A 
ENDBRANCH   3   7
TORSDOF 1
ENDMDL
MODEL 3
REMARK VINA RESULT:    -2.779      6.297      7.630
REMARK INTER + INTRA:          -3.116
REMARK INTER:                  -2.917
REMARK INTRA:                  -0.199
REMARK UNBOUND:                -0.174
REMARK  Name = Nicotine.pdb
REMARK  2 active torsions:
REMARK  status: ('A' for Active; 'I' for Inactive)
REMARK    1  A    between atoms: C_3  and  C_6
REMARK    2  A    between atoms: N_4  and  C_12
REMARK                            x       y       z     vdW  Elec       q    Type
REMARK                         _______ _______ _______ _____ _____    ______ ____
ROOT
ATOM      1  C   UNL     1       8.394  -5.862  -1.775  0.00  0.00    +0.017 C 
ATOM      2  C   UNL     1       8.024  -5.312  -0.372  0.00  0.00    +0.025 C 
ATOM      3  C   UNL     1       9.257  -4.464   0.004  0.00  0.00    +0.088 C 
ATOM      4  N   UNL     1      10.390  -4.959  -0.798  0.00  0.00    -0.298 NA
ATOM      5  C   UNL     1       9.919  -6.087  -1.630  0.00  0.00    +0.085 C 
ATOM      6  C   UNL     1      10.954  -3.889  -1.631  0.00  0.00    +0.105 C 
ENDROOT
BRANCH   3   7
ATOM      7  C   UNL     1       9.559  -4.621   1.472  0.00  0.00    -0.012 A 
ATOM      8  C   UNL     1       9.577  -5.875   2.052  0.00  0.00    +0.115 A 
ATOM      9  N   UNL     1       9.840  -6.022   3.336  0.00  0.00    -0.263 NA
ATOM     10  C   UNL     1      10.094  -4.988   4.113  0.00  0.00    +0.111 A 
ATOM     11  C   UNL     1      10.094  -3.702   3.604  0.00  0.00    +0.020 A 
ATOM     12  C   UNL     1       9.827  -3.510   2.257  0.00  0.00    +0.008 A 
ENDBRANCH   3   7
TORSDOF 1
ENDMDL
MODEL 4
REMARK VINA RESULT:    -2.754      1.409      2.036
REMARK INTER + INTRA:          -3.089
REMARK INTER:                  -2.889
REMARK INTRA:                  -0.200
REMARK UNBOUND:                -0.174
REMARK  Name = Nicotine.pdb
REMARK  2 active torsions:
REMARK  status: ('A' for Active; 'I' for Inactive)
REMARK    1  A    between atoms: C_3  and  C_6
REMARK    2  A    between atoms: N_4  and  C_12
REMARK                            x       y       z     vdW  Elec       q    Type
REMARK                         _______ _______ _______ _____ _____    ______ ____
ROOT
ATOM      1  C   UNL     1       3.886  -4.098  -5.833  0.00  0.00    +0.017 C 
ATOM      2  C   UNL     1       4.773  -4.585  -4.657  0.00  0.00    +0.025 C 
ATOM      3  C   UNL     1       6.034  -3.703  -4.785  0.00  0.00    +0.088 C 
ATOM      4  N   UNL     1       6.094  -3.227  -6.179  0.00  0.00    -0.298 NA
ATOM      5  C   UNL     1       4.947  -3.793  -6.920  0.00  0.00    +0.085 C 
ATOM      6  C   UNL     1       6.086  -1.760  -6.235  0.00  0.00    +0.105 C 
ENDROOT
BRANCH   3   7
ATOM      7  C   UNL     1       7.262  -4.516  -4.466  0.00  0.00    -0.012 A 
ATOM      8  C   UNL     1       7.287  -5.339  -3.356  0.00  0.00    +0.115 A 
ATOM      9  N   UNL     1       8.358  -6.053  -3.069  0.00  0.00    -0.263 NA
ATOM     10  C   UNL     1       9.439  -6.012  -3.822  0.00  0.00    +0.111 A 
ATOM     11  C   UNL     1       9.488  -5.213  -4.948  0.00  0.00    +0.020 A 
ATOM     12  C   UNL     1       8.380  -4.451  -5.284  0.00  0.00    +0.008 A 
ENDBRANCH   3   7
TORSDOF 1
ENDMDL
MODEL 5
REMARK VINA RESULT:    -2.634      1.068      1.744
REMARK INTER + INTRA:          -2.962
REMARK INTER:                  -2.738
REMARK INTRA:                  -0.224
REMARK UNBOUND:                -0.174
REMARK  Name = Nicotine.pdb
REMARK  2 active torsions:
REMARK  status: ('A' for Active; 'I' for Inactive)
REMARK    1  A    between atoms: C_3  and  C_6
REMARK    2  A    between atoms: N_4  and  C_12
REMARK                            x       y       z     vdW  Elec       q    Type
REMARK                         _______ _______ _______ _____ _____    ______ ____
ROOT
ATOM      1  C   UNL     1       4.203  -3.479  -4.289  0.00  0.00    +0.017 C 
ATOM      2  C   UNL     1       5.704  -3.118  -4.143  0.00  0.00    +0.025 C 
ATOM      3  C   UNL     1       6.371  -3.947  -5.261  0.00  0.00    +0.088 C 
ATOM      4  N   UNL     1       5.460  -5.061  -5.581  0.00  0.00    -0.298 NA
ATOM      5  C   UNL     1       4.278  -4.971  -4.698  0.00  0.00    +0.085 C 
ATOM      6  C   UNL     1       5.065  -5.029  -6.995  0.00  0.00    +0.105 C 
ENDROOT
BRANCH   3   7
ATOM      7  C   UNL     1       7.693  -4.487  -4.780  0.00  0.00    -0.012 A 
ATOM      8  C   UNL     1       8.852  -4.230  -5.487  0.00  0.00    +0.115 A 
ATOM      9  N   UNL     1      10.014  -4.698  -5.072  0.00  0.00    -0.263 NA
ATOM     10  C   UNL     1      10.117  -5.425  -3.977  0.00  0.00    +0.111 A 
ATOM     11  C   UNL     1       9.001  -5.723  -3.218  0.00  0.00    +0.020 A 
ATOM     12  C   UNL     1       7.763  -5.243  -3.619  0.00  0.00    +0.008 A 
ENDBRANCH   3   7
TORSDOF 1
ENDMDL
MODEL 6
REMARK VINA RESULT:    -2.587      1.884      4.240
REMARK INTER + INTRA:          -2.912
REMARK INTER:                  -2.697
REMARK INTRA:                  -0.215
REMARK UNBOUND:                -0.174
REMARK  Name = Nicotine.pdb
REMARK  2 active torsions:
REMARK  status: ('A' for Active; 'I' for Inactive)
REMARK    1  A    between atoms: C_3  and  C_6
REMARK    2  A    between atoms: N_4  and  C_12
REMARK                            x       y       z     vdW  Elec       q    Type
REMARK                         _______ _______ _______ _____ _____    ______ ____
ROOT
ATOM      1  C   UNL     1       9.270  -5.806  -2.915  0.00  0.00    +0.017 C 
ATOM      2  C   UNL     1       7.937  -5.274  -3.504  0.00  0.00    +0.025 C 
ATOM      3  C   UNL     1       8.262  -5.105  -5.003  0.00  0.00    +0.088 C 
ATOM      4  N   UNL     1       9.726  -4.981  -5.121  0.00  0.00    -0.298 NA
ATOM      5  C   UNL     1      10.315  -5.041  -3.766  0.00  0.00    +0.085 C 
ATOM      6  C   UNL     1      10.276  -6.036  -5.982  0.00  0.00    +0.105 C 
ENDROOT
BRANCH   3   7
ATOM      7  C   UNL     1       7.597  -3.862  -5.534  0.00  0.00    -0.012 A 
ATOM      8  C   UNL     1       8.219  -3.095  -6.502  0.00  0.00    +0.115 A 
ATOM      9  N   UNL     1       7.643  -2.006  -6.972  0.00  0.00    -0.263 NA
ATOM     10  C   UNL     1       6.462  -1.605  -6.544  0.00  0.00    +0.111 A 
ATOM     11  C   UNL     1       5.780  -2.322  -5.578  0.00  0.00    +0.020 A 
ATOM     12  C   UNL     1       6.351  -3.475  -5.064  0.00  0.00    +0.008 A 
ENDBRANCH   3   7
TORSDOF 1
ENDMDL
MODEL 7
REMARK VINA RESULT:    -2.521      1.284      4.441
REMARK INTER + INTRA:          -2.842
REMARK INTER:                  -2.647
REMARK INTRA:                  -0.195
REMARK UNBOUND:                -0.174
REMARK  Name = Nicotine.pdb
REMARK  2 active torsions:
REMARK  status: ('A' for Active; 'I' for Inactive)
REMARK    1  A    between atoms: C_3  and  C_6
REMARK    2  A    between atoms: N_4  and  C_12
REMARK                            x       y       z     vdW  Elec       q    Type
REMARK                         _______ _______ _______ _____ _____    ______ ____
ROOT
ATOM      1  C   UNL     1       9.978  -5.689  -5.772  0.00  0.00    +0.017 C 
ATOM      2  C   UNL     1       8.448  -5.938  -5.846  0.00  0.00    +0.025 C 
ATOM      3  C   UNL     1       7.890  -4.553  -6.235  0.00  0.00    +0.088 C 
ATOM      4  N   UNL     1       8.895  -3.550  -5.841  0.00  0.00    -0.298 NA
ATOM      5  C   UNL     1      10.033  -4.248  -5.206  0.00  0.00    +0.085 C 
ATOM      6  C   UNL     1       9.339  -2.765  -7.000  0.00  0.00    +0.105 C 
ENDROOT
BRANCH   3   7
ATOM      7  C   UNL     1       6.596  -4.298  -5.505  0.00  0.00    -0.012 A 
ATOM      8  C   UNL     1       5.656  -5.303  -5.377  0.00  0.00    +0.115 A 
ATOM      9  N   UNL     1       4.522  -5.089  -4.739  0.00  0.00    -0.263 NA
ATOM     10  C   UNL     1       4.239  -3.918  -4.202  0.00  0.00    +0.111 A 
ATOM     11  C   UNL     1       5.131  -2.866  -4.289  0.00  0.00    +0.020 A 
ATOM     12  C   UNL     1       6.337  -3.055  -4.948  0.00  0.00    +0.008 A 
ENDBRANCH   3   7
TORSDOF 1
ENDMDL
MODEL 8
REMARK VINA RESULT:    -2.345      1.864      4.229
REMARK INTER + INTRA:          -2.656
REMARK INTER:                  -2.466
REMARK INTRA:                  -0.190
REMARK UNBOUND:                -0.174
REMARK  Name = Nicotine.pdb
REMARK  2 active torsions:
REMARK  status: ('A' for Active; 'I' for Inactive)
REMARK    1  A    between atoms: C_3  and  C_6
REMARK    2  A    between atoms: N_4  and  C_12
REMARK                            x       y       z     vdW  Elec       q    Type
REMARK                         _______ _______ _______ _____ _____    ______ ____
ROOT
ATOM      1  C   UNL     1       8.766  -6.097  -1.820  0.00  0.00    +0.017 C 
ATOM      2  C   UNL     1       7.592  -5.745  -2.770  0.00  0.00    +0.025 C 
ATOM      3  C   UNL     1       8.305  -5.441  -4.105  0.00  0.00    +0.088 C 
ATOM      4  N   UNL     1       9.699  -5.086  -3.785  0.00  0.00    -0.298 NA
ATOM      5  C   UNL     1       9.871  -5.132  -2.317  0.00  0.00    +0.085 C 
ATOM      6  C   UNL     1      10.641  -5.991  -4.455  0.00  0.00    +0.105 C 
ENDROOT
BRANCH   3   7
ATOM      7  C   UNL     1       7.626  -4.288  -4.798  0.00  0.00    -0.012 A 
ATOM      8  C   UNL     1       6.392  -3.841  -4.365  0.00  0.00    +0.115 A 
ATOM      9  N   UNL     1       5.791  -2.832  -4.966  0.00  0.00    -0.263 NA
ATOM     10  C   UNL     1       6.337  -2.213  -5.994  0.00  0.00    +0.111 A 
ATOM     11  C   UNL     1       7.570  -2.604  -6.482  0.00  0.00    +0.020 A 
ATOM     12  C   UNL     1       8.234  -3.657  -5.872  0.00  0.00    +0.008 A 
ENDBRANCH   3   7
TORSDOF 1
ENDMDL
MODEL 9
REMARK VINA RESULT:    -2.161      2.242      4.288
REMARK INTER + INTRA:          -2.462
REMARK INTER:                  -2.266
REMARK INTRA:                  -0.196
REMARK UNBOUND:                -0.174
REMARK  Name = Nicotine.pdb
REMARK  2 active torsions:
REMARK  status: ('A' for Active; 'I' for Inactive)
REMARK    1  A    between atoms: C_3  and  C_6
REMARK    2  A    between atoms: N_4  and  C_12
REMARK                            x       y       z     vdW  Elec       q    Type
REMARK                         _______ _______ _______ _____ _____    ______ ____
ROOT
ATOM      1  C   UNL     1       8.019  -6.094  -1.239  0.00  0.00    +0.017 C 
ATOM      2  C   UNL     1       7.453  -5.946  -2.676  0.00  0.00    +0.025 C 
ATOM      3  C   UNL     1       8.718  -5.694  -3.524  0.00  0.00    +0.088 C 
ATOM      4  N   UNL     1       9.756  -5.176  -2.615  0.00  0.00    -0.298 NA
ATOM      5  C   UNL     1       9.184  -5.073  -1.256  0.00  0.00    +0.085 C 
ATOM      6  C   UNL     1      10.943  -6.040  -2.623  0.00  0.00    +0.105 C 
ENDROOT
BRANCH   3   7
ATOM      7  C   UNL     1       8.421  -4.680  -4.598  0.00  0.00    -0.012 A 
ATOM      8  C   UNL     1       7.134  -4.213  -4.782  0.00  0.00    +0.115 A 
ATOM      9  N   UNL     1       6.866  -3.325  -5.720  0.00  0.00    -0.263 NA
ATOM     10  C   UNL     1       7.805  -2.850  -6.513  0.00  0.00    +0.111 A 
ATOM     11  C   UNL     1       9.117  -3.270  -6.387  0.00  0.00    +0.020 A 
ATOM     12  C   UNL     1       9.437  -4.198  -5.409  0.00  0.00    +0.008 A 
ENDBRANCH   3   7
TORSDOF 1
ENDMDL
MODEL 10
REMARK VINA RESULT:    -1.930      2.628      4.714
REMARK INTER + INTRA:          -2.217
REMARK INTER:                  -2.000
REMARK INTRA:                  -0.216
REMARK UNBOUND:                -0.174
REMARK  Name = Nicotine.pdb
REMARK  2 active torsions:
REMARK  status: ('A' for Active; 'I' for Inactive)
REMARK    1  A    between atoms: C_3  and  C_6
REMARK    2  A    between atoms: N_4  and  C_12
REMARK                            x       y       z     vdW  Elec       q    Type
REMARK                         _______ _______ _______ _____ _____    ______ ____
ROOT
ATOM      1  C   UNL     1       8.290  -5.929  -0.428  0.00  0.00    +0.017 C 
ATOM      2  C   UNL     1       7.301  -6.097  -1.612  0.00  0.00    +0.025 C 
ATOM      3  C   UNL     1       8.220  -5.998  -2.848  0.00  0.00    +0.088 C 
ATOM      4  N   UNL     1       9.437  -5.277  -2.431  0.00  0.00    -0.298 NA
ATOM      5  C   UNL     1       9.300  -4.907  -1.006  0.00  0.00    +0.085 C 
ATOM      6  C   UNL     1      10.635  -6.097  -2.650  0.00  0.00    +0.105 C 
ENDROOT
BRANCH   3   7
ATOM      7  C   UNL     1       7.522  -5.236  -3.945  0.00  0.00    -0.012 A 
ATOM      8  C   UNL     1       8.255  -4.606  -4.933  0.00  0.00    +0.115 A 
ATOM      9  N   UNL     1       7.652  -3.938  -5.897  0.00  0.00    -0.263 NA
ATOM     10  C   UNL     1       6.339  -3.843  -5.959  0.00  0.00    +0.111 A 
ATOM     11  C   UNL     1       5.540  -4.448  -5.006  0.00  0.00    +0.020 A 
ATOM     12  C   UNL     1       6.138  -5.164  -3.980  0.00  0.00    +0.008 A 
ENDBRANCH   3   7
TORSDOF 1
ENDMDL
