MODEL 1
REMARK VINA RESULT:    -3.417      0.000      0.000
REMARK INTER + INTRA:          -3.819
REMARK INTER:                  -3.617
REMARK INTRA:                  -0.203
REMARK UNBOUND:                -0.203
REMARK  Name = Nicotine.pdb
REMARK  2 active torsions:
REMARK  status: ('A' for Active; 'I' for Inactive)
REMARK    1  A    between atoms: C_3  and  C_6
REMARK    2  A    between atoms: N_4  and  C_12
REMARK                            x       y       z     vdW  Elec       q    Type
REMARK                         _______ _______ _______ _____ _____    ______ ____
ROOT
ATOM      1  C   UNL     1       9.204  -1.817  -2.317  0.00  0.00    +0.017 C 
ATOM      2  C   UNL     1       8.271  -0.653  -2.742  0.00  0.00    +0.025 C 
ATOM      3  C   UNL     1       7.059  -1.385  -3.356  0.00  0.00    +0.088 C 
ATOM      4  N   UNL     1       7.518  -2.726  -3.761  0.00  0.00    -0.298 NA
ATOM      5  C   UNL     1       8.959  -2.844  -3.451  0.00  0.00    +0.085 C 
ATOM      6  C   UNL     1       6.746  -3.775  -3.085  0.00  0.00    +0.105 C 
ENDROOT
BRANCH   3   7
ATOM      7  C   UNL     1       6.557  -0.628  -4.558  0.00  0.00    -0.012 A 
ATOM      8  C   UNL     1       7.446  -0.124  -5.488  0.00  0.00    +0.115 A 
ATOM      9  N   UNL     1       7.015   0.540  -6.543  0.00  0.00    -0.263 NA
ATOM     10  C   UNL     1       5.730   0.748  -6.753  0.00  0.00    +0.111 A 
ATOM     11  C   UNL     1       4.782   0.273  -5.866  0.00  0.00    +0.020 A 
ATOM     12  C   UNL     1       5.197  -0.433  -4.748  0.00  0.00    +0.008 A 
ENDBRANCH   3   7
TORSDOF 1
ENDMDL
MODEL 2
REMARK VINA RESULT:    -3.319      2.468      5.550
REMARK INTER + INTRA:          -3.716
REMARK INTER:                  -3.523
REMARK INTRA:                  -0.194
REMARK UNBOUND:                -0.203
REMARK  Name = Nicotine.pdb
REMARK  2 active torsions:
REMARK  status: ('A' for Active; 'I' for Inactive)
REMARK    1  A    between atoms: C_3  and  C_6
REMARK    2  A    between atoms: N_4  and  C_12
REMARK                            x       y       z     vdW  Elec       q    Type
REMARK                         _______ _______ _______ _____ _____    ______ ____
ROOT
ATOM      1  C   UNL     1       7.703  -0.662  -3.364  0.00  0.00    +0.017 C 
ATOM      2  C   UNL     1       8.933  -1.463  -2.862  0.00  0.00    +0.025 C 
ATOM      3  C   UNL     1       8.577  -2.917  -3.238  0.00  0.00    +0.088 C 
ATOM      4  N   UNL     1       7.112  -2.987  -3.377  0.00  0.00    -0.298 NA
ATOM      5  C   UNL     1       6.547  -1.653  -3.080  0.00  0.00    +0.085 C 
ATOM      6  C   UNL     1       6.730  -3.433  -4.723  0.00  0.00    +0.105 C 
ENDROOT
BRANCH   3   7
ATOM      7  C   UNL     1       9.036  -3.855  -2.150  0.00  0.00    -0.012 A 
ATOM      8  C   UNL     1      10.250  -3.655  -1.521  0.00  0.00    +0.115 A 
ATOM      9  N   UNL     1      10.658  -4.471  -0.568  0.00  0.00    -0.263 NA
ATOM     10  C   UNL     1       9.933  -5.501  -0.180  0.00  0.00    +0.111 A 
ATOM     11  C   UNL     1       8.707  -5.764  -0.764  0.00  0.00    +0.020 A 
ATOM     12  C   UNL     1       8.243  -4.925  -1.765  0.00  0.00    +0.008 A 
ENDBRANCH   3   7
TORSDOF 1
ENDMDL
MODEL 3
REMARK VINA RESULT:    -3.208      1.457      4.621
REMARK INTER + INTRA:          -3.598
REMARK INTER:                  -3.358
REMARK INTRA:                  -0.240
REMARK UNBOUND:                -0.203
REMARK  Name = Nicotine.pdb
REMARK  2 active torsions:
REMARK  status: ('A' for Active; 'I' for Inactive)
REMARK    1  A    between atoms: C_3  and  C_6
REMARK    2  A    between atoms: N_4  and  C_12
REMARK                            x       y       z     vdW  Elec       q    Type
REMARK                         _______ _______ _______ _____ _____    ______ ____
ROOT
ATOM      1  C   UNL     1       5.264  -0.335  -5.251  0.00  0.00    +0.017 C 
ATOM      2  C   UNL     1       5.783  -0.795  -3.863  0.00  0.00    +0.025 C 
ATOM      3  C   UNL     1       7.292  -1.003  -4.109  0.00  0.00    +0.088 C 
ATOM      4  N   UNL     1       7.475  -1.213  -5.556  0.00  0.00    -0.298 NA
ATOM      5  C   UNL     1       6.149  -1.170  -6.209  0.00  0.00    +0.085 C 
ATOM      6  C   UNL     1       8.376  -0.204  -6.126  0.00  0.00    +0.105 C 
ENDROOT
BRANCH   3   7
ATOM      7  C   UNL     1       7.774  -2.212  -3.349  0.00  0.00    -0.012 A 
ATOM      8  C   UNL     1       8.941  -2.155  -2.611  0.00  0.00    +0.115 A 
ATOM      9  N   UNL     1       9.369  -3.208  -1.943  0.00  0.00    -0.263 NA
ATOM     10  C   UNL     1       8.708  -4.349  -1.951  0.00  0.00    +0.111 A 
ATOM     11  C   UNL     1       7.533  -4.482  -2.666  0.00  0.00    +0.020 A 
ATOM     12  C   UNL     1       7.049  -3.394  -3.376  0.00  0.00    +0.008 A 
ENDBRANCH   3   7
TORSDOF 1
ENDMDL
MODEL 4
REMARK VINA RESULT:    -3.129      1.900      4.118
REMARK INTER + INTRA:          -3.514
REMARK INTER:                  -3.299
REMARK INTRA:                  -0.215
REMARK UNBOUND:                -0.203
REMARK  Name = Nicotine.pdb
REMARK  2 active torsions:
REMARK  status: ('A' for Active; 'I' for Inactive)
REMARK    1  A    between atoms: C_3  and  C_6
REMARK    2  A    between atoms: N_4  and  C_12
REMARK                            x       y       z     vdW  Elec       q    Type
REMARK                         _______ _______ _______ _____ _____    ______ ____
ROOT
ATOM      1  C   UNL     1       6.523  -4.772  -4.771  0.00  0.00    +0.017 C 
ATOM      2  C   UNL     1       6.788  -4.035  -3.432  0.00  0.00    +0.025 C 
ATOM      3  C   UNL     1       6.780  -2.548  -3.846  0.00  0.00    +0.088 C 
ATOM      4  N   UNL     1       7.073  -2.496  -5.290  0.00  0.00    -0.298 NA
ATOM      5  C   UNL     1       7.285  -3.875  -5.778  0.00  0.00    +0.085 C 
ATOM      6  C   UNL     1       5.984  -1.838  -6.025  0.00  0.00    +0.105 C 
ENDROOT
BRANCH   3   7
ATOM      7  C   UNL     1       7.838  -1.797  -3.080  0.00  0.00    -0.012 A 
ATOM      8  C   UNL     1       8.831  -2.481  -2.406  0.00  0.00    +0.115 A 
ATOM      9  N   UNL     1       9.761  -1.831  -1.733  0.00  0.00    -0.263 NA
ATOM     10  C   UNL     1       9.781  -0.514  -1.675  0.00  0.00    +0.111 A 
ATOM     11  C   UNL     1       8.821   0.238  -2.325  0.00  0.00    +0.020 A 
ATOM     12  C   UNL     1       7.831  -0.411  -3.047  0.00  0.00    +0.008 A 
ENDBRANCH   3   7
TORSDOF 1
ENDMDL
MODEL 5
REMARK VINA RESULT:    -3.104      5.254      6.482
REMARK INTER + INTRA:          -3.489
REMARK INTER:                  -3.273
REMARK INTRA:                  -0.215
REMARK UNBOUND:                -0.203
REMARK  Name = Nicotine.pdb
REMARK  2 active torsions:
REMARK  status: ('A' for Active; 'I' for Inactive)
REMARK    1  A    between atoms: C_3  and  C_6
REMARK    2  A    between atoms: N_4  and  C_12
REMARK                            x       y       z     vdW  Elec       q    Type
REMARK                         _______ _______ _______ _____ _____    ______ ____
ROOT
ATOM      1  C   UNL     1      10.329   1.045  -3.141  0.00  0.00    +0.017 C 
ATOM      2  C   UNL     1      10.538   2.496  -2.631  0.00  0.00    +0.025 C 
ATOM      3  C   UNL     1      10.197   2.388  -1.130  0.00  0.00    +0.088 C 
ATOM      4  N   UNL     1       9.343   1.199  -0.960  0.00  0.00    -0.298 NA
ATOM      5  C   UNL     1       9.122   0.584  -2.286  0.00  0.00    +0.085 C 
ATOM      6  C   UNL     1       9.954   0.240  -0.030  0.00  0.00    +0.105 C 
ENDROOT
BRANCH   3   7
ATOM      7  C   UNL     1       9.455   3.621  -0.683  0.00  0.00    -0.012 A 
ATOM      8  C   UNL     1       8.577   3.561   0.383  0.00  0.00    +0.115 A 
ATOM      9  N   UNL     1       7.924   4.636   0.780  0.00  0.00    -0.263 NA
ATOM     10  C   UNL     1       8.079   5.801   0.183  0.00  0.00    +0.111 A 
ATOM     11  C   UNL     1       8.940   5.938  -0.890  0.00  0.00    +0.020 A 
ATOM     12  C   UNL     1       9.648   4.831  -1.332  0.00  0.00    +0.008 A 
ENDBRANCH   3   7
TORSDOF 1
ENDMDL
MODEL 6
REMARK VINA RESULT:    -3.053      4.065      6.178
REMARK INTER + INTRA:          -3.435
REMARK INTER:                  -3.230
REMARK INTRA:                  -0.205
REMARK UNBOUND:                -0.203
REMARK  Name = Nicotine.pdb
REMARK  2 active torsions:
REMARK  status: ('A' for Active; 'I' for Inactive)
REMARK    1  A    between atoms: C_3  and  C_6
REMARK    2  A    between atoms: N_4  and  C_12
REMARK                            x       y       z     vdW  Elec       q    Type
REMARK                         _______ _______ _______ _____ _____    ______ ____
ROOT
ATOM      1  C   UNL     1       9.130   0.218  -3.391  0.00  0.00    +0.017 C 
ATOM      2  C   UNL     1       9.499   1.255  -2.298  0.00  0.00    +0.025 C 
ATOM      3  C   UNL     1      10.032   0.373  -1.149  0.00  0.00    +0.088 C 
ATOM      4  N   UNL     1       9.476  -0.979  -1.341  0.00  0.00    -0.298 NA
ATOM      5  C   UNL     1       8.607  -0.964  -2.537  0.00  0.00    +0.085 C 
ATOM      6  C   UNL     1      10.546  -1.975  -1.479  0.00  0.00    +0.105 C 
ENDROOT
BRANCH   3   7
ATOM      7  C   UNL     1       9.582   0.930   0.177  0.00  0.00    -0.012 A 
ATOM      8  C   UNL     1       8.763   2.042   0.225  0.00  0.00    +0.115 A 
ATOM      9  N   UNL     1       8.365   2.537   1.381  0.00  0.00    -0.263 NA
ATOM     10  C   UNL     1       8.728   1.997   2.528  0.00  0.00    +0.111 A 
ATOM     11  C   UNL     1       9.545   0.882   2.558  0.00  0.00    +0.020 A 
ATOM     12  C   UNL     1       9.980   0.331   1.362  0.00  0.00    +0.008 A 
ENDBRANCH   3   7
TORSDOF 1
ENDMDL
MODEL 7
REMARK VINA RESULT:    -3.035      4.174      5.673
REMARK INTER + INTRA:          -3.415
REMARK INTER:                  -3.172
REMARK INTRA:                  -0.243
REMARK UNBOUND:                -0.203
REMARK  Name = Nicotine.pdb
REMARK  2 active torsions:
REMARK  status: ('A' for Active; 'I' for Inactive)
REMARK    1  A    between atoms: C_3  and  C_6
REMARK    2  A    between atoms: N_4  and  C_12
REMARK                            x       y       z     vdW  Elec       q    Type
REMARK                         _______ _______ _______ _____ _____    ______ ____
ROOT
ATOM      1  C   UNL     1       8.663   2.650   1.245  0.00  0.00    +0.017 C 
ATOM      2  C   UNL     1       9.041   1.404   0.401  0.00  0.00    +0.025 C 
ATOM      3  C   UNL     1       9.994   1.984  -0.666  0.00  0.00    +0.088 C 
ATOM      4  N   UNL     1       9.709   3.426  -0.769  0.00  0.00    -0.298 NA
ATOM      5  C   UNL     1       8.610   3.757   0.163  0.00  0.00    +0.085 C 
ATOM      6  C   UNL     1      10.907   4.223  -0.475  0.00  0.00    +0.105 C 
ENDROOT
BRANCH   3   7
ATOM      7  C   UNL     1       9.747   1.314  -1.992  0.00  0.00    -0.012 A 
ATOM      8  C   UNL     1      10.525   1.629  -3.090  0.00  0.00    +0.115 A 
ATOM      9  N   UNL     1      10.315   1.047  -4.255  0.00  0.00    -0.263 NA
ATOM     10  C   UNL     1       9.363   0.151  -4.420  0.00  0.00    +0.111 A 
ATOM     11  C   UNL     1       8.545  -0.215  -3.368  0.00  0.00    +0.020 A 
ATOM     12  C   UNL     1       8.739   0.371  -2.127  0.00  0.00    +0.008 A 
ENDBRANCH   3   7
TORSDOF 1
ENDMDL
MODEL 8
REMARK VINA RESULT:    -3.022      2.442      4.083
REMARK INTER + INTRA:          -3.402
REMARK INTER:                  -3.192
REMARK INTRA:                  -0.210
REMARK UNBOUND:                -0.203
REMARK  Name = Nicotine.pdb
REMARK  2 active torsions:
REMARK  status: ('A' for Active; 'I' for Inactive)
REMARK    1  A    between atoms: C_3  and  C_6
REMARK    2  A    between atoms: N_4  and  C_12
REMARK                            x       y       z     vdW  Elec       q    Type
REMARK                         _______ _______ _______ _____ _____    ______ ____
ROOT
ATOM      1  C   UNL     1       6.601  -1.640  -4.658  0.00  0.00    +0.017 C 
ATOM      2  C   UNL     1       7.728  -0.587  -4.834  0.00  0.00    +0.025 C 
ATOM      3  C   UNL     1       8.745  -0.983  -3.742  0.00  0.00    +0.088 C 
ATOM      4  N   UNL     1       8.013  -1.757  -2.723  0.00  0.00    -0.298 NA
ATOM      5  C   UNL     1       6.592  -1.835  -3.122  0.00  0.00    +0.085 C 
ATOM      6  C   UNL     1       8.591  -3.098  -2.565  0.00  0.00    +0.105 C 
ENDROOT
BRANCH   3   7
ATOM      7  C   UNL     1       9.337   0.255  -3.120  0.00  0.00    -0.012 A 
ATOM      8  C   UNL     1      10.221   1.041  -3.834  0.00  0.00    +0.115 A 
ATOM      9  N   UNL     1      10.744   2.127  -3.297  0.00  0.00    -0.263 NA
ATOM     10  C   UNL     1      10.449   2.503  -2.069  0.00  0.00    +0.111 A 
ATOM     11  C   UNL     1       9.572   1.767  -1.294  0.00  0.00    +0.020 A 
ATOM     12  C   UNL     1       8.998   0.623  -1.827  0.00  0.00    +0.008 A 
ENDBRANCH   3   7
TORSDOF 1
ENDMDL
MODEL 9
REMARK VINA RESULT:    -3.017      2.235      5.548
REMARK INTER + INTRA:          -3.396
REMARK INTER:                  -3.181
REMARK INTRA:                  -0.214
REMARK UNBOUND:                -0.203
REMARK  Name = Nicotine.pdb
REMARK  2 active torsions:
REMARK  status: ('A' for Active; 'I' for Inactive)
REMARK    1  A    between atoms: C_3  and  C_6
REMARK    2  A    between atoms: N_4  and  C_12
REMARK                            x       y       z     vdW  Elec       q    Type
REMARK                         _______ _______ _______ _____ _____    ______ ____
ROOT
ATOM      1  C   UNL     1       6.268  -3.828  -5.437  0.00  0.00    +0.017 C 
ATOM      2  C   UNL     1       6.763  -4.631  -4.205  0.00  0.00    +0.025 C 
ATOM      3  C   UNL     1       7.030  -3.530  -3.158  0.00  0.00    +0.088 C 
ATOM      4  N   UNL     1       7.234  -2.268  -3.892  0.00  0.00    -0.298 NA
ATOM      5  C   UNL     1       7.130  -2.545  -5.341  0.00  0.00    +0.085 C 
ATOM      6  C   UNL     1       6.257  -1.253  -3.478  0.00  0.00    +0.105 C 
ENDROOT
BRANCH   3   7
ATOM      7  C   UNL     1       8.265  -3.867  -2.363  0.00  0.00    -0.012 A 
ATOM      8  C   UNL     1       8.298  -4.997  -1.568  0.00  0.00    +0.115 A 
ATOM      9  N   UNL     1       9.375  -5.300  -0.870  0.00  0.00    -0.263 NA
ATOM     10  C   UNL     1      10.455  -4.544  -0.899  0.00  0.00    +0.111 A 
ATOM     11  C   UNL     1      10.496  -3.399  -1.672  0.00  0.00    +0.020 A 
ATOM     12  C   UNL     1       9.385  -3.051  -2.424  0.00  0.00    +0.008 A 
ENDBRANCH   3   7
TORSDOF 1
ENDMDL
MODEL 10
REMARK VINA RESULT:    -2.955      1.753      4.703
REMARK INTER + INTRA:          -3.331
REMARK INTER:                  -3.149
REMARK INTRA:                  -0.182
REMARK UNBOUND:                -0.203
REMARK  Name = Nicotine.pdb
REMARK  2 active torsions:
REMARK  status: ('A' for Active; 'I' for Inactive)
REMARK    1  A    between atoms: C_3  and  C_6
REMARK    2  A    between atoms: N_4  and  C_12
REMARK                            x       y       z     vdW  Elec       q    Type
REMARK                         _______ _______ _______ _____ _____    ______ ____
ROOT
ATOM      1  C   UNL     1       5.420   1.152  -7.061  0.00  0.00    +0.017 C 
ATOM      2  C   UNL     1       6.506   0.178  -6.533  0.00  0.00    +0.025 C 
ATOM      3  C   UNL     1       5.727  -1.142  -6.348  0.00  0.00    +0.088 C 
ATOM      4  N   UNL     1       4.302  -0.793  -6.213  0.00  0.00    -0.298 NA
ATOM      5  C   UNL     1       4.168   0.678  -6.281  0.00  0.00    +0.085 C 
ATOM      6  C   UNL     1       3.499  -1.444  -7.256  0.00  0.00    +0.105 C 
ENDROOT
BRANCH   3   7
ATOM      7  C   UNL     1       6.204  -1.847  -5.104  0.00  0.00    -0.012 A 
ATOM      8  C   UNL     1       6.137  -1.219  -3.875  0.00  0.00    +0.115 A 
ATOM      9  N   UNL     1       6.552  -1.829  -2.782  0.00  0.00    -0.263 NA
ATOM     10  C   UNL     1       7.043  -3.052  -2.815  0.00  0.00    +0.111 A 
ATOM     11  C   UNL     1       7.139  -3.744  -4.008  0.00  0.00    +0.020 A 
ATOM     12  C   UNL     1       6.708  -3.136  -5.177  0.00  0.00    +0.008 A 
ENDBRANCH   3   7
TORSDOF 1
ENDMDL
