MODEL 1
REMARK VINA RESULT:    -3.386      0.000      0.000
REMARK INTER + INTRA:          -3.769
REMARK INTER:                  -3.584
REMARK INTRA:                  -0.185
REMARK UNBOUND:                -0.185
REMARK  Name = Nicotine.pdb
REMARK  2 active torsions:
REMARK  status: ('A' for Active; 'I' for Inactive)
REMARK    1  A    between atoms: C_3  and  C_6
REMARK    2  A    between atoms: N_4  and  C_12
REMARK                            x       y       z     vdW  Elec       q    Type
REMARK                         _______ _______ _______ _____ _____    ______ ____
ROOT
ATOM      1  C   UNL     1      -2.721   4.307  -0.888  0.00  0.00    +0.017 C 
ATOM      2  C   UNL     1      -1.940   4.800  -2.134  0.00  0.00    +0.025 C 
ATOM      3  C   UNL     1      -3.017   5.554  -2.943  0.00  0.00    +0.088 C 
ATOM      4  N   UNL     1      -4.329   5.039  -2.511  0.00  0.00    -0.298 NA
ATOM      5  C   UNL     1      -4.110   3.987  -1.495  0.00  0.00    +0.085 C 
ATOM      6  C   UNL     1      -5.170   6.118  -1.979  0.00  0.00    +0.105 C 
ENDROOT
BRANCH   3   7
ATOM      7  C   UNL     1      -2.825   5.299  -4.415  0.00  0.00    -0.012 A 
ATOM      8  C   UNL     1      -3.538   4.301  -5.052  0.00  0.00    +0.115 A 
ATOM      9  N   UNL     1      -3.376   4.072  -6.340  0.00  0.00    -0.263 NA
ATOM     10  C   UNL     1      -2.534   4.778  -7.069  0.00  0.00    +0.111 A 
ATOM     11  C   UNL     1      -1.786   5.793  -6.502  0.00  0.00    +0.020 A 
ATOM     12  C   UNL     1      -1.934   6.067  -5.151  0.00  0.00    +0.008 A 
ENDBRANCH   3   7
TORSDOF 1
ENDMDL
MODEL 2
REMARK VINA RESULT:    -3.227      1.229      1.983
REMARK INTER + INTRA:          -3.600
REMARK INTER:                  -3.410
REMARK INTRA:                  -0.190
REMARK UNBOUND:                -0.185
REMARK  Name = Nicotine.pdb
REMARK  2 active torsions:
REMARK  status: ('A' for Active; 'I' for Inactive)
REMARK    1  A    between atoms: C_3  and  C_6
REMARK    2  A    between atoms: N_4  and  C_12
REMARK                            x       y       z     vdW  Elec       q    Type
REMARK                         _______ _______ _______ _____ _____    ______ ____
ROOT
ATOM      1  C   UNL     1      -4.924   3.320  -1.359  0.00  0.00    +0.017 C 
ATOM      2  C   UNL     1      -4.805   3.166  -2.898  0.00  0.00    +0.025 C 
ATOM      3  C   UNL     1      -3.378   3.679  -3.189  0.00  0.00    +0.088 C 
ATOM      4  N   UNL     1      -2.989   4.550  -2.065  0.00  0.00    -0.298 NA
ATOM      5  C   UNL     1      -4.116   4.618  -1.111  0.00  0.00    +0.085 C 
ATOM      6  C   UNL     1      -1.773   4.053  -1.410  0.00  0.00    +0.105 C 
ENDROOT
BRANCH   3   7
ATOM      7  C   UNL     1      -3.367   4.463  -4.475  0.00  0.00    -0.012 A 
ATOM      8  C   UNL     1      -4.148   4.065  -5.544  0.00  0.00    +0.115 A 
ATOM      9  N   UNL     1      -4.144   4.746  -6.673  0.00  0.00    -0.263 NA
ATOM     10  C   UNL     1      -3.403   5.824  -6.830  0.00  0.00    +0.111 A 
ATOM     11  C   UNL     1      -2.596   6.284  -5.805  0.00  0.00    +0.020 A 
ATOM     12  C   UNL     1      -2.578   5.597  -4.601  0.00  0.00    +0.008 A 
ENDBRANCH   3   7
TORSDOF 1
ENDMDL
MODEL 3
REMARK VINA RESULT:    -3.125      1.504      4.675
REMARK INTER + INTRA:          -3.493
REMARK INTER:                  -3.293
REMARK INTRA:                  -0.200
REMARK UNBOUND:                -0.185
REMARK  Name = Nicotine.pdb
REMARK  2 active torsions:
REMARK  status: ('A' for Active; 'I' for Inactive)
REMARK    1  A    between atoms: C_3  and  C_6
REMARK    2  A    between atoms: N_4  and  C_12
REMARK                            x       y       z     vdW  Elec       q    Type
REMARK                         _______ _______ _______ _____ _____    ______ ____
ROOT
ATOM      1  C   UNL     1      -1.831   6.578  -5.413  0.00  0.00    +0.017 C 
ATOM      2  C   UNL     1      -1.554   6.231  -3.927  0.00  0.00    +0.025 C 
ATOM      3  C   UNL     1      -2.594   5.130  -3.627  0.00  0.00    +0.088 C 
ATOM      4  N   UNL     1      -3.680   5.276  -4.613  0.00  0.00    -0.298 NA
ATOM      5  C   UNL     1      -3.371   6.428  -5.487  0.00  0.00    +0.085 C 
ATOM      6  C   UNL     1      -3.847   4.047  -5.399  0.00  0.00    +0.105 C 
ENDROOT
BRANCH   3   7
ATOM      7  C   UNL     1      -3.138   5.304  -2.233  0.00  0.00    -0.012 A 
ATOM      8  C   UNL     1      -3.536   6.551  -1.789  0.00  0.00    +0.115 A 
ATOM      9  N   UNL     1      -4.013   6.712  -0.570  0.00  0.00    -0.263 NA
ATOM     10  C   UNL     1      -4.129   5.701   0.268  0.00  0.00    +0.111 A 
ATOM     11  C   UNL     1      -3.752   4.425  -0.106  0.00  0.00    +0.020 A 
ATOM     12  C   UNL     1      -3.251   4.216  -1.382  0.00  0.00    +0.008 A 
ENDBRANCH   3   7
TORSDOF 1
ENDMDL
MODEL 4
REMARK VINA RESULT:    -2.883      1.666      4.668
REMARK INTER + INTRA:          -3.236
REMARK INTER:                  -3.015
REMARK INTRA:                  -0.221
REMARK UNBOUND:                -0.185
REMARK  Name = Nicotine.pdb
REMARK  2 active torsions:
REMARK  status: ('A' for Active; 'I' for Inactive)
REMARK    1  A    between atoms: C_3  and  C_6
REMARK    2  A    between atoms: N_4  and  C_12
REMARK                            x       y       z     vdW  Elec       q    Type
REMARK                         _______ _______ _______ _____ _____    ______ ____
ROOT
ATOM      1  C   UNL     1      -3.295   3.997  -5.758  0.00  0.00    +0.017 C 
ATOM      2  C   UNL     1      -3.778   3.542  -4.356  0.00  0.00    +0.025 C 
ATOM      3  C   UNL     1      -4.489   4.798  -3.809  0.00  0.00    +0.088 C 
ATOM      4  N   UNL     1      -3.953   5.958  -4.544  0.00  0.00    -0.298 NA
ATOM      5  C   UNL     1      -2.930   5.480  -5.498  0.00  0.00    +0.085 C 
ATOM      6  C   UNL     1      -5.025   6.682  -5.239  0.00  0.00    +0.105 C 
ENDROOT
BRANCH   3   7
ATOM      7  C   UNL     1      -4.206   4.946  -2.337  0.00  0.00    -0.012 A 
ATOM      8  C   UNL     1      -3.752   6.150  -1.830  0.00  0.00    +0.115 A 
ATOM      9  N   UNL     1      -3.502   6.288  -0.542  0.00  0.00    -0.263 NA
ATOM     10  C   UNL     1      -3.673   5.295   0.307  0.00  0.00    +0.111 A 
ATOM     11  C   UNL     1      -4.125   4.062  -0.126  0.00  0.00    +0.020 A 
ATOM     12  C   UNL     1      -4.403   3.881  -1.472  0.00  0.00    +0.008 A 
ENDBRANCH   3   7
TORSDOF 1
ENDMDL
MODEL 5
REMARK VINA RESULT:    -2.572      1.726      4.650
REMARK INTER + INTRA:          -2.907
REMARK INTER:                  -2.660
REMARK INTRA:                  -0.247
REMARK UNBOUND:                -0.185
REMARK  Name = Nicotine.pdb
REMARK  2 active torsions:
REMARK  status: ('A' for Active; 'I' for Inactive)
REMARK    1  A    between atoms: C_3  and  C_6
REMARK    2  A    between atoms: N_4  and  C_12
REMARK                            x       y       z     vdW  Elec       q    Type
REMARK                         _______ _______ _______ _____ _____    ______ ____
ROOT
ATOM      1  C   UNL     1      -3.659   5.055  -5.576  0.00  0.00    +0.017 C 
ATOM      2  C   UNL     1      -3.098   5.800  -4.337  0.00  0.00    +0.025 C 
ATOM      3  C   UNL     1      -3.032   4.691  -3.265  0.00  0.00    +0.088 C 
ATOM      4  N   UNL     1      -3.981   3.638  -3.668  0.00  0.00    -0.298 NA
ATOM      5  C   UNL     1      -4.646   4.057  -4.921  0.00  0.00    +0.085 C 
ATOM      6  C   UNL     1      -3.297   2.350  -3.839  0.00  0.00    +0.105 C 
ENDROOT
BRANCH   3   7
ATOM      7  C   UNL     1      -3.425   5.252  -1.923  0.00  0.00    -0.012 A 
ATOM      8  C   UNL     1      -3.333   4.472  -0.786  0.00  0.00    +0.115 A 
ATOM      9  N   UNL     1      -3.674   4.955   0.393  0.00  0.00    -0.263 NA
ATOM     10  C   UNL     1      -4.115   6.189   0.535  0.00  0.00    +0.111 A 
ATOM     11  C   UNL     1      -4.234   7.028  -0.557  0.00  0.00    +0.020 A 
ATOM     12  C   UNL     1      -3.879   6.557  -1.812  0.00  0.00    +0.008 A 
ENDBRANCH   3   7
TORSDOF 1
ENDMDL
MODEL 6
REMARK VINA RESULT:    -1.796      1.379      2.059
REMARK INTER + INTRA:          -2.086
REMARK INTER:                  -1.878
REMARK INTRA:                  -0.208
REMARK UNBOUND:                -0.185
REMARK  Name = Nicotine.pdb
REMARK  2 active torsions:
REMARK  status: ('A' for Active; 'I' for Inactive)
REMARK    1  A    between atoms: C_3  and  C_6
REMARK    2  A    between atoms: N_4  and  C_12
REMARK                            x       y       z     vdW  Elec       q    Type
REMARK                         _______ _______ _______ _____ _____    ______ ____
ROOT
ATOM      1  C   UNL     1      -2.166   4.837  -0.173  0.00  0.00    +0.017 C 
ATOM      2  C   UNL     1      -1.913   4.772  -1.702  0.00  0.00    +0.025 C 
ATOM      3  C   UNL     1      -3.113   5.548  -2.286  0.00  0.00    +0.088 C 
ATOM      4  N   UNL     1      -4.184   5.523  -1.273  0.00  0.00    -0.298 NA
ATOM      5  C   UNL     1      -3.711   4.748  -0.106  0.00  0.00    +0.085 C 
ATOM      6  C   UNL     1      -4.569   6.885  -0.880  0.00  0.00    +0.105 C 
ENDROOT
BRANCH   3   7
ATOM      7  C   UNL     1      -3.587   4.884  -3.552  0.00  0.00    -0.012 A 
ATOM      8  C   UNL     1      -2.847   4.986  -4.714  0.00  0.00    +0.115 A 
ATOM      9  N   UNL     1      -3.255   4.407  -5.827  0.00  0.00    -0.263 NA
ATOM     10  C   UNL     1      -4.375   3.714  -5.877  0.00  0.00    +0.111 A 
ATOM     11  C   UNL     1      -5.168   3.568  -4.754  0.00  0.00    +0.020 A 
ATOM     12  C   UNL     1      -4.768   4.157  -3.565  0.00  0.00    +0.008 A 
ENDBRANCH   3   7
TORSDOF 1
ENDMDL
