MODEL 1
REMARK VINA RESULT:    -5.200      0.000      0.000
REMARK INTER + INTRA:          -5.699
REMARK INTER:                  -5.504
REMARK INTRA:                  -0.196
REMARK UNBOUND:                -0.196
REMARK  Name = Nicotine.pdb
REMARK  2 active torsions:
REMARK  status: ('A' for Active; 'I' for Inactive)
REMARK    1  A    between atoms: C_3  and  C_6
REMARK    2  A    between atoms: N_4  and  C_12
REMARK                            x       y       z     vdW  Elec       q    Type
REMARK                         _______ _______ _______ _____ _____    ______ ____
ROOT
ATOM      1  C   UNL     1       1.927   1.032   1.224  0.00  0.00    +0.017 C 
ATOM      2  C   UNL     1       0.885   2.164   1.023  0.00  0.00    +0.025 C 
ATOM      3  C   UNL     1       1.245   3.169   2.137  0.00  0.00    +0.088 C 
ATOM      4  N   UNL     1       1.980   2.425   3.176  0.00  0.00    -0.298 NA
ATOM      5  C   UNL     1       2.068   1.008   2.767  0.00  0.00    +0.085 C 
ATOM      6  C   UNL     1       3.316   2.997   3.387  0.00  0.00    +0.105 C 
ENDROOT
BRANCH   3   7
ATOM      7  C   UNL     1      -0.013   3.759   2.721  0.00  0.00    -0.012 A 
ATOM      8  C   UNL     1      -0.412   5.036   2.375  0.00  0.00    +0.115 A 
ATOM      9  N   UNL     1      -1.511   5.560   2.881  0.00  0.00    -0.263 NA
ATOM     10  C   UNL     1      -2.269   4.894   3.729  0.00  0.00    +0.111 A 
ATOM     11  C   UNL     1      -1.935   3.612   4.121  0.00  0.00    +0.020 A 
ATOM     12  C   UNL     1      -0.788   3.026   3.606  0.00  0.00    +0.008 A 
ENDBRANCH   3   7
TORSDOF 1
ENDMDL
MODEL 2
REMARK VINA RESULT:    -4.959      1.160      4.492
REMARK INTER + INTRA:          -5.444
REMARK INTER:                  -5.238
REMARK INTRA:                  -0.206
REMARK UNBOUND:                -0.196
REMARK  Name = Nicotine.pdb
REMARK  2 active torsions:
REMARK  status: ('A' for Active; 'I' for Inactive)
REMARK    1  A    between atoms: C_3  and  C_6
REMARK    2  A    between atoms: N_4  and  C_12
REMARK                            x       y       z     vdW  Elec       q    Type
REMARK                         _______ _______ _______ _____ _____    ______ ____
ROOT
ATOM      1  C   UNL     1      -1.070   5.678   2.112  0.00  0.00    +0.017 C 
ATOM      2  C   UNL     1      -0.335   4.539   1.358  0.00  0.00    +0.025 C 
ATOM      3  C   UNL     1      -0.382   3.370   2.365  0.00  0.00    +0.088 C 
ATOM      4  N   UNL     1      -0.574   3.954   3.704  0.00  0.00    -0.298 NA
ATOM      5  C   UNL     1      -0.622   5.426   3.573  0.00  0.00    +0.085 C 
ATOM      6  C   UNL     1      -1.798   3.440   4.333  0.00  0.00    +0.105 C 
ENDROOT
BRANCH   3   7
ATOM      7  C   UNL     1       0.914   2.603   2.320  0.00  0.00    -0.012 A 
ATOM      8  C   UNL     1       1.822   2.703   3.357  0.00  0.00    +0.115 A 
ATOM      9  N   UNL     1       2.959   2.035   3.326  0.00  0.00    -0.263 NA
ATOM     10  C   UNL     1       3.274   1.251   2.314  0.00  0.00    +0.111 A 
ATOM     11  C   UNL     1       2.416   1.100   1.241  0.00  0.00    +0.020 A 
ATOM     12  C   UNL     1       1.209   1.783   1.242  0.00  0.00    +0.008 A 
ENDBRANCH   3   7
TORSDOF 1
ENDMDL
MODEL 3
REMARK VINA RESULT:    -4.932      1.536      4.370
REMARK INTER + INTRA:          -5.416
REMARK INTER:                  -5.193
REMARK INTRA:                  -0.224
REMARK UNBOUND:                -0.196
REMARK  Name = Nicotine.pdb
REMARK  2 active torsions:
REMARK  status: ('A' for Active; 'I' for Inactive)
REMARK    1  A    between atoms: C_3  and  C_6
REMARK    2  A    between atoms: N_4  and  C_12
REMARK                            x       y       z     vdW  Elec       q    Type
REMARK                         _______ _______ _______ _____ _____    ______ ____
ROOT
ATOM      1  C   UNL     1      -0.933   5.057  -0.536  0.00  0.00    +0.017 C 
ATOM      2  C   UNL     1      -0.652   3.594  -0.103  0.00  0.00    +0.025 C 
ATOM      3  C   UNL     1      -0.417   3.722   1.417  0.00  0.00    +0.088 C 
ATOM      4  N   UNL     1      -0.025   5.118   1.683  0.00  0.00    -0.298 NA
ATOM      5  C   UNL     1       0.016   5.848   0.398  0.00  0.00    +0.085 C 
ATOM      6  C   UNL     1      -0.956   5.757   2.623  0.00  0.00    +0.105 C 
ENDROOT
BRANCH   3   7
ATOM      7  C   UNL     1       0.686   2.788   1.845  0.00  0.00    -0.012 A 
ATOM      8  C   UNL     1       1.245   2.898   3.104  0.00  0.00    +0.115 A 
ATOM      9  N   UNL     1       2.210   2.085   3.487  0.00  0.00    -0.263 NA
ATOM     10  C   UNL     1       2.678   1.143   2.692  0.00  0.00    +0.111 A 
ATOM     11  C   UNL     1       2.168   0.972   1.419  0.00  0.00    +0.020 A 
ATOM     12  C   UNL     1       1.148   1.805   0.984  0.00  0.00    +0.008 A 
ENDBRANCH   3   7
TORSDOF 1
ENDMDL
MODEL 4
REMARK VINA RESULT:    -4.905      1.234      4.465
REMARK INTER + INTRA:          -5.387
REMARK INTER:                  -5.135
REMARK INTRA:                  -0.253
REMARK UNBOUND:                -0.196
REMARK  Name = Nicotine.pdb
REMARK  2 active torsions:
REMARK  status: ('A' for Active; 'I' for Inactive)
REMARK    1  A    between atoms: C_3  and  C_6
REMARK    2  A    between atoms: N_4  and  C_12
REMARK                            x       y       z     vdW  Elec       q    Type
REMARK                         _______ _______ _______ _____ _____    ______ ____
ROOT
ATOM      1  C   UNL     1      -1.921   4.526   3.407  0.00  0.00    +0.017 C 
ATOM      2  C   UNL     1      -1.111   3.209   3.531  0.00  0.00    +0.025 C 
ATOM      3  C   UNL     1       0.338   3.709   3.711  0.00  0.00    +0.088 C 
ATOM      4  N   UNL     1       0.401   5.075   3.162  0.00  0.00    -0.298 NA
ATOM      5  C   UNL     1      -0.932   5.430   2.630  0.00  0.00    +0.085 C 
ATOM      6  C   UNL     1       0.832   6.036   4.186  0.00  0.00    +0.105 C 
ENDROOT
BRANCH   3   7
ATOM      7  C   UNL     1       1.288   2.810   2.963  0.00  0.00    -0.012 A 
ATOM      8  C   UNL     1       2.546   2.546   3.469  0.00  0.00    +0.115 A 
ATOM      9  N   UNL     1       3.384   1.760   2.820  0.00  0.00    -0.263 NA
ATOM     10  C   UNL     1       3.059   1.199   1.672  0.00  0.00    +0.111 A 
ATOM     11  C   UNL     1       1.817   1.416   1.104  0.00  0.00    +0.020 A 
ATOM     12  C   UNL     1       0.909   2.232   1.760  0.00  0.00    +0.008 A 
ENDBRANCH   3   7
TORSDOF 1
ENDMDL
MODEL 5
REMARK VINA RESULT:    -4.840      1.472      4.410
REMARK INTER + INTRA:          -5.318
REMARK INTER:                  -5.102
REMARK INTRA:                  -0.216
REMARK UNBOUND:                -0.196
REMARK  Name = Nicotine.pdb
REMARK  2 active torsions:
REMARK  status: ('A' for Active; 'I' for Inactive)
REMARK    1  A    between atoms: C_3  and  C_6
REMARK    2  A    between atoms: N_4  and  C_12
REMARK                            x       y       z     vdW  Elec       q    Type
REMARK                         _______ _______ _______ _____ _____    ______ ____
ROOT
ATOM      1  C   UNL     1      -0.600   4.251   0.168  0.00  0.00    +0.017 C 
ATOM      2  C   UNL     1       0.087   2.908   0.529  0.00  0.00    +0.025 C 
ATOM      3  C   UNL     1       0.282   3.018   2.056  0.00  0.00    +0.088 C 
ATOM      4  N   UNL     1       0.261   4.452   2.397  0.00  0.00    -0.298 NA
ATOM      5  C   UNL     1       0.088   5.230   1.152  0.00  0.00    +0.085 C 
ATOM      6  C   UNL     1      -0.810   4.749   3.358  0.00  0.00    +0.105 C 
ENDROOT
BRANCH   3   7
ATOM      7  C   UNL     1       1.607   2.416   2.448  0.00  0.00    -0.012 A 
ATOM      8  C   UNL     1       2.253   2.836   3.595  0.00  0.00    +0.115 A 
ATOM      9  N   UNL     1       3.413   2.314   3.946  0.00  0.00    -0.263 NA
ATOM     10  C   UNL     1       3.998   1.380   3.224  0.00  0.00    +0.111 A 
ATOM     11  C   UNL     1       3.411   0.910   2.064  0.00  0.00    +0.020 A 
ATOM     12  C   UNL     1       2.190   1.431   1.667  0.00  0.00    +0.008 A 
ENDBRANCH   3   7
TORSDOF 1
ENDMDL
MODEL 6
REMARK VINA RESULT:    -4.335      2.511      4.139
REMARK INTER + INTRA:          -4.784
REMARK INTER:                  -4.571
REMARK INTRA:                  -0.213
REMARK UNBOUND:                -0.196
REMARK  Name = Nicotine.pdb
REMARK  2 active torsions:
REMARK  status: ('A' for Active; 'I' for Inactive)
REMARK    1  A    between atoms: C_3  and  C_6
REMARK    2  A    between atoms: N_4  and  C_12
REMARK                            x       y       z     vdW  Elec       q    Type
REMARK                         _______ _______ _______ _____ _____    ______ ____
ROOT
ATOM      1  C   UNL     1       5.846   1.360   4.546  0.00  0.00    +0.017 C 
ATOM      2  C   UNL     1       4.612   2.261   4.271  0.00  0.00    +0.025 C 
ATOM      3  C   UNL     1       3.459   1.242   4.148  0.00  0.00    +0.088 C 
ATOM      4  N   UNL     1       4.060  -0.059   3.802  0.00  0.00    -0.298 NA
ATOM      5  C   UNL     1       5.524   0.116   3.681  0.00  0.00    +0.085 C 
ATOM      6  C   UNL     1       3.733  -1.076   4.809  0.00  0.00    +0.105 C 
ENDROOT
BRANCH   3   7
ATOM      7  C   UNL     1       2.507   1.673   3.063  0.00  0.00    -0.012 A 
ATOM      8  C   UNL     1       1.756   2.824   3.210  0.00  0.00    +0.115 A 
ATOM      9  N   UNL     1       0.920   3.209   2.265  0.00  0.00    -0.263 NA
ATOM     10  C   UNL     1       0.767   2.519   1.152  0.00  0.00    +0.111 A 
ATOM     11  C   UNL     1       1.485   1.358   0.935  0.00  0.00    +0.020 A 
ATOM     12  C   UNL     1       2.377   0.925   1.904  0.00  0.00    +0.008 A 
ENDBRANCH   3   7
TORSDOF 1
ENDMDL
MODEL 7
REMARK VINA RESULT:    -4.158      1.946      4.434
REMARK INTER + INTRA:          -4.597
REMARK INTER:                  -4.397
REMARK INTRA:                  -0.200
REMARK UNBOUND:                -0.196
REMARK  Name = Nicotine.pdb
REMARK  2 active torsions:
REMARK  status: ('A' for Active; 'I' for Inactive)
REMARK    1  A    between atoms: C_3  and  C_6
REMARK    2  A    between atoms: N_4  and  C_12
REMARK                            x       y       z     vdW  Elec       q    Type
REMARK                         _______ _______ _______ _____ _____    ______ ____
ROOT
ATOM      1  C   UNL     1       1.578   1.287   1.033  0.00  0.00    +0.017 C 
ATOM      2  C   UNL     1       2.821   1.572   1.917  0.00  0.00    +0.025 C 
ATOM      3  C   UNL     1       2.263   2.511   3.008  0.00  0.00    +0.088 C 
ATOM      4  N   UNL     1       1.044   3.136   2.465  0.00  0.00    -0.298 NA
ATOM      5  C   UNL     1       0.839   2.648   1.084  0.00  0.00    +0.085 C 
ATOM      6  C   UNL     1      -0.121   2.840   3.308  0.00  0.00    +0.105 C 
ENDROOT
BRANCH   3   7
ATOM      7  C   UNL     1       3.281   3.571   3.341  0.00  0.00    -0.012 A 
ATOM      8  C   UNL     1       4.311   3.299   4.221  0.00  0.00    +0.115 A 
ATOM      9  N   UNL     1       5.206   4.221   4.518  0.00  0.00    -0.263 NA
ATOM     10  C   UNL     1       5.156   5.429   3.993  0.00  0.00    +0.111 A 
ATOM     11  C   UNL     1       4.155   5.774   3.104  0.00  0.00    +0.020 A 
ATOM     12  C   UNL     1       3.200   4.829   2.764  0.00  0.00    +0.008 A 
ENDBRANCH   3   7
TORSDOF 1
ENDMDL
MODEL 8
REMARK VINA RESULT:    -4.130      1.493      1.801
REMARK INTER + INTRA:          -4.567
REMARK INTER:                  -4.347
REMARK INTRA:                  -0.219
REMARK UNBOUND:                -0.196
REMARK  Name = Nicotine.pdb
REMARK  2 active torsions:
REMARK  status: ('A' for Active; 'I' for Inactive)
REMARK    1  A    between atoms: C_3  and  C_6
REMARK    2  A    between atoms: N_4  and  C_12
REMARK                            x       y       z     vdW  Elec       q    Type
REMARK                         _______ _______ _______ _____ _____    ______ ____
ROOT
ATOM      1  C   UNL     1       3.361   1.437   2.795  0.00  0.00    +0.017 C 
ATOM      2  C   UNL     1       1.855   1.752   2.596  0.00  0.00    +0.025 C 
ATOM      3  C   UNL     1       1.781   3.271   2.859  0.00  0.00    +0.088 C 
ATOM      4  N   UNL     1       2.956   3.632   3.672  0.00  0.00    -0.298 NA
ATOM      5  C   UNL     1       3.735   2.406   3.945  0.00  0.00    +0.085 C 
ATOM      6  C   UNL     1       3.780   4.639   2.991  0.00  0.00    +0.105 C 
ENDROOT
BRANCH   3   7
ATOM      7  C   UNL     1       0.516   3.601   3.608  0.00  0.00    -0.012 A 
ATOM      8  C   UNL     1       0.548   4.463   4.688  0.00  0.00    +0.115 A 
ATOM      9  N   UNL     1      -0.555   4.757   5.349  0.00  0.00    -0.263 NA
ATOM     10  C   UNL     1      -1.722   4.247   5.011  0.00  0.00    +0.111 A 
ATOM     11  C   UNL     1      -1.832   3.378   3.941  0.00  0.00    +0.020 A 
ATOM     12  C   UNL     1      -0.695   3.050   3.219  0.00  0.00    +0.008 A 
ENDBRANCH   3   7
TORSDOF 1
ENDMDL
MODEL 9
REMARK VINA RESULT:    -3.960      2.545      4.379
REMARK INTER + INTRA:          -4.387
REMARK INTER:                  -4.164
REMARK INTRA:                  -0.223
REMARK UNBOUND:                -0.196
REMARK  Name = Nicotine.pdb
REMARK  2 active torsions:
REMARK  status: ('A' for Active; 'I' for Inactive)
REMARK    1  A    between atoms: C_3  and  C_6
REMARK    2  A    between atoms: N_4  and  C_12
REMARK                            x       y       z     vdW  Elec       q    Type
REMARK                         _______ _______ _______ _____ _____    ______ ____
ROOT
ATOM      1  C   UNL     1       5.517  -0.727   4.867  0.00  0.00    +0.017 C 
ATOM      2  C   UNL     1       4.703  -0.476   3.571  0.00  0.00    +0.025 C 
ATOM      3  C   UNL     1       4.699   1.063   3.456  0.00  0.00    +0.088 C 
ATOM      4  N   UNL     1       4.949   1.603   4.805  0.00  0.00    -0.298 NA
ATOM      5  C   UNL     1       5.081   0.471   5.747  0.00  0.00    +0.085 C 
ATOM      6  C   UNL     1       6.151   2.446   4.821  0.00  0.00    +0.105 C 
ENDROOT
BRANCH   3   7
ATOM      7  C   UNL     1       3.360   1.536   2.953  0.00  0.00    -0.012 A 
ATOM      8  C   UNL     1       2.645   2.487   3.656  0.00  0.00    +0.115 A 
ATOM      9  N   UNL     1       1.472   2.906   3.223  0.00  0.00    -0.263 NA
ATOM     10  C   UNL     1       0.937   2.441   2.111  0.00  0.00    +0.111 A 
ATOM     11  C   UNL     1       1.595   1.490   1.354  0.00  0.00    +0.020 A 
ATOM     12  C   UNL     1       2.832   1.029   1.775  0.00  0.00    +0.008 A 
ENDBRANCH   3   7
TORSDOF 1
ENDMDL
MODEL 10
REMARK VINA RESULT:    -3.876      1.703      2.812
REMARK INTER + INTRA:          -4.298
REMARK INTER:                  -4.103
REMARK INTRA:                  -0.196
REMARK UNBOUND:                -0.196
REMARK  Name = Nicotine.pdb
REMARK  2 active torsions:
REMARK  status: ('A' for Active; 'I' for Inactive)
REMARK    1  A    between atoms: C_3  and  C_6
REMARK    2  A    between atoms: N_4  and  C_12
REMARK                            x       y       z     vdW  Elec       q    Type
REMARK                         _______ _______ _______ _____ _____    ______ ____
ROOT
ATOM      1  C   UNL     1       1.521   2.844   2.170  0.00  0.00    +0.017 C 
ATOM      2  C   UNL     1       0.044   2.787   2.641  0.00  0.00    +0.025 C 
ATOM      3  C   UNL     1      -0.494   4.183   2.264  0.00  0.00    +0.088 C 
ATOM      4  N   UNL     1       0.667   5.085   2.156  0.00  0.00    -0.298 NA
ATOM      5  C   UNL     1       1.890   4.318   2.474  0.00  0.00    +0.085 C 
ATOM      6  C   UNL     1       0.751   5.679   0.816  0.00  0.00    +0.105 C 
ENDROOT
BRANCH   3   7
ATOM      7  C   UNL     1      -1.432   4.678   3.334  0.00  0.00    -0.012 A 
ATOM      8  C   UNL     1      -1.778   3.859   4.393  0.00  0.00    +0.115 A 
ATOM      9  N   UNL     1      -2.598   4.285   5.334  0.00  0.00    -0.263 NA
ATOM     10  C   UNL     1      -3.117   5.496   5.306  0.00  0.00    +0.111 A 
ATOM     11  C   UNL     1      -2.816   6.371   4.279  0.00  0.00    +0.020 A 
ATOM     12  C   UNL     1      -1.954   5.961   3.274  0.00  0.00    +0.008 A 
ENDBRANCH   3   7
TORSDOF 1
ENDMDL
