MODEL 1
REMARK VINA RESULT:    -3.862      0.000      0.000
REMARK INTER + INTRA:          -4.342
REMARK INTER:                  -4.088
REMARK INTRA:                  -0.254
REMARK UNBOUND:                -0.254
REMARK  Name = Nicotine.pdb
REMARK  2 active torsions:
REMARK  status: ('A' for Active; 'I' for Inactive)
REMARK    1  A    between atoms: C_3  and  C_6
REMARK    2  A    between atoms: N_4  and  C_12
REMARK                            x       y       z     vdW  Elec       q    Type
REMARK                         _______ _______ _______ _____ _____    ______ ____
ROOT
ATOM      1  C   UNL     1      -4.422  -5.592   4.169  0.00  0.00    +0.017 C 
ATOM      2  C   UNL     1      -4.068  -4.827   2.866  0.00  0.00    +0.025 C 
ATOM      3  C   UNL     1      -2.537  -4.661   2.968  0.00  0.00    +0.088 C 
ATOM      4  N   UNL     1      -2.178  -4.776   4.393  0.00  0.00    -0.298 NA
ATOM      5  C   UNL     1      -3.416  -4.979   5.175  0.00  0.00    +0.085 C 
ATOM      6  C   UNL     1      -1.230  -5.876   4.610  0.00  0.00    +0.105 C 
ENDROOT
BRANCH   3   7
ATOM      7  C   UNL     1      -2.132  -3.307   2.443  0.00  0.00    -0.012 A 
ATOM      8  C   UNL     1      -0.923  -3.142   1.794  0.00  0.00    +0.115 A 
ATOM      9  N   UNL     1      -0.562  -1.960   1.332  0.00  0.00    -0.263 NA
ATOM     10  C   UNL     1      -1.331  -0.898   1.469  0.00  0.00    +0.111 A 
ATOM     11  C   UNL     1      -2.554  -0.987   2.106  0.00  0.00    +0.020 A 
ATOM     12  C   UNL     1      -2.970  -2.214   2.600  0.00  0.00    +0.008 A 
ENDBRANCH   3   7
TORSDOF 1
ENDMDL
MODEL 2
REMARK VINA RESULT:    -3.848      2.244      3.124
REMARK INTER + INTRA:          -4.327
REMARK INTER:                  -4.120
REMARK INTRA:                  -0.207
REMARK UNBOUND:                -0.254
REMARK  Name = Nicotine.pdb
REMARK  2 active torsions:
REMARK  status: ('A' for Active; 'I' for Inactive)
REMARK    1  A    between atoms: C_3  and  C_6
REMARK    2  A    between atoms: N_4  and  C_12
REMARK                            x       y       z     vdW  Elec       q    Type
REMARK                         _______ _______ _______ _____ _____    ______ ____
ROOT
ATOM      1  C   UNL     1      -2.929  -5.022   3.189  0.00  0.00    +0.017 C 
ATOM      2  C   UNL     1      -3.939  -3.897   2.842  0.00  0.00    +0.025 C 
ATOM      3  C   UNL     1      -3.033  -2.774   2.294  0.00  0.00    +0.088 C 
ATOM      4  N   UNL     1      -1.678  -3.008   2.825  0.00  0.00    -0.298 NA
ATOM      5  C   UNL     1      -1.712  -4.205   3.692  0.00  0.00    +0.085 C 
ATOM      6  C   UNL     1      -0.707  -3.173   1.736  0.00  0.00    +0.105 C 
ENDROOT
BRANCH   3   7
ATOM      7  C   UNL     1      -3.542  -1.433   2.757  0.00  0.00    -0.012 A 
ATOM      8  C   UNL     1      -4.681  -0.886   2.198  0.00  0.00    +0.115 A 
ATOM      9  N   UNL     1      -5.133   0.286   2.597  0.00  0.00    -0.263 NA
ATOM     10  C   UNL     1      -4.523   0.980   3.538  0.00  0.00    +0.111 A 
ATOM     11  C   UNL     1      -3.379   0.497   4.145  0.00  0.00    +0.020 A 
ATOM     12  C   UNL     1      -2.877  -0.735   3.754  0.00  0.00    +0.008 A 
ENDBRANCH   3   7
TORSDOF 1
ENDMDL
MODEL 3
REMARK VINA RESULT:    -3.837      2.400      4.046
REMARK INTER + INTRA:          -4.315
REMARK INTER:                  -4.105
REMARK INTRA:                  -0.209
REMARK UNBOUND:                -0.254
REMARK  Name = Nicotine.pdb
REMARK  2 active torsions:
REMARK  status: ('A' for Active; 'I' for Inactive)
REMARK    1  A    between atoms: C_3  and  C_6
REMARK    2  A    between atoms: N_4  and  C_12
REMARK                            x       y       z     vdW  Elec       q    Type
REMARK                         _______ _______ _______ _____ _____    ______ ____
ROOT
ATOM      1  C   UNL     1      -4.569   1.120   3.856  0.00  0.00    +0.017 C 
ATOM      2  C   UNL     1      -4.377  -0.090   2.904  0.00  0.00    +0.025 C 
ATOM      3  C   UNL     1      -3.724  -1.150   3.816  0.00  0.00    +0.088 C 
ATOM      4  N   UNL     1      -3.094  -0.431   4.938  0.00  0.00    -0.298 NA
ATOM      5  C   UNL     1      -3.306   1.019   4.748  0.00  0.00    +0.085 C 
ATOM      6  C   UNL     1      -3.642  -0.880   6.225  0.00  0.00    +0.105 C 
ENDROOT
BRANCH   3   7
ATOM      7  C   UNL     1      -2.680  -1.916   3.046  0.00  0.00    -0.012 A 
ATOM      8  C   UNL     1      -1.865  -1.267   2.138  0.00  0.00    +0.115 A 
ATOM      9  N   UNL     1      -0.949  -1.931   1.459  0.00  0.00    -0.263 NA
ATOM     10  C   UNL     1      -0.774  -3.228   1.616  0.00  0.00    +0.111 A 
ATOM     11  C   UNL     1      -1.552  -3.944   2.507  0.00  0.00    +0.020 A 
ATOM     12  C   UNL     1      -2.522  -3.280   3.242  0.00  0.00    +0.008 A 
ENDBRANCH   3   7
TORSDOF 1
ENDMDL
MODEL 4
REMARK VINA RESULT:    -3.607      3.332      4.691
REMARK INTER + INTRA:          -4.072
REMARK INTER:                  -3.858
REMARK INTRA:                  -0.214
REMARK UNBOUND:                -0.254
REMARK  Name = Nicotine.pdb
REMARK  2 active torsions:
REMARK  status: ('A' for Active; 'I' for Inactive)
REMARK    1  A    between atoms: C_3  and  C_6
REMARK    2  A    between atoms: N_4  and  C_12
REMARK                            x       y       z     vdW  Elec       q    Type
REMARK                         _______ _______ _______ _____ _____    ______ ____
ROOT
ATOM      1  C   UNL     1      -3.657  -3.147   2.481  0.00  0.00    +0.017 C 
ATOM      2  C   UNL     1      -4.493  -1.941   2.986  0.00  0.00    +0.025 C 
ATOM      3  C   UNL     1      -3.529  -0.749   2.803  0.00  0.00    +0.088 C 
ATOM      4  N   UNL     1      -2.160  -1.295   2.774  0.00  0.00    -0.298 NA
ATOM      5  C   UNL     1      -2.234  -2.761   2.955  0.00  0.00    +0.085 C 
ATOM      6  C   UNL     1      -1.483  -0.953   1.516  0.00  0.00    +0.105 C 
ENDROOT
BRANCH   3   7
ATOM      7  C   UNL     1      -3.675   0.210   3.956  0.00  0.00    -0.012 A 
ATOM      8  C   UNL     1      -4.869   0.875   4.165  0.00  0.00    +0.115 A 
ATOM      9  N   UNL     1      -5.005   1.716   5.171  0.00  0.00    -0.263 NA
ATOM     10  C   UNL     1      -4.019   1.956   6.013  0.00  0.00    +0.111 A 
ATOM     11  C   UNL     1      -2.796   1.327   5.867  0.00  0.00    +0.020 A 
ATOM     12  C   UNL     1      -2.617   0.432   4.824  0.00  0.00    +0.008 A 
ENDBRANCH   3   7
TORSDOF 1
ENDMDL
MODEL 5
REMARK VINA RESULT:    -3.557      1.590      4.419
REMARK INTER + INTRA:          -4.019
REMARK INTER:                  -3.778
REMARK INTRA:                  -0.241
REMARK UNBOUND:                -0.254
REMARK  Name = Nicotine.pdb
REMARK  2 active torsions:
REMARK  status: ('A' for Active; 'I' for Inactive)
REMARK    1  A    between atoms: C_3  and  C_6
REMARK    2  A    between atoms: N_4  and  C_12
REMARK                            x       y       z     vdW  Elec       q    Type
REMARK                         _______ _______ _______ _____ _____    ______ ____
ROOT
ATOM      1  C   UNL     1      -1.787  -0.964   1.691  0.00  0.00    +0.017 C 
ATOM      2  C   UNL     1      -1.028  -2.316   1.749  0.00  0.00    +0.025 C 
ATOM      3  C   UNL     1      -2.088  -3.285   2.313  0.00  0.00    +0.088 C 
ATOM      4  N   UNL     1      -3.088  -2.471   3.029  0.00  0.00    -0.298 NA
ATOM      5  C   UNL     1      -2.680  -1.052   2.954  0.00  0.00    +0.085 C 
ATOM      6  C   UNL     1      -4.429  -2.665   2.462  0.00  0.00    +0.105 C 
ENDROOT
BRANCH   3   7
ATOM      7  C   UNL     1      -1.440  -4.257   3.265  0.00  0.00    -0.012 A 
ATOM      8  C   UNL     1      -2.192  -5.241   3.878  0.00  0.00    +0.115 A 
ATOM      9  N   UNL     1      -1.632  -6.096   4.712  0.00  0.00    -0.263 NA
ATOM     10  C   UNL     1      -0.345  -6.047   4.995  0.00  0.00    +0.111 A 
ATOM     11  C   UNL     1       0.470  -5.090   4.420  0.00  0.00    +0.020 A 
ATOM     12  C   UNL     1      -0.082  -4.178   3.533  0.00  0.00    +0.008 A 
ENDBRANCH   3   7
TORSDOF 1
ENDMDL
MODEL 6
REMARK VINA RESULT:    -3.300      1.390      4.390
REMARK INTER + INTRA:          -3.746
REMARK INTER:                  -3.541
REMARK INTRA:                  -0.205
REMARK UNBOUND:                -0.254
REMARK  Name = Nicotine.pdb
REMARK  2 active torsions:
REMARK  status: ('A' for Active; 'I' for Inactive)
REMARK    1  A    between atoms: C_3  and  C_6
REMARK    2  A    between atoms: N_4  and  C_12
REMARK                            x       y       z     vdW  Elec       q    Type
REMARK                         _______ _______ _______ _____ _____    ______ ____
ROOT
ATOM      1  C   UNL     1      -1.479  -1.265   1.520  0.00  0.00    +0.017 C 
ATOM      2  C   UNL     1      -1.062  -2.736   1.780  0.00  0.00    +0.025 C 
ATOM      3  C   UNL     1      -2.354  -3.369   2.339  0.00  0.00    +0.088 C 
ATOM      4  N   UNL     1      -3.180  -2.273   2.877  0.00  0.00    -0.298 NA
ATOM      5  C   UNL     1      -2.448  -1.001   2.699  0.00  0.00    +0.085 C 
ATOM      6  C   UNL     1      -4.490  -2.225   2.214  0.00  0.00    +0.105 C 
ENDROOT
BRANCH   3   7
ATOM      7  C   UNL     1      -2.015  -4.343   3.437  0.00  0.00    -0.012 A 
ATOM      8  C   UNL     1      -0.702  -4.522   3.832  0.00  0.00    +0.115 A 
ATOM      9  N   UNL     1      -0.396  -5.372   4.792  0.00  0.00    -0.263 NA
ATOM     10  C   UNL     1      -1.320  -6.082   5.410  0.00  0.00    +0.111 A 
ATOM     11  C   UNL     1      -2.654  -5.956   5.070  0.00  0.00    +0.020 A 
ATOM     12  C   UNL     1      -3.014  -5.068   4.069  0.00  0.00    +0.008 A 
ENDBRANCH   3   7
TORSDOF 1
ENDMDL
MODEL 7
REMARK VINA RESULT:    -3.221      1.837      4.471
REMARK INTER + INTRA:          -3.663
REMARK INTER:                  -3.437
REMARK INTRA:                  -0.226
REMARK UNBOUND:                -0.254
REMARK  Name = Nicotine.pdb
REMARK  2 active torsions:
REMARK  status: ('A' for Active; 'I' for Inactive)
REMARK    1  A    between atoms: C_3  and  C_6
REMARK    2  A    between atoms: N_4  and  C_12
REMARK                            x       y       z     vdW  Elec       q    Type
REMARK                         _______ _______ _______ _____ _____    ______ ____
ROOT
ATOM      1  C   UNL     1      -4.048  -1.211   1.972  0.00  0.00    +0.017 C 
ATOM      2  C   UNL     1      -4.163  -2.589   2.676  0.00  0.00    +0.025 C 
ATOM      3  C   UNL     1      -3.492  -2.337   4.043  0.00  0.00    +0.088 C 
ATOM      4  N   UNL     1      -2.602  -1.173   3.885  0.00  0.00    -0.298 NA
ATOM      5  C   UNL     1      -2.672  -0.713   2.482  0.00  0.00    +0.085 C 
ATOM      6  C   UNL     1      -2.972  -0.096   4.812  0.00  0.00    +0.105 C 
ENDROOT
BRANCH   3   7
ATOM      7  C   UNL     1      -2.691  -3.545   4.452  0.00  0.00    -0.012 A 
ATOM      8  C   UNL     1      -2.909  -4.147   5.677  0.00  0.00    +0.115 A 
ATOM      9  N   UNL     1      -2.212  -5.205   6.043  0.00  0.00    -0.263 NA
ATOM     10  C   UNL     1      -1.287  -5.729   5.263  0.00  0.00    +0.111 A 
ATOM     11  C   UNL     1      -1.014  -5.182   4.023  0.00  0.00    +0.020 A 
ATOM     12  C   UNL     1      -1.730  -4.072   3.603  0.00  0.00    +0.008 A 
ENDBRANCH   3   7
TORSDOF 1
ENDMDL
MODEL 8
REMARK VINA RESULT:    -3.066      1.914      2.828
REMARK INTER + INTRA:          -3.499
REMARK INTER:                  -3.309
REMARK INTRA:                  -0.190
REMARK UNBOUND:                -0.254
REMARK  Name = Nicotine.pdb
REMARK  2 active torsions:
REMARK  status: ('A' for Active; 'I' for Inactive)
REMARK    1  A    between atoms: C_3  and  C_6
REMARK    2  A    between atoms: N_4  and  C_12
REMARK                            x       y       z     vdW  Elec       q    Type
REMARK                         _______ _______ _______ _____ _____    ______ ____
ROOT
ATOM      1  C   UNL     1      -5.128  -1.301   5.666  0.00  0.00    +0.017 C 
ATOM      2  C   UNL     1      -4.643  -1.028   4.218  0.00  0.00    +0.025 C 
ATOM      3  C   UNL     1      -4.142  -2.412   3.754  0.00  0.00    +0.088 C 
ATOM      4  N   UNL     1      -3.834  -3.194   4.964  0.00  0.00    -0.298 NA
ATOM      5  C   UNL     1      -4.097  -2.351   6.150  0.00  0.00    +0.085 C 
ATOM      6  C   UNL     1      -4.628  -4.429   5.010  0.00  0.00    +0.105 C 
ENDROOT
BRANCH   3   7
ATOM      7  C   UNL     1      -2.900  -2.253   2.915  0.00  0.00    -0.012 A 
ATOM      8  C   UNL     1      -2.510  -1.002   2.474  0.00  0.00    +0.115 A 
ATOM      9  N   UNL     1      -1.425  -0.854   1.740  0.00  0.00    -0.263 NA
ATOM     10  C   UNL     1      -0.674  -1.882   1.398  0.00  0.00    +0.111 A 
ATOM     11  C   UNL     1      -1.001  -3.163   1.802  0.00  0.00    +0.020 A 
ATOM     12  C   UNL     1      -2.132  -3.357   2.580  0.00  0.00    +0.008 A 
ENDBRANCH   3   7
TORSDOF 1
ENDMDL
MODEL 9
REMARK VINA RESULT:    -3.009      1.945      4.588
REMARK INTER + INTRA:          -3.439
REMARK INTER:                  -3.264
REMARK INTRA:                  -0.175
REMARK UNBOUND:                -0.254
REMARK  Name = Nicotine.pdb
REMARK  2 active torsions:
REMARK  status: ('A' for Active; 'I' for Inactive)
REMARK    1  A    between atoms: C_3  and  C_6
REMARK    2  A    between atoms: N_4  and  C_12
REMARK                            x       y       z     vdW  Elec       q    Type
REMARK                         _______ _______ _______ _____ _____    ______ ____
ROOT
ATOM      1  C   UNL     1      -3.848  -0.105   4.337  0.00  0.00    +0.017 C 
ATOM      2  C   UNL     1      -3.631  -1.590   4.729  0.00  0.00    +0.025 C 
ATOM      3  C   UNL     1      -2.910  -2.172   3.494  0.00  0.00    +0.088 C 
ATOM      4  N   UNL     1      -3.224  -1.296   2.351  0.00  0.00    -0.298 NA
ATOM      5  C   UNL     1      -4.123  -0.218   2.817  0.00  0.00    +0.085 C 
ATOM      6  C   UNL     1      -1.999  -0.743   1.760  0.00  0.00    +0.105 C 
ENDROOT
BRANCH   3   7
ATOM      7  C   UNL     1      -3.406  -3.569   3.223  0.00  0.00    -0.012 A 
ATOM      8  C   UNL     1      -4.729  -3.788   2.887  0.00  0.00    +0.115 A 
ATOM      9  N   UNL     1      -5.171  -5.008   2.647  0.00  0.00    -0.263 NA
ATOM     10  C   UNL     1      -4.378  -6.058   2.718  0.00  0.00    +0.111 A 
ATOM     11  C   UNL     1      -3.043  -5.917   3.048  0.00  0.00    +0.020 A 
ATOM     12  C   UNL     1      -2.541  -4.650   3.301  0.00  0.00    +0.008 A 
ENDBRANCH   3   7
TORSDOF 1
ENDMDL
MODEL 10
REMARK VINA RESULT:    -2.831      3.619      5.720
REMARK INTER + INTRA:          -3.250
REMARK INTER:                  -3.035
REMARK INTRA:                  -0.215
REMARK UNBOUND:                -0.254
REMARK  Name = Nicotine.pdb
REMARK  2 active torsions:
REMARK  status: ('A' for Active; 'I' for Inactive)
REMARK    1  A    between atoms: C_3  and  C_6
REMARK    2  A    between atoms: N_4  and  C_12
REMARK                            x       y       z     vdW  Elec       q    Type
REMARK                         _______ _______ _______ _____ _____    ______ ____
ROOT
ATOM      1  C   UNL     1      -3.361   2.490   5.842  0.00  0.00    +0.017 C 
ATOM      2  C   UNL     1      -2.387   1.334   5.495  0.00  0.00    +0.025 C 
ATOM      3  C   UNL     1      -3.168   0.526   4.437  0.00  0.00    +0.088 C 
ATOM      4  N   UNL     1      -4.597   0.840   4.617  0.00  0.00    -0.298 NA
ATOM      5  C   UNL     1      -4.735   1.780   5.749  0.00  0.00    +0.085 C 
ATOM      6  C   UNL     1      -5.171   1.406   3.389  0.00  0.00    +0.105 C 
ENDROOT
BRANCH   3   7
ATOM      7  C   UNL     1      -2.936  -0.948   4.642  0.00  0.00    -0.012 A 
ATOM      8  C   UNL     1      -2.625  -1.439   5.897  0.00  0.00    +0.115 A 
ATOM      9  N   UNL     1      -2.420  -2.728   6.085  0.00  0.00    -0.263 NA
ATOM     10  C   UNL     1      -2.501  -3.594   5.095  0.00  0.00    +0.111 A 
ATOM     11  C   UNL     1      -2.808  -3.178   3.813  0.00  0.00    +0.020 A 
ATOM     12  C   UNL     1      -3.036  -1.830   3.578  0.00  0.00    +0.008 A 
ENDBRANCH   3   7
TORSDOF 1
ENDMDL
