MODEL 1
REMARK VINA RESULT:    -3.034      0.000      0.000
REMARK INTER + INTRA:          -3.467
REMARK INTER:                  -3.211
REMARK INTRA:                  -0.256
REMARK UNBOUND:                -0.256
REMARK  Name = Nicotine.pdb
REMARK  2 active torsions:
REMARK  status: ('A' for Active; 'I' for Inactive)
REMARK    1  A    between atoms: C_3  and  C_6
REMARK    2  A    between atoms: N_4  and  C_12
REMARK                            x       y       z     vdW  Elec       q    Type
REMARK                         _______ _______ _______ _____ _____    ______ ____
ROOT
ATOM      1  C   UNL     1       7.189  -5.420   2.850  0.00  0.00    +0.017 C 
ATOM      2  C   UNL     1       6.650  -3.966   2.843  0.00  0.00    +0.025 C 
ATOM      3  C   UNL     1       7.895  -3.137   2.460  0.00  0.00    +0.088 C 
ATOM      4  N   UNL     1       9.079  -3.945   2.798  0.00  0.00    -0.298 NA
ATOM      5  C   UNL     1       8.625  -5.220   3.394  0.00  0.00    +0.085 C 
ATOM      6  C   UNL     1       9.911  -4.185   1.612  0.00  0.00    +0.105 C 
ENDROOT
BRANCH   3   7
ATOM      7  C   UNL     1       7.912  -1.847   3.239  0.00  0.00    -0.012 A 
ATOM      8  C   UNL     1       8.665  -0.775   2.800  0.00  0.00    +0.115 A 
ATOM      9  N   UNL     1       8.685   0.357   3.476  0.00  0.00    -0.263 NA
ATOM     10  C   UNL     1       7.996   0.512   4.589  0.00  0.00    +0.111 A 
ATOM     11  C   UNL     1       7.219  -0.517   5.090  0.00  0.00    +0.020 A 
ATOM     12  C   UNL     1       7.169  -1.720   4.403  0.00  0.00    +0.008 A 
ENDBRANCH   3   7
TORSDOF 1
ENDMDL
MODEL 2
REMARK VINA RESULT:    -2.984      2.514      4.161
REMARK INTER + INTRA:          -3.414
REMARK INTER:                  -3.198
REMARK INTRA:                  -0.216
REMARK UNBOUND:                -0.256
REMARK  Name = Nicotine.pdb
REMARK  2 active torsions:
REMARK  status: ('A' for Active; 'I' for Inactive)
REMARK    1  A    between atoms: C_3  and  C_6
REMARK    2  A    between atoms: N_4  and  C_12
REMARK                            x       y       z     vdW  Elec       q    Type
REMARK                         _______ _______ _______ _____ _____    ______ ____
ROOT
ATOM      1  C   UNL     1       9.056   0.831  -0.395  0.00  0.00    +0.017 C 
ATOM      2  C   UNL     1       9.213   0.297   1.053  0.00  0.00    +0.025 C 
ATOM      3  C   UNL     1       9.019  -1.225   0.886  0.00  0.00    +0.088 C 
ATOM      4  N   UNL     1       8.267  -1.434  -0.365  0.00  0.00    -0.298 NA
ATOM      5  C   UNL     1       7.967  -0.115  -0.961  0.00  0.00    +0.085 C 
ATOM      6  C   UNL     1       9.024  -2.275  -1.300  0.00  0.00    +0.105 C 
ENDROOT
BRANCH   3   7
ATOM      7  C   UNL     1       8.239  -1.774   2.052  0.00  0.00    -0.012 A 
ATOM      8  C   UNL     1       7.511  -2.941   1.919  0.00  0.00    +0.115 A 
ATOM      9  N   UNL     1       6.826  -3.428   2.935  0.00  0.00    -0.263 NA
ATOM     10  C   UNL     1       6.807  -2.829   4.110  0.00  0.00    +0.111 A 
ATOM     11  C   UNL     1       7.512  -1.658   4.318  0.00  0.00    +0.020 A 
ATOM     12  C   UNL     1       8.248  -1.119   3.274  0.00  0.00    +0.008 A 
ENDBRANCH   3   7
TORSDOF 1
ENDMDL
MODEL 3
REMARK VINA RESULT:    -2.841      2.601      4.113
REMARK INTER + INTRA:          -3.263
REMARK INTER:                  -3.041
REMARK INTRA:                  -0.222
REMARK UNBOUND:                -0.256
REMARK  Name = Nicotine.pdb
REMARK  2 active torsions:
REMARK  status: ('A' for Active; 'I' for Inactive)
REMARK    1  A    between atoms: C_3  and  C_6
REMARK    2  A    between atoms: N_4  and  C_12
REMARK                            x       y       z     vdW  Elec       q    Type
REMARK                         _______ _______ _______ _____ _____    ______ ____
ROOT
ATOM      1  C   UNL     1       8.445  -5.230   2.953  0.00  0.00    +0.017 C 
ATOM      2  C   UNL     1       9.347  -4.504   1.920  0.00  0.00    +0.025 C 
ATOM      3  C   UNL     1       8.810  -3.057   1.947  0.00  0.00    +0.088 C 
ATOM      4  N   UNL     1       7.431  -3.112   2.463  0.00  0.00    -0.298 NA
ATOM      5  C   UNL     1       7.084  -4.524   2.731  0.00  0.00    +0.085 C 
ATOM      6  C   UNL     1       7.288  -2.296   3.676  0.00  0.00    +0.105 C 
ENDROOT
BRANCH   3   7
ATOM      7  C   UNL     1       8.815  -2.482   0.554  0.00  0.00    -0.012 A 
ATOM      8  C   UNL     1       8.111  -1.327   0.272  0.00  0.00    +0.115 A 
ATOM      9  N   UNL     1       8.110  -0.817  -0.944  0.00  0.00    -0.263 NA
ATOM     10  C   UNL     1       8.774  -1.382  -1.933  0.00  0.00    +0.111 A 
ATOM     11  C   UNL     1       9.502  -2.539  -1.726  0.00  0.00    +0.020 A 
ATOM     12  C   UNL     1       9.531  -3.101  -0.459  0.00  0.00    +0.008 A 
ENDBRANCH   3   7
TORSDOF 1
ENDMDL
MODEL 4
REMARK VINA RESULT:    -2.751      1.578      4.534
REMARK INTER + INTRA:          -3.168
REMARK INTER:                  -2.946
REMARK INTRA:                  -0.222
REMARK UNBOUND:                -0.256
REMARK  Name = Nicotine.pdb
REMARK  2 active torsions:
REMARK  status: ('A' for Active; 'I' for Inactive)
REMARK    1  A    between atoms: C_3  and  C_6
REMARK    2  A    between atoms: N_4  and  C_12
REMARK                            x       y       z     vdW  Elec       q    Type
REMARK                         _______ _______ _______ _____ _____    ______ ____
ROOT
ATOM      1  C   UNL     1       9.060  -0.337   2.548  0.00  0.00    +0.017 C 
ATOM      2  C   UNL     1       8.376  -1.690   2.219  0.00  0.00    +0.025 C 
ATOM      3  C   UNL     1       7.554  -1.982   3.492  0.00  0.00    +0.088 C 
ATOM      4  N   UNL     1       8.166  -1.216   4.593  0.00  0.00    -0.298 NA
ATOM      5  C   UNL     1       9.339  -0.488   4.065  0.00  0.00    +0.085 C 
ATOM      6  C   UNL     1       7.196  -0.290   5.193  0.00  0.00    +0.105 C 
ENDROOT
BRANCH   3   7
ATOM      7  C   UNL     1       7.598  -3.456   3.805  0.00  0.00    -0.012 A 
ATOM      8  C   UNL     1       8.123  -3.901   5.003  0.00  0.00    +0.115 A 
ATOM      9  N   UNL     1       8.166  -5.189   5.284  0.00  0.00    -0.263 NA
ATOM     10  C   UNL     1       7.714  -6.097   4.442  0.00  0.00    +0.111 A 
ATOM     11  C   UNL     1       7.174  -5.727   3.224  0.00  0.00    +0.020 A 
ATOM     12  C   UNL     1       7.108  -4.382   2.896  0.00  0.00    +0.008 A 
ENDBRANCH   3   7
TORSDOF 1
ENDMDL
MODEL 5
REMARK VINA RESULT:    -2.735      7.255      8.742
REMARK INTER + INTRA:          -3.151
REMARK INTER:                  -2.902
REMARK INTRA:                  -0.249
REMARK UNBOUND:                -0.256
REMARK  Name = Nicotine.pdb
REMARK  2 active torsions:
REMARK  status: ('A' for Active; 'I' for Inactive)
REMARK    1  A    between atoms: C_3  and  C_6
REMARK    2  A    between atoms: N_4  and  C_12
REMARK                            x       y       z     vdW  Elec       q    Type
REMARK                         _______ _______ _______ _____ _____    ______ ____
ROOT
ATOM      1  C   UNL     1       7.174   3.831   6.121  0.00  0.00    +0.017 C 
ATOM      2  C   UNL     1       7.402   3.754   4.588  0.00  0.00    +0.025 C 
ATOM      3  C   UNL     1       7.434   5.238   4.167  0.00  0.00    +0.088 C 
ATOM      4  N   UNL     1       6.727   6.004   5.209  0.00  0.00    -0.298 NA
ATOM      5  C   UNL     1       6.239   5.060   6.237  0.00  0.00    +0.085 C 
ATOM      6  C   UNL     1       7.604   7.022   5.802  0.00  0.00    +0.105 C 
ENDROOT
BRANCH   3   7
ATOM      7  C   UNL     1       6.739   5.411   2.841  0.00  0.00    -0.012 A 
ATOM      8  C   UNL     1       6.766   6.630   2.191  0.00  0.00    +0.115 A 
ATOM      9  N   UNL     1       6.160   6.789   1.030  0.00  0.00    -0.263 NA
ATOM     10  C   UNL     1       5.510   5.802   0.447  0.00  0.00    +0.111 A 
ATOM     11  C   UNL     1       5.441   4.554   1.037  0.00  0.00    +0.020 A 
ATOM     12  C   UNL     1       6.070   4.347   2.255  0.00  0.00    +0.008 A 
ENDBRANCH   3   7
TORSDOF 1
ENDMDL
MODEL 6
REMARK VINA RESULT:    -2.657      1.651      4.444
REMARK INTER + INTRA:          -3.068
REMARK INTER:                  -2.871
REMARK INTRA:                  -0.197
REMARK UNBOUND:                -0.256
REMARK  Name = Nicotine.pdb
REMARK  2 active torsions:
REMARK  status: ('A' for Active; 'I' for Inactive)
REMARK    1  A    between atoms: C_3  and  C_6
REMARK    2  A    between atoms: N_4  and  C_12
REMARK                            x       y       z     vdW  Elec       q    Type
REMARK                         _______ _______ _______ _____ _____    ______ ____
ROOT
ATOM      1  C   UNL     1       7.575  -0.077   4.747  0.00  0.00    +0.017 C 
ATOM      2  C   UNL     1       7.011  -1.483   5.083  0.00  0.00    +0.025 C 
ATOM      3  C   UNL     1       8.259  -2.387   5.000  0.00  0.00    +0.088 C 
ATOM      4  N   UNL     1       9.246  -1.692   4.153  0.00  0.00    -0.298 NA
ATOM      5  C   UNL     1       8.656  -0.418   3.691  0.00  0.00    +0.085 C 
ATOM      6  C   UNL     1      10.497  -1.459   4.886  0.00  0.00    +0.105 C 
ENDROOT
BRANCH   3   7
ATOM      7  C   UNL     1       7.893  -3.711   4.382  0.00  0.00    -0.012 A 
ATOM      8  C   UNL     1       7.149  -3.758   3.219  0.00  0.00    +0.115 A 
ATOM      9  N   UNL     1       6.824  -4.913   2.671  0.00  0.00    -0.263 NA
ATOM     10  C   UNL     1       7.192  -6.061   3.205  0.00  0.00    +0.111 A 
ATOM     11  C   UNL     1       7.939  -6.093   4.368  0.00  0.00    +0.020 A 
ATOM     12  C   UNL     1       8.303  -4.898   4.970  0.00  0.00    +0.008 A 
ENDBRANCH   3   7
TORSDOF 1
ENDMDL
MODEL 7
REMARK VINA RESULT:    -2.622      6.858      8.412
REMARK INTER + INTRA:          -3.032
REMARK INTER:                  -2.818
REMARK INTRA:                  -0.213
REMARK UNBOUND:                -0.256
REMARK  Name = Nicotine.pdb
REMARK  2 active torsions:
REMARK  status: ('A' for Active; 'I' for Inactive)
REMARK    1  A    between atoms: C_3  and  C_6
REMARK    2  A    between atoms: N_4  and  C_12
REMARK                            x       y       z     vdW  Elec       q    Type
REMARK                         _______ _______ _______ _____ _____    ______ ____
ROOT
ATOM      1  C   UNL     1       8.164   4.731  -0.071  0.00  0.00    +0.017 C 
ATOM      2  C   UNL     1       7.748   3.968   1.214  0.00  0.00    +0.025 C 
ATOM      3  C   UNL     1       6.481   4.721   1.671  0.00  0.00    +0.088 C 
ATOM      4  N   UNL     1       6.534   6.068   1.074  0.00  0.00    -0.298 NA
ATOM      5  C   UNL     1       7.785   6.188   0.294  0.00  0.00    +0.085 C 
ATOM      6  C   UNL     1       5.360   6.317   0.229  0.00  0.00    +0.105 C 
ENDROOT
BRANCH   3   7
ATOM      7  C   UNL     1       6.460   4.825   3.174  0.00  0.00    -0.012 A 
ATOM      8  C   UNL     1       6.465   3.684   3.953  0.00  0.00    +0.115 A 
ATOM      9  N   UNL     1       6.447   3.766   5.270  0.00  0.00    -0.263 NA
ATOM     10  C   UNL     1       6.424   4.929   5.891  0.00  0.00    +0.111 A 
ATOM     11  C   UNL     1       6.418   6.113   5.178  0.00  0.00    +0.020 A 
ATOM     12  C   UNL     1       6.442   6.066   3.792  0.00  0.00    +0.008 A 
ENDBRANCH   3   7
TORSDOF 1
ENDMDL
MODEL 8
REMARK VINA RESULT:    -2.535      1.636      4.805
REMARK INTER + INTRA:          -2.939
REMARK INTER:                  -2.730
REMARK INTRA:                  -0.209
REMARK UNBOUND:                -0.256
REMARK  Name = Nicotine.pdb
REMARK  2 active torsions:
REMARK  status: ('A' for Active; 'I' for Inactive)
REMARK    1  A    between atoms: C_3  and  C_6
REMARK    2  A    between atoms: N_4  and  C_12
REMARK                            x       y       z     vdW  Elec       q    Type
REMARK                         _______ _______ _______ _____ _____    ______ ____
ROOT
ATOM      1  C   UNL     1       8.104   2.329   4.423  0.00  0.00    +0.017 C 
ATOM      2  C   UNL     1       7.550   0.915   4.740  0.00  0.00    +0.025 C 
ATOM      3  C   UNL     1       8.655  -0.019   4.203  0.00  0.00    +0.088 C 
ATOM      4  N   UNL     1       9.419   0.741   3.197  0.00  0.00    -0.298 NA
ATOM      5  C   UNL     1       8.823   2.088   3.072  0.00  0.00    +0.085 C 
ATOM      6  C   UNL     1      10.838   0.825   3.567  0.00  0.00    +0.105 C 
ENDROOT
BRANCH   3   7
ATOM      7  C   UNL     1       8.033  -1.235   3.565  0.00  0.00    -0.012 A 
ATOM      8  C   UNL     1       7.121  -2.002   4.265  0.00  0.00    +0.115 A 
ATOM      9  N   UNL     1       6.572  -3.067   3.714  0.00  0.00    -0.263 NA
ATOM     10  C   UNL     1       6.867  -3.442   2.485  0.00  0.00    +0.111 A 
ATOM     11  C   UNL     1       7.771  -2.723   1.724  0.00  0.00    +0.020 A 
ATOM     12  C   UNL     1       8.364  -1.594   2.267  0.00  0.00    +0.008 A 
ENDBRANCH   3   7
TORSDOF 1
ENDMDL
MODEL 9
REMARK VINA RESULT:    -2.417      3.774      5.720
REMARK INTER + INTRA:          -2.814
REMARK INTER:                  -2.560
REMARK INTRA:                  -0.255
REMARK UNBOUND:                -0.256
REMARK  Name = Nicotine.pdb
REMARK  2 active torsions:
REMARK  status: ('A' for Active; 'I' for Inactive)
REMARK    1  A    between atoms: C_3  and  C_6
REMARK    2  A    between atoms: N_4  and  C_12
REMARK                            x       y       z     vdW  Elec       q    Type
REMARK                         _______ _______ _______ _____ _____    ______ ____
ROOT
ATOM      1  C   UNL     1       9.243  -0.681  -3.502  0.00  0.00    +0.017 C 
ATOM      2  C   UNL     1       8.718  -1.893  -2.687  0.00  0.00    +0.025 C 
ATOM      3  C   UNL     1       8.416  -1.277  -1.305  0.00  0.00    +0.088 C 
ATOM      4  N   UNL     1       9.221  -0.047  -1.188  0.00  0.00    -0.298 NA
ATOM      5  C   UNL     1      10.022   0.109  -2.421  0.00  0.00    +0.085 C 
ATOM      6  C   UNL     1       8.364   1.124  -0.964  0.00  0.00    +0.105 C 
ENDROOT
BRANCH   3   7
ATOM      7  C   UNL     1       8.799  -2.246  -0.217  0.00  0.00    -0.012 A 
ATOM      8  C   UNL     1       8.109  -2.261   0.981  0.00  0.00    +0.115 A 
ATOM      9  N   UNL     1       8.437  -3.107   1.938  0.00  0.00    -0.263 NA
ATOM     10  C   UNL     1       9.428  -3.965   1.795  0.00  0.00    +0.111 A 
ATOM     11  C   UNL     1      10.163  -4.009   0.625  0.00  0.00    +0.020 A 
ATOM     12  C   UNL     1       9.843  -3.138  -0.406  0.00  0.00    +0.008 A 
ENDBRANCH   3   7
TORSDOF 1
ENDMDL
MODEL 10
REMARK VINA RESULT:    -2.390      5.785      8.240
REMARK INTER + INTRA:          -2.785
REMARK INTER:                  -2.578
REMARK INTRA:                  -0.207
REMARK UNBOUND:                -0.256
REMARK  Name = Nicotine.pdb
REMARK  2 active torsions:
REMARK  status: ('A' for Active; 'I' for Inactive)
REMARK    1  A    between atoms: C_3  and  C_6
REMARK    2  A    between atoms: N_4  and  C_12
REMARK                            x       y       z     vdW  Elec       q    Type
REMARK                         _______ _______ _______ _____ _____    ______ ____
ROOT
ATOM      1  C   UNL     1       6.463   4.758   6.244  0.00  0.00    +0.017 C 
ATOM      2  C   UNL     1       5.695   5.216   4.976  0.00  0.00    +0.025 C 
ATOM      3  C   UNL     1       6.292   4.324   3.867  0.00  0.00    +0.088 C 
ATOM      4  N   UNL     1       7.614   3.871   4.336  0.00  0.00    -0.298 NA
ATOM      5  C   UNL     1       7.870   4.461   5.667  0.00  0.00    +0.085 C 
ATOM      6  C   UNL     1       7.681   2.404   4.388  0.00  0.00    +0.105 C 
ENDROOT
BRANCH   3   7
ATOM      7  C   UNL     1       6.441   5.118   2.596  0.00  0.00    -0.012 A 
ATOM      8  C   UNL     1       5.700   4.791   1.476  0.00  0.00    +0.115 A 
ATOM      9  N   UNL     1       5.825   5.480   0.359  0.00  0.00    -0.263 NA
ATOM     10  C   UNL     1       6.654   6.501   0.264  0.00  0.00    +0.111 A 
ATOM     11  C   UNL     1       7.428   6.887   1.342  0.00  0.00    +0.020 A 
ATOM     12  C   UNL     1       7.320   6.189   2.535  0.00  0.00    +0.008 A 
ENDBRANCH   3   7
TORSDOF 1
ENDMDL
