MODEL 1
REMARK VINA RESULT:    -4.726      0.000      0.000
REMARK INTER + INTRA:          -5.258
REMARK INTER:                  -5.002
REMARK INTRA:                  -0.255
REMARK UNBOUND:                -0.255
REMARK  Name = Nicotine.pdb
REMARK  2 active torsions:
REMARK  status: ('A' for Active; 'I' for Inactive)
REMARK    1  A    between atoms: C_3  and  C_6
REMARK    2  A    between atoms: N_4  and  C_12
REMARK                            x       y       z     vdW  Elec       q    Type
REMARK                         _______ _______ _______ _____ _____    ______ ____
ROOT
ATOM      1  C   UNL     1       0.504  -3.395  -1.904  0.00  0.00    +0.017 C 
ATOM      2  C   UNL     1      -0.911  -3.132  -2.483  0.00  0.00    +0.025 C 
ATOM      3  C   UNL     1      -1.806  -4.079  -1.656  0.00  0.00    +0.088 C 
ATOM      4  N   UNL     1      -0.938  -5.144  -1.122  0.00  0.00    -0.298 NA
ATOM      5  C   UNL     1       0.441  -4.913  -1.601  0.00  0.00    +0.085 C 
ATOM      6  C   UNL     1      -0.988  -5.179   0.345  0.00  0.00    +0.105 C 
ENDROOT
BRANCH   3   7
ATOM      7  C   UNL     1      -2.871  -4.677  -2.538  0.00  0.00    -0.012 A 
ATOM      8  C   UNL     1      -4.083  -5.071  -2.001  0.00  0.00    +0.115 A 
ATOM      9  N   UNL     1      -5.021  -5.595  -2.766  0.00  0.00    -0.263 NA
ATOM     10  C   UNL     1      -4.844  -5.765  -4.061  0.00  0.00    +0.111 A 
ATOM     11  C   UNL     1      -3.659  -5.395  -4.669  0.00  0.00    +0.020 A 
ATOM     12  C   UNL     1      -2.651  -4.835  -3.898  0.00  0.00    +0.008 A 
ENDBRANCH   3   7
TORSDOF 1
ENDMDL
MODEL 2
REMARK VINA RESULT:    -4.153     11.394     12.990
REMARK INTER + INTRA:          -4.651
REMARK INTER:                  -4.426
REMARK INTRA:                  -0.224
REMARK UNBOUND:                -0.255
REMARK  Name = Nicotine.pdb
REMARK  2 active torsions:
REMARK  status: ('A' for Active; 'I' for Inactive)
REMARK    1  A    between atoms: C_3  and  C_6
REMARK    2  A    between atoms: N_4  and  C_12
REMARK                            x       y       z     vdW  Elec       q    Type
REMARK                         _______ _______ _______ _____ _____    ______ ____
ROOT
ATOM      1  C   UNL     1       1.430   4.911  -5.509  0.00  0.00    +0.017 C 
ATOM      2  C   UNL     1       1.396   5.528  -4.086  0.00  0.00    +0.025 C 
ATOM      3  C   UNL     1       2.622   6.465  -4.084  0.00  0.00    +0.088 C 
ATOM      4  N   UNL     1       3.542   5.983  -5.130  0.00  0.00    -0.298 NA
ATOM      5  C   UNL     1       2.954   4.780  -5.757  0.00  0.00    +0.085 C 
ATOM      6  C   UNL     1       3.797   7.028  -6.130  0.00  0.00    +0.105 C 
ENDROOT
BRANCH   3   7
ATOM      7  C   UNL     1       3.301   6.419  -2.740  0.00  0.00    -0.012 A 
ATOM      8  C   UNL     1       4.638   6.084  -2.644  0.00  0.00    +0.115 A 
ATOM      9  N   UNL     1       5.240   6.040  -1.471  0.00  0.00    -0.263 NA
ATOM     10  C   UNL     1       4.599   6.312  -0.352  0.00  0.00    +0.111 A 
ATOM     11  C   UNL     1       3.260   6.656  -0.370  0.00  0.00    +0.020 A 
ATOM     12  C   UNL     1       2.594   6.717  -1.585  0.00  0.00    +0.008 A 
ENDBRANCH   3   7
TORSDOF 1
ENDMDL
MODEL 3
REMARK VINA RESULT:    -4.142      1.731      2.913
REMARK INTER + INTRA:          -4.639
REMARK INTER:                  -4.406
REMARK INTRA:                  -0.233
REMARK UNBOUND:                -0.255
REMARK  Name = Nicotine.pdb
REMARK  2 active torsions:
REMARK  status: ('A' for Active; 'I' for Inactive)
REMARK    1  A    between atoms: C_3  and  C_6
REMARK    2  A    between atoms: N_4  and  C_12
REMARK                            x       y       z     vdW  Elec       q    Type
REMARK                         _______ _______ _______ _____ _____    ______ ____
ROOT
ATOM      1  C   UNL     1       1.935  -3.843  -0.085  0.00  0.00    +0.017 C 
ATOM      2  C   UNL     1       0.592  -4.620  -0.104  0.00  0.00    +0.025 C 
ATOM      3  C   UNL     1       0.361  -4.877  -1.609  0.00  0.00    +0.088 C 
ATOM      4  N   UNL     1       1.141  -3.870  -2.349  0.00  0.00    -0.298 NA
ATOM      5  C   UNL     1       1.820  -2.990  -1.374  0.00  0.00    +0.085 C 
ATOM      6  C   UNL     1       2.112  -4.509  -3.246  0.00  0.00    +0.105 C 
ENDROOT
BRANCH   3   7
ATOM      7  C   UNL     1      -1.103  -4.735  -1.934  0.00  0.00    -0.012 A 
ATOM      8  C   UNL     1      -1.540  -4.818  -3.243  0.00  0.00    +0.115 A 
ATOM      9  N   UNL     1      -2.819  -4.695  -3.536  0.00  0.00    -0.263 NA
ATOM     10  C   UNL     1      -3.727  -4.488  -2.603  0.00  0.00    +0.111 A 
ATOM     11  C   UNL     1      -3.366  -4.393  -1.272  0.00  0.00    +0.020 A 
ATOM     12  C   UNL     1      -2.030  -4.524  -0.925  0.00  0.00    +0.008 A 
ENDBRANCH   3   7
TORSDOF 1
ENDMDL
MODEL 4
REMARK VINA RESULT:    -4.097      1.423      2.367
REMARK INTER + INTRA:          -4.591
REMARK INTER:                  -4.406
REMARK INTRA:                  -0.185
REMARK UNBOUND:                -0.255
REMARK  Name = Nicotine.pdb
REMARK  2 active torsions:
REMARK  status: ('A' for Active; 'I' for Inactive)
REMARK    1  A    between atoms: C_3  and  C_6
REMARK    2  A    between atoms: N_4  and  C_12
REMARK                            x       y       z     vdW  Elec       q    Type
REMARK                         _______ _______ _______ _____ _____    ______ ____
ROOT
ATOM      1  C   UNL     1       1.434  -5.419  -3.843  0.00  0.00    +0.017 C 
ATOM      2  C   UNL     1      -0.032  -5.127  -4.258  0.00  0.00    +0.025 C 
ATOM      3  C   UNL     1      -0.514  -4.150  -3.165  0.00  0.00    +0.088 C 
ATOM      4  N   UNL     1       0.354  -4.347  -1.990  0.00  0.00    -0.298 NA
ATOM      5  C   UNL     1       1.329  -5.414  -2.298  0.00  0.00    +0.085 C 
ATOM      6  C   UNL     1       1.036  -3.099  -1.623  0.00  0.00    +0.105 C 
ENDROOT
BRANCH   3   7
ATOM      7  C   UNL     1      -1.945  -4.450  -2.803  0.00  0.00    -0.012 A 
ATOM      8  C   UNL     1      -2.795  -5.024  -3.730  0.00  0.00    +0.115 A 
ATOM      9  N   UNL     1      -4.049  -5.290  -3.421  0.00  0.00    -0.263 NA
ATOM     10  C   UNL     1      -4.541  -5.023  -2.228  0.00  0.00    +0.111 A 
ATOM     11  C   UNL     1      -3.751  -4.450  -1.249  0.00  0.00    +0.020 A 
ATOM     12  C   UNL     1      -2.426  -4.160  -1.535  0.00  0.00    +0.008 A 
ENDBRANCH   3   7
TORSDOF 1
ENDMDL
MODEL 5
REMARK VINA RESULT:    -3.992      2.183      3.649
REMARK INTER + INTRA:          -4.480
REMARK INTER:                  -4.260
REMARK INTRA:                  -0.220
REMARK UNBOUND:                -0.255
REMARK  Name = Nicotine.pdb
REMARK  2 active torsions:
REMARK  status: ('A' for Active; 'I' for Inactive)
REMARK    1  A    between atoms: C_3  and  C_6
REMARK    2  A    between atoms: N_4  and  C_12
REMARK                            x       y       z     vdW  Elec       q    Type
REMARK                         _______ _______ _______ _____ _____    ______ ____
ROOT
ATOM      1  C   UNL     1       2.278  -4.386   1.119  0.00  0.00    +0.017 C 
ATOM      2  C   UNL     1       1.008  -5.043   0.516  0.00  0.00    +0.025 C 
ATOM      3  C   UNL     1       1.044  -4.581  -0.956  0.00  0.00    +0.088 C 
ATOM      4  N   UNL     1       1.871  -3.362  -1.012  0.00  0.00    -0.298 NA
ATOM      5  C   UNL     1       2.325  -3.038   0.358  0.00  0.00    +0.085 C 
ATOM      6  C   UNL     1       3.013  -3.541  -1.917  0.00  0.00    +0.105 C 
ENDROOT
BRANCH   3   7
ATOM      7  C   UNL     1      -0.353  -4.276  -1.432  0.00  0.00    -0.012 A 
ATOM      8  C   UNL     1      -0.554  -3.536  -2.581  0.00  0.00    +0.115 A 
ATOM      9  N   UNL     1      -1.774  -3.265  -3.005  0.00  0.00    -0.263 NA
ATOM     10  C   UNL     1      -2.842  -3.684  -2.355  0.00  0.00    +0.111 A 
ATOM     11  C   UNL     1      -2.719  -4.430  -1.198  0.00  0.00    +0.020 A 
ATOM     12  C   UNL     1      -1.453  -4.739  -0.725  0.00  0.00    +0.008 A 
ENDBRANCH   3   7
TORSDOF 1
ENDMDL
MODEL 6
REMARK VINA RESULT:    -3.978      1.899      2.855
REMARK INTER + INTRA:          -4.466
REMARK INTER:                  -4.266
REMARK INTRA:                  -0.200
REMARK UNBOUND:                -0.255
REMARK  Name = Nicotine.pdb
REMARK  2 active torsions:
REMARK  status: ('A' for Active; 'I' for Inactive)
REMARK    1  A    between atoms: C_3  and  C_6
REMARK    2  A    between atoms: N_4  and  C_12
REMARK                            x       y       z     vdW  Elec       q    Type
REMARK                         _______ _______ _______ _____ _____    ______ ____
ROOT
ATOM      1  C   UNL     1       2.722  -5.133  -2.560  0.00  0.00    +0.017 C 
ATOM      2  C   UNL     1       1.408  -4.566  -3.160  0.00  0.00    +0.025 C 
ATOM      3  C   UNL     1       0.846  -3.702  -2.011  0.00  0.00    +0.088 C 
ATOM      4  N   UNL     1       1.442  -4.200  -0.758  0.00  0.00    -0.298 NA
ATOM      5  C   UNL     1       2.323  -5.343  -1.078  0.00  0.00    +0.085 C 
ATOM      6  C   UNL     1       2.187  -3.137  -0.070  0.00  0.00    +0.105 C 
ENDROOT
BRANCH   3   7
ATOM      7  C   UNL     1      -0.654  -3.835  -1.956  0.00  0.00    -0.012 A 
ATOM      8  C   UNL     1      -1.251  -4.605  -0.975  0.00  0.00    +0.115 A 
ATOM      9  N   UNL     1      -2.563  -4.727  -0.919  0.00  0.00    -0.263 NA
ATOM     10  C   UNL     1      -3.352  -4.127  -1.788  0.00  0.00    +0.111 A 
ATOM     11  C   UNL     1      -2.827  -3.340  -2.796  0.00  0.00    +0.020 A 
ATOM     12  C   UNL     1      -1.452  -3.184  -2.883  0.00  0.00    +0.008 A 
ENDBRANCH   3   7
TORSDOF 1
ENDMDL
MODEL 7
REMARK VINA RESULT:    -3.955      1.706      4.737
REMARK INTER + INTRA:          -4.441
REMARK INTER:                  -4.187
REMARK INTRA:                  -0.254
REMARK UNBOUND:                -0.255
REMARK  Name = Nicotine.pdb
REMARK  2 active torsions:
REMARK  status: ('A' for Active; 'I' for Inactive)
REMARK    1  A    between atoms: C_3  and  C_6
REMARK    2  A    between atoms: N_4  and  C_12
REMARK                            x       y       z     vdW  Elec       q    Type
REMARK                         _______ _______ _______ _____ _____    ______ ____
ROOT
ATOM      1  C   UNL     1      -3.511  -4.589  -3.258  0.00  0.00    +0.017 C 
ATOM      2  C   UNL     1      -2.778  -3.957  -2.046  0.00  0.00    +0.025 C 
ATOM      3  C   UNL     1      -1.303  -4.341  -2.293  0.00  0.00    +0.088 C 
ATOM      4  N   UNL     1      -1.301  -5.520  -3.178  0.00  0.00    -0.298 NA
ATOM      5  C   UNL     1      -2.702  -5.894  -3.467  0.00  0.00    +0.085 C 
ATOM      6  C   UNL     1      -0.562  -5.247  -4.417  0.00  0.00    +0.105 C 
ENDROOT
BRANCH   3   7
ATOM      7  C   UNL     1      -0.636  -4.680  -0.985  0.00  0.00    -0.012 A 
ATOM      8  C   UNL     1       0.704  -4.402  -0.791  0.00  0.00    +0.115 A 
ATOM      9  N   UNL     1       1.296  -4.694   0.351  0.00  0.00    -0.263 NA
ATOM     10  C   UNL     1       0.641  -5.259   1.346  0.00  0.00    +0.111 A 
ATOM     11  C   UNL     1      -0.702  -5.566   1.225  0.00  0.00    +0.020 A 
ATOM     12  C   UNL     1      -1.359  -5.268   0.042  0.00  0.00    +0.008 A 
ENDBRANCH   3   7
TORSDOF 1
ENDMDL
MODEL 8
REMARK VINA RESULT:    -3.754     11.205     13.267
REMARK INTER + INTRA:          -4.228
REMARK INTER:                  -4.020
REMARK INTRA:                  -0.208
REMARK UNBOUND:                -0.255
REMARK  Name = Nicotine.pdb
REMARK  2 active torsions:
REMARK  status: ('A' for Active; 'I' for Inactive)
REMARK    1  A    between atoms: C_3  and  C_6
REMARK    2  A    between atoms: N_4  and  C_12
REMARK                            x       y       z     vdW  Elec       q    Type
REMARK                         _______ _______ _______ _____ _____    ______ ____
ROOT
ATOM      1  C   UNL     1       1.209   5.829  -3.959  0.00  0.00    +0.017 C 
ATOM      2  C   UNL     1       2.630   6.298  -3.550  0.00  0.00    +0.025 C 
ATOM      3  C   UNL     1       3.370   6.386  -4.902  0.00  0.00    +0.088 C 
ATOM      4  N   UNL     1       2.651   5.516  -5.850  0.00  0.00    -0.298 NA
ATOM      5  C   UNL     1       1.522   4.877  -5.141  0.00  0.00    +0.085 C 
ATOM      6  C   UNL     1       2.180   6.279  -7.012  0.00  0.00    +0.105 C 
ENDROOT
BRANCH   3   7
ATOM      7  C   UNL     1       4.790   5.909  -4.741  0.00  0.00    -0.012 A 
ATOM      8  C   UNL     1       5.719   6.691  -4.080  0.00  0.00    +0.115 A 
ATOM      9  N   UNL     1       6.964   6.281  -3.935  0.00  0.00    -0.263 NA
ATOM     10  C   UNL     1       7.372   5.121  -4.410  0.00  0.00    +0.111 A 
ATOM     11  C   UNL     1       6.499   4.285  -5.082  0.00  0.00    +0.020 A 
ATOM     12  C   UNL     1       5.180   4.680  -5.249  0.00  0.00    +0.008 A 
ENDBRANCH   3   7
TORSDOF 1
ENDMDL
MODEL 9
REMARK VINA RESULT:    -3.593      1.713      4.621
REMARK INTER + INTRA:          -4.058
REMARK INTER:                  -3.843
REMARK INTRA:                  -0.215
REMARK UNBOUND:                -0.255
REMARK  Name = Nicotine.pdb
REMARK  2 active torsions:
REMARK  status: ('A' for Active; 'I' for Inactive)
REMARK    1  A    between atoms: C_3  and  C_6
REMARK    2  A    between atoms: N_4  and  C_12
REMARK                            x       y       z     vdW  Elec       q    Type
REMARK                         _______ _______ _______ _____ _____    ______ ____
ROOT
ATOM      1  C   UNL     1      -4.227  -4.881  -1.811  0.00  0.00    +0.017 C 
ATOM      2  C   UNL     1      -2.992  -3.943  -1.766  0.00  0.00    +0.025 C 
ATOM      3  C   UNL     1      -2.318  -4.192  -3.133  0.00  0.00    +0.088 C 
ATOM      4  N   UNL     1      -2.771  -5.511  -3.610  0.00  0.00    -0.298 NA
ATOM      5  C   UNL     1      -3.669  -6.097  -2.592  0.00  0.00    +0.085 C 
ATOM      6  C   UNL     1      -3.448  -5.399  -4.908  0.00  0.00    +0.105 C 
ENDROOT
BRANCH   3   7
ATOM      7  C   UNL     1      -0.820  -4.188  -2.974  0.00  0.00    -0.012 A 
ATOM      8  C   UNL     1      -0.028  -4.969  -3.795  0.00  0.00    +0.115 A 
ATOM      9  N   UNL     1       1.284  -4.972  -3.662  0.00  0.00    -0.263 NA
ATOM     10  C   UNL     1       1.890  -4.237  -2.751  0.00  0.00    +0.111 A 
ATOM     11  C   UNL     1       1.164  -3.430  -1.895  0.00  0.00    +0.020 A 
ATOM     12  C   UNL     1      -0.217  -3.397  -2.008  0.00  0.00    +0.008 A 
ENDBRANCH   3   7
TORSDOF 1
ENDMDL
MODEL 10
REMARK VINA RESULT:    -3.401     12.213     12.967
REMARK INTER + INTRA:          -3.855
REMARK INTER:                  -3.641
REMARK INTRA:                  -0.214
REMARK UNBOUND:                -0.255
REMARK  Name = Nicotine.pdb
REMARK  2 active torsions:
REMARK  status: ('A' for Active; 'I' for Inactive)
REMARK    1  A    between atoms: C_3  and  C_6
REMARK    2  A    between atoms: N_4  and  C_12
REMARK                            x       y       z     vdW  Elec       q    Type
REMARK                         _______ _______ _______ _____ _____    ______ ____
ROOT
ATOM      1  C   UNL     1       6.751   2.463   0.814  0.00  0.00    +0.017 C 
ATOM      2  C   UNL     1       5.886   3.444  -0.020  0.00  0.00    +0.025 C 
ATOM      3  C   UNL     1       6.086   4.790   0.709  0.00  0.00    +0.088 C 
ATOM      4  N   UNL     1       6.508   4.481   2.087  0.00  0.00    -0.298 NA
ATOM      5  C   UNL     1       6.552   3.012   2.249  0.00  0.00    +0.085 C 
ATOM      6  C   UNL     1       7.814   5.084   2.386  0.00  0.00    +0.105 C 
ENDROOT
BRANCH   3   7
ATOM      7  C   UNL     1       4.792   5.560   0.727  0.00  0.00    -0.012 A 
ATOM      8  C   UNL     1       4.125   5.779   1.918  0.00  0.00    +0.115 A 
ATOM      9  N   UNL     1       2.992   6.453   1.944  0.00  0.00    -0.263 NA
ATOM     10  C   UNL     1       2.452   6.941   0.845  0.00  0.00    +0.111 A 
ATOM     11  C   UNL     1       3.061   6.763  -0.383  0.00  0.00    +0.020 A 
ATOM     12  C   UNL     1       4.257   6.065  -0.448  0.00  0.00    +0.008 A 
ENDBRANCH   3   7
TORSDOF 1
ENDMDL
