MODEL 1
REMARK VINA RESULT:    -3.407      0.000      0.000
REMARK INTER + INTRA:          -3.793
REMARK INTER:                  -3.606
REMARK INTRA:                  -0.186
REMARK UNBOUND:                -0.186
REMARK  Name = Nicotine.pdb
REMARK  2 active torsions:
REMARK  status: ('A' for Active; 'I' for Inactive)
REMARK    1  A    between atoms: C_3  and  C_6
REMARK    2  A    between atoms: N_4  and  C_12
REMARK                            x       y       z     vdW  Elec       q    Type
REMARK                         _______ _______ _______ _____ _____    ______ ____
ROOT
ATOM      1  C   UNL     1       9.756   6.276  -7.256  0.00  0.00    +0.017 C 
ATOM      2  C   UNL     1       8.760   6.944  -6.272  0.00  0.00    +0.025 C 
ATOM      3  C   UNL     1       8.628   5.896  -5.146  0.00  0.00    +0.088 C 
ATOM      4  N   UNL     1       9.016   4.593  -5.716  0.00  0.00    -0.298 NA
ATOM      5  C   UNL     1       9.355   4.784  -7.142  0.00  0.00    +0.085 C 
ATOM      6  C   UNL     1      10.145   4.011  -4.979  0.00  0.00    +0.105 C 
ENDROOT
BRANCH   3   7
ATOM      7  C   UNL     1       7.203   5.841  -4.661  0.00  0.00    -0.012 A 
ATOM      8  C   UNL     1       6.331   6.878  -4.934  0.00  0.00    +0.115 A 
ATOM      9  N   UNL     1       5.082   6.838  -4.513  0.00  0.00    -0.263 NA
ATOM     10  C   UNL     1       4.617   5.818  -3.820  0.00  0.00    +0.111 A 
ATOM     11  C   UNL     1       5.430   4.744  -3.509  0.00  0.00    +0.020 A 
ATOM     12  C   UNL     1       6.748   4.748  -3.940  0.00  0.00    +0.008 A 
ENDBRANCH   3   7
TORSDOF 1
ENDMDL
MODEL 2
REMARK VINA RESULT:    -3.299      1.463      4.444
REMARK INTER + INTRA:          -3.678
REMARK INTER:                  -3.458
REMARK INTRA:                  -0.219
REMARK UNBOUND:                -0.186
REMARK  Name = Nicotine.pdb
REMARK  2 active torsions:
REMARK  status: ('A' for Active; 'I' for Inactive)
REMARK    1  A    between atoms: C_3  and  C_6
REMARK    2  A    between atoms: N_4  and  C_12
REMARK                            x       y       z     vdW  Elec       q    Type
REMARK                         _______ _______ _______ _____ _____    ______ ____
ROOT
ATOM      1  C   UNL     1       5.908   6.650  -3.515  0.00  0.00    +0.017 C 
ATOM      2  C   UNL     1       7.319   6.919  -4.102  0.00  0.00    +0.025 C 
ATOM      3  C   UNL     1       7.253   6.240  -5.487  0.00  0.00    +0.088 C 
ATOM      4  N   UNL     1       6.183   5.229  -5.427  0.00  0.00    -0.298 NA
ATOM      5  C   UNL     1       5.604   5.235  -4.067  0.00  0.00    +0.085 C 
ATOM      6  C   UNL     1       5.152   5.493  -6.440  0.00  0.00    +0.105 C 
ENDROOT
BRANCH   3   7
ATOM      7  C   UNL     1       8.570   5.577  -5.796  0.00  0.00    -0.012 A 
ATOM      8  C   UNL     1       9.281   5.928  -6.928  0.00  0.00    +0.115 A 
ATOM      9  N   UNL     1      10.435   5.352  -7.205  0.00  0.00    -0.263 NA
ATOM     10  C   UNL     1      10.954   4.426  -6.423  0.00  0.00    +0.111 A 
ATOM     11  C   UNL     1      10.300   4.024  -5.273  0.00  0.00    +0.020 A 
ATOM     12  C   UNL     1       9.087   4.611  -4.946  0.00  0.00    +0.008 A 
ENDBRANCH   3   7
TORSDOF 1
ENDMDL
MODEL 3
REMARK VINA RESULT:    -3.067      1.272      4.624
REMARK INTER + INTRA:          -3.432
REMARK INTER:                  -3.224
REMARK INTRA:                  -0.208
REMARK UNBOUND:                -0.186
REMARK  Name = Nicotine.pdb
REMARK  2 active torsions:
REMARK  status: ('A' for Active; 'I' for Inactive)
REMARK    1  A    between atoms: C_3  and  C_6
REMARK    2  A    between atoms: N_4  and  C_12
REMARK                            x       y       z     vdW  Elec       q    Type
REMARK                         _______ _______ _______ _____ _____    ______ ____
ROOT
ATOM      1  C   UNL     1       5.572   6.606  -3.515  0.00  0.00    +0.017 C 
ATOM      2  C   UNL     1       7.093   6.751  -3.786  0.00  0.00    +0.025 C 
ATOM      3  C   UNL     1       7.184   6.644  -5.323  0.00  0.00    +0.088 C 
ATOM      4  N   UNL     1       5.974   5.939  -5.784  0.00  0.00    -0.298 NA
ATOM      5  C   UNL     1       5.157   5.585  -4.604  0.00  0.00    +0.085 C 
ATOM      6  C   UNL     1       5.209   6.767  -6.727  0.00  0.00    +0.105 C 
ENDROOT
BRANCH   3   7
ATOM      7  C   UNL     1       8.413   5.864  -5.711  0.00  0.00    -0.012 A 
ATOM      8  C   UNL     1       8.793   4.752  -4.984  0.00  0.00    +0.115 A 
ATOM      9  N   UNL     1       9.867   4.063  -5.317  0.00  0.00    -0.263 NA
ATOM     10  C   UNL     1      10.617   4.403  -6.347  0.00  0.00    +0.111 A 
ATOM     11  C   UNL     1      10.298   5.502  -7.122  0.00  0.00    +0.020 A 
ATOM     12  C   UNL     1       9.173   6.248  -6.805  0.00  0.00    +0.008 A 
ENDBRANCH   3   7
TORSDOF 1
ENDMDL
MODEL 4
REMARK VINA RESULT:    -2.468      1.254      4.533
REMARK INTER + INTRA:          -2.798
REMARK INTER:                  -2.559
REMARK INTRA:                  -0.239
REMARK UNBOUND:                -0.186
REMARK  Name = Nicotine.pdb
REMARK  2 active torsions:
REMARK  status: ('A' for Active; 'I' for Inactive)
REMARK    1  A    between atoms: C_3  and  C_6
REMARK    2  A    between atoms: N_4  and  C_12
REMARK                            x       y       z     vdW  Elec       q    Type
REMARK                         _______ _______ _______ _____ _____    ______ ____
ROOT
ATOM      1  C   UNL     1       4.966   7.027  -4.738  0.00  0.00    +0.017 C 
ATOM      2  C   UNL     1       5.867   6.731  -5.966  0.00  0.00    +0.025 C 
ATOM      3  C   UNL     1       6.742   5.556  -5.479  0.00  0.00    +0.088 C 
ATOM      4  N   UNL     1       6.745   5.595  -4.005  0.00  0.00    -0.298 NA
ATOM      5  C   UNL     1       5.937   6.751  -3.563  0.00  0.00    +0.085 C 
ATOM      6  C   UNL     1       6.224   4.342  -3.443  0.00  0.00    +0.105 C 
ENDROOT
BRANCH   3   7
ATOM      7  C   UNL     1       8.147   5.711  -6.000  0.00  0.00    -0.012 A 
ATOM      8  C   UNL     1       9.116   4.777  -5.688  0.00  0.00    +0.115 A 
ATOM      9  N   UNL     1      10.348   4.906  -6.140  0.00  0.00    -0.263 NA
ATOM     10  C   UNL     1      10.704   5.921  -6.902  0.00  0.00    +0.111 A 
ATOM     11  C   UNL     1       9.789   6.895  -7.256  0.00  0.00    +0.020 A 
ATOM     12  C   UNL     1       8.483   6.790  -6.803  0.00  0.00    +0.008 A 
ENDBRANCH   3   7
TORSDOF 1
ENDMDL
