MODEL 1
REMARK VINA RESULT:    -4.069      0.000      0.000
REMARK INTER + INTRA:          -4.561
REMARK INTER:                  -4.307
REMARK INTRA:                  -0.254
REMARK UNBOUND:                -0.254
REMARK  Name = Nicotine.pdb
REMARK  2 active torsions:
REMARK  status: ('A' for Active; 'I' for Inactive)
REMARK    1  A    between atoms: C_3  and  C_6
REMARK    2  A    between atoms: N_4  and  C_12
REMARK                            x       y       z     vdW  Elec       q    Type
REMARK                         _______ _______ _______ _____ _____    ______ ____
ROOT
ATOM      1  C   UNL     1      -0.450  -3.446   3.651  0.00  0.00    +0.017 C 
ATOM      2  C   UNL     1       0.867  -3.033   2.943  0.00  0.00    +0.025 C 
ATOM      3  C   UNL     1       1.952  -3.439   3.963  0.00  0.00    +0.088 C 
ATOM      4  N   UNL     1       1.304  -3.506   5.285  0.00  0.00    -0.298 NA
ATOM      5  C   UNL     1      -0.119  -3.137   5.132  0.00  0.00    +0.085 C 
ATOM      6  C   UNL     1       1.441  -4.846   5.872  0.00  0.00    +0.105 C 
ENDROOT
BRANCH   3   7
ATOM      7  C   UNL     1       3.050  -2.408   3.981  0.00  0.00    -0.012 A 
ATOM      8  C   UNL     1       4.358  -2.784   4.220  0.00  0.00    +0.115 A 
ATOM      9  N   UNL     1       5.326  -1.888   4.237  0.00  0.00    -0.263 NA
ATOM     10  C   UNL     1       5.089  -0.608   4.029  0.00  0.00    +0.111 A 
ATOM     11  C   UNL     1       3.805  -0.157   3.782  0.00  0.00    +0.020 A 
ATOM     12  C   UNL     1       2.763  -1.071   3.751  0.00  0.00    +0.008 A 
ENDBRANCH   3   7
TORSDOF 1
ENDMDL
MODEL 2
REMARK VINA RESULT:    -3.639      1.602      4.714
REMARK INTER + INTRA:          -4.106
REMARK INTER:                  -3.860
REMARK INTRA:                  -0.246
REMARK UNBOUND:                -0.254
REMARK  Name = Nicotine.pdb
REMARK  2 active torsions:
REMARK  status: ('A' for Active; 'I' for Inactive)
REMARK    1  A    between atoms: C_3  and  C_6
REMARK    2  A    between atoms: N_4  and  C_12
REMARK                            x       y       z     vdW  Elec       q    Type
REMARK                         _______ _______ _______ _____ _____    ______ ____
ROOT
ATOM      1  C   UNL     1       4.957   1.548   3.771  0.00  0.00    +0.017 C 
ATOM      2  C   UNL     1       3.805   0.647   4.289  0.00  0.00    +0.025 C 
ATOM      3  C   UNL     1       4.493  -0.722   4.475  0.00  0.00    +0.088 C 
ATOM      4  N   UNL     1       5.690  -0.731   3.616  0.00  0.00    -0.298 NA
ATOM      5  C   UNL     1       5.759   0.556   2.891  0.00  0.00    +0.085 C 
ATOM      6  C   UNL     1       6.906  -0.954   4.408  0.00  0.00    +0.105 C 
ENDROOT
BRANCH   3   7
ATOM      7  C   UNL     1       3.556  -1.827   4.062  0.00  0.00    -0.012 A 
ATOM      8  C   UNL     1       3.916  -3.150   4.233  0.00  0.00    +0.115 A 
ATOM      9  N   UNL     1       3.102  -4.124   3.874  0.00  0.00    -0.263 NA
ATOM     10  C   UNL     1       1.921  -3.878   3.341  0.00  0.00    +0.111 A 
ATOM     11  C   UNL     1       1.492  -2.579   3.139  0.00  0.00    +0.020 A 
ATOM     12  C   UNL     1       2.319  -1.530   3.509  0.00  0.00    +0.008 A 
ENDBRANCH   3   7
TORSDOF 1
ENDMDL
MODEL 3
REMARK VINA RESULT:    -3.548      1.444      4.599
REMARK INTER + INTRA:          -4.009
REMARK INTER:                  -3.765
REMARK INTRA:                  -0.244
REMARK UNBOUND:                -0.254
REMARK  Name = Nicotine.pdb
REMARK  2 active torsions:
REMARK  status: ('A' for Active; 'I' for Inactive)
REMARK    1  A    between atoms: C_3  and  C_6
REMARK    2  A    between atoms: N_4  and  C_12
REMARK                            x       y       z     vdW  Elec       q    Type
REMARK                         _______ _______ _______ _____ _____    ______ ____
ROOT
ATOM      1  C   UNL     1       5.213  -1.875   5.665  0.00  0.00    +0.017 C 
ATOM      2  C   UNL     1       4.267  -2.909   4.999  0.00  0.00    +0.025 C 
ATOM      3  C   UNL     1       3.387  -2.034   4.082  0.00  0.00    +0.088 C 
ATOM      4  N   UNL     1       3.431  -0.661   4.615  0.00  0.00    -0.298 NA
ATOM      5  C   UNL     1       4.275  -0.654   5.829  0.00  0.00    +0.085 C 
ATOM      6  C   UNL     1       3.946   0.278   3.610  0.00  0.00    +0.105 C 
ENDROOT
BRANCH   3   7
ATOM      7  C   UNL     1       1.969  -2.545   4.093  0.00  0.00    -0.012 A 
ATOM      8  C   UNL     1       1.255  -2.650   2.915  0.00  0.00    +0.115 A 
ATOM      9  N   UNL     1       0.014  -3.096   2.916  0.00  0.00    -0.263 NA
ATOM     10  C   UNL     1      -0.592  -3.456   4.030  0.00  0.00    +0.111 A 
ATOM     11  C   UNL     1       0.059  -3.378   5.247  0.00  0.00    +0.020 A 
ATOM     12  C   UNL     1       1.366  -2.919   5.284  0.00  0.00    +0.008 A 
ENDBRANCH   3   7
TORSDOF 1
ENDMDL
MODEL 4
REMARK VINA RESULT:    -3.540      1.270      2.248
REMARK INTER + INTRA:          -4.000
REMARK INTER:                  -3.790
REMARK INTRA:                  -0.210
REMARK UNBOUND:                -0.254
REMARK  Name = Nicotine.pdb
REMARK  2 active torsions:
REMARK  status: ('A' for Active; 'I' for Inactive)
REMARK    1  A    between atoms: C_3  and  C_6
REMARK    2  A    between atoms: N_4  and  C_12
REMARK                            x       y       z     vdW  Elec       q    Type
REMARK                         _______ _______ _______ _____ _____    ______ ____
ROOT
ATOM      1  C   UNL     1       2.282  -4.389   5.565  0.00  0.00    +0.017 C 
ATOM      2  C   UNL     1       2.872  -2.975   5.811  0.00  0.00    +0.025 C 
ATOM      3  C   UNL     1       2.400  -2.182   4.574  0.00  0.00    +0.088 C 
ATOM      4  N   UNL     1       2.110  -3.161   3.512  0.00  0.00    -0.298 NA
ATOM      5  C   UNL     1       2.405  -4.515   4.026  0.00  0.00    +0.085 C 
ATOM      6  C   UNL     1       0.714  -3.058   3.067  0.00  0.00    +0.105 C 
ENDROOT
BRANCH   3   7
ATOM      7  C   UNL     1       3.487  -1.240   4.124  0.00  0.00    -0.012 A 
ATOM      8  C   UNL     1       4.812  -1.630   4.167  0.00  0.00    +0.115 A 
ATOM      9  N   UNL     1       5.769  -0.812   3.775  0.00  0.00    -0.263 NA
ATOM     10  C   UNL     1       5.505   0.400   3.328  0.00  0.00    +0.111 A 
ATOM     11  C   UNL     1       4.203   0.859   3.255  0.00  0.00    +0.020 A 
ATOM     12  C   UNL     1       3.170   0.026   3.655  0.00  0.00    +0.008 A 
ENDBRANCH   3   7
TORSDOF 1
ENDMDL
MODEL 5
REMARK VINA RESULT:    -3.276      2.588      5.626
REMARK INTER + INTRA:          -3.721
REMARK INTER:                  -3.510
REMARK INTRA:                  -0.212
REMARK UNBOUND:                -0.254
REMARK  Name = Nicotine.pdb
REMARK  2 active torsions:
REMARK  status: ('A' for Active; 'I' for Inactive)
REMARK    1  A    between atoms: C_3  and  C_6
REMARK    2  A    between atoms: N_4  and  C_12
REMARK                            x       y       z     vdW  Elec       q    Type
REMARK                         _______ _______ _______ _____ _____    ______ ____
ROOT
ATOM      1  C   UNL     1       1.704  -3.336   3.032  0.00  0.00    +0.017 C 
ATOM      2  C   UNL     1       0.193  -3.130   3.319  0.00  0.00    +0.025 C 
ATOM      3  C   UNL     1       0.120  -3.201   4.860  0.00  0.00    +0.088 C 
ATOM      4  N   UNL     1       1.310  -3.940   5.320  0.00  0.00    -0.298 NA
ATOM      5  C   UNL     1       2.097  -4.348   4.137  0.00  0.00    +0.085 C 
ATOM      6  C   UNL     1       2.118  -3.122   6.233  0.00  0.00    +0.105 C 
ENDROOT
BRANCH   3   7
ATOM      7  C   UNL     1      -1.131  -3.927   5.281  0.00  0.00    -0.012 A 
ATOM      8  C   UNL     1      -2.372  -3.354   5.081  0.00  0.00    +0.115 A 
ATOM      9  N   UNL     1      -3.472  -3.983   5.447  0.00  0.00    -0.263 NA
ATOM     10  C   UNL     1      -3.435  -5.173   6.013  0.00  0.00    +0.111 A 
ATOM     11  C   UNL     1      -2.229  -5.809   6.244  0.00  0.00    +0.020 A 
ATOM     12  C   UNL     1      -1.052  -5.180   5.868  0.00  0.00    +0.008 A 
ENDBRANCH   3   7
TORSDOF 1
ENDMDL
MODEL 6
REMARK VINA RESULT:    -3.256      1.433      4.667
REMARK INTER + INTRA:          -3.700
REMARK INTER:                  -3.503
REMARK INTRA:                  -0.196
REMARK UNBOUND:                -0.254
REMARK  Name = Nicotine.pdb
REMARK  2 active torsions:
REMARK  status: ('A' for Active; 'I' for Inactive)
REMARK    1  A    between atoms: C_3  and  C_6
REMARK    2  A    between atoms: N_4  and  C_12
REMARK                            x       y       z     vdW  Elec       q    Type
REMARK                         _______ _______ _______ _____ _____    ______ ____
ROOT
ATOM      1  C   UNL     1       5.470  -0.549   5.418  0.00  0.00    +0.017 C 
ATOM      2  C   UNL     1       4.742  -1.796   4.850  0.00  0.00    +0.025 C 
ATOM      3  C   UNL     1       3.618  -1.181   3.991  0.00  0.00    +0.088 C 
ATOM      4  N   UNL     1       3.382   0.185   4.492  0.00  0.00    -0.298 NA
ATOM      5  C   UNL     1       4.289   0.430   5.634  0.00  0.00    +0.085 C 
ATOM      6  C   UNL     1       3.589   1.179   3.431  0.00  0.00    +0.105 C 
ENDROOT
BRANCH   3   7
ATOM      7  C   UNL     1       2.362  -2.002   4.126  0.00  0.00    -0.012 A 
ATOM      8  C   UNL     1       1.895  -2.366   5.376  0.00  0.00    +0.115 A 
ATOM      9  N   UNL     1       0.797  -3.084   5.503  0.00  0.00    -0.263 NA
ATOM     10  C   UNL     1       0.104  -3.483   4.455  0.00  0.00    +0.111 A 
ATOM     11  C   UNL     1       0.509  -3.157   3.173  0.00  0.00    +0.020 A 
ATOM     12  C   UNL     1       1.656  -2.399   3.000  0.00  0.00    +0.008 A 
ENDBRANCH   3   7
TORSDOF 1
ENDMDL
MODEL 7
REMARK VINA RESULT:    -3.238      1.980      5.189
REMARK INTER + INTRA:          -3.681
REMARK INTER:                  -3.440
REMARK INTRA:                  -0.241
REMARK UNBOUND:                -0.254
REMARK  Name = Nicotine.pdb
REMARK  2 active torsions:
REMARK  status: ('A' for Active; 'I' for Inactive)
REMARK    1  A    between atoms: C_3  and  C_6
REMARK    2  A    between atoms: N_4  and  C_12
REMARK                            x       y       z     vdW  Elec       q    Type
REMARK                         _______ _______ _______ _____ _____    ______ ____
ROOT
ATOM      1  C   UNL     1       4.529   2.756   2.985  0.00  0.00    +0.017 C 
ATOM      2  C   UNL     1       3.706   1.716   3.790  0.00  0.00    +0.025 C 
ATOM      3  C   UNL     1       4.742   0.611   4.089  0.00  0.00    +0.088 C 
ATOM      4  N   UNL     1       5.814   0.733   3.085  0.00  0.00    -0.298 NA
ATOM      5  C   UNL     1       5.476   1.842   2.167  0.00  0.00    +0.085 C 
ATOM      6  C   UNL     1       7.115   0.959   3.728  0.00  0.00    +0.105 C 
ENDROOT
BRANCH   3   7
ATOM      7  C   UNL     1       4.091  -0.743   3.985  0.00  0.00    -0.012 A 
ATOM      8  C   UNL     1       4.822  -1.891   4.228  0.00  0.00    +0.115 A 
ATOM      9  N   UNL     1       4.260  -3.081   4.139  0.00  0.00    -0.263 NA
ATOM     10  C   UNL     1       2.990  -3.225   3.816  0.00  0.00    +0.111 A 
ATOM     11  C   UNL     1       2.196  -2.123   3.559  0.00  0.00    +0.020 A 
ATOM     12  C   UNL     1       2.750  -0.855   3.648  0.00  0.00    +0.008 A 
ENDBRANCH   3   7
TORSDOF 1
ENDMDL
MODEL 8
REMARK VINA RESULT:    -3.197      1.591      2.415
REMARK INTER + INTRA:          -3.637
REMARK INTER:                  -3.418
REMARK INTRA:                  -0.219
REMARK UNBOUND:                -0.254
REMARK  Name = Nicotine.pdb
REMARK  2 active torsions:
REMARK  status: ('A' for Active; 'I' for Inactive)
REMARK    1  A    between atoms: C_3  and  C_6
REMARK    2  A    between atoms: N_4  and  C_12
REMARK                            x       y       z     vdW  Elec       q    Type
REMARK                         _______ _______ _______ _____ _____    ______ ____
ROOT
ATOM      1  C   UNL     1       2.247  -4.403   3.677  0.00  0.00    +0.017 C 
ATOM      2  C   UNL     1       3.599  -3.644   3.740  0.00  0.00    +0.025 C 
ATOM      3  C   UNL     1       3.275  -2.432   4.639  0.00  0.00    +0.088 C 
ATOM      4  N   UNL     1       1.817  -2.224   4.583  0.00  0.00    -0.298 NA
ATOM      5  C   UNL     1       1.231  -3.233   3.675  0.00  0.00    +0.085 C 
ATOM      6  C   UNL     1       1.221  -2.311   5.923  0.00  0.00    +0.105 C 
ENDROOT
BRANCH   3   7
ATOM      7  C   UNL     1       3.989  -1.208   4.126  0.00  0.00    -0.012 A 
ATOM      8  C   UNL     1       3.270  -0.124   3.658  0.00  0.00    +0.115 A 
ATOM      9  N   UNL     1       3.887   0.951   3.207  0.00  0.00    -0.263 NA
ATOM     10  C   UNL     1       5.203   1.036   3.184  0.00  0.00    +0.111 A 
ATOM     11  C   UNL     1       5.988  -0.008   3.636  0.00  0.00    +0.020 A 
ATOM     12  C   UNL     1       5.374  -1.153   4.122  0.00  0.00    +0.008 A 
ENDBRANCH   3   7
TORSDOF 1
ENDMDL
MODEL 9
REMARK VINA RESULT:    -3.070      3.701      6.770
REMARK INTER + INTRA:          -3.504
REMARK INTER:                  -3.294
REMARK INTRA:                  -0.210
REMARK UNBOUND:                -0.254
REMARK  Name = Nicotine.pdb
REMARK  2 active torsions:
REMARK  status: ('A' for Active; 'I' for Inactive)
REMARK    1  A    between atoms: C_3  and  C_6
REMARK    2  A    between atoms: N_4  and  C_12
REMARK                            x       y       z     vdW  Elec       q    Type
REMARK                         _______ _______ _______ _____ _____    ______ ____
ROOT
ATOM      1  C   UNL     1       6.201   4.456   1.466  0.00  0.00    +0.017 C 
ATOM      2  C   UNL     1       5.499   3.086   1.274  0.00  0.00    +0.025 C 
ATOM      3  C   UNL     1       4.612   2.972   2.531  0.00  0.00    +0.088 C 
ATOM      4  N   UNL     1       5.191   3.857   3.557  0.00  0.00    -0.298 NA
ATOM      5  C   UNL     1       6.406   4.491   3.001  0.00  0.00    +0.085 C 
ATOM      6  C   UNL     1       4.219   4.870   3.989  0.00  0.00    +0.105 C 
ENDROOT
BRANCH   3   7
ATOM      7  C   UNL     1       4.604   1.548   3.026  0.00  0.00    -0.012 A 
ATOM      8  C   UNL     1       5.757   0.788   2.985  0.00  0.00    +0.115 A 
ATOM      9  N   UNL     1       5.759  -0.459   3.416  0.00  0.00    -0.263 NA
ATOM     10  C   UNL     1       4.671  -1.027   3.898  0.00  0.00    +0.111 A 
ATOM     11  C   UNL     1       3.480  -0.328   3.971  0.00  0.00    +0.020 A 
ATOM     12  C   UNL     1       3.442   0.987   3.532  0.00  0.00    +0.008 A 
ENDBRANCH   3   7
TORSDOF 1
ENDMDL
MODEL 10
REMARK VINA RESULT:    -2.980      9.246     10.711
REMARK INTER + INTRA:          -3.408
REMARK INTER:                  -3.192
REMARK INTRA:                  -0.216
REMARK UNBOUND:                -0.254
REMARK  Name = Nicotine.pdb
REMARK  2 active torsions:
REMARK  status: ('A' for Active; 'I' for Inactive)
REMARK    1  A    between atoms: C_3  and  C_6
REMARK    2  A    between atoms: N_4  and  C_12
REMARK                            x       y       z     vdW  Elec       q    Type
REMARK                         _______ _______ _______ _____ _____    ______ ____
ROOT
ATOM      1  C   UNL     1       7.014  -2.338  -6.999  0.00  0.00    +0.017 C 
ATOM      2  C   UNL     1       7.320  -1.100  -6.116  0.00  0.00    +0.025 C 
ATOM      3  C   UNL     1       8.560  -1.545  -5.312  0.00  0.00    +0.088 C 
ATOM      4  N   UNL     1       8.572  -3.018  -5.306  0.00  0.00    -0.298 NA
ATOM      5  C   UNL     1       7.387  -3.502  -6.046  0.00  0.00    +0.085 C 
ATOM      6  C   UNL     1       9.811  -3.538  -5.899  0.00  0.00    +0.105 C 
ENDROOT
BRANCH   3   7
ATOM      7  C   UNL     1       8.469  -1.026  -3.900  0.00  0.00    -0.012 A 
ATOM      8  C   UNL     1       9.101  -1.693  -2.868  0.00  0.00    +0.115 A 
ATOM      9  N   UNL     1       9.026  -1.246  -1.629  0.00  0.00    -0.263 NA
ATOM     10  C   UNL     1       8.352  -0.155  -1.326  0.00  0.00    +0.111 A 
ATOM     11  C   UNL     1       7.695   0.566  -2.306  0.00  0.00    +0.020 A 
ATOM     12  C   UNL     1       7.755   0.129  -3.620  0.00  0.00    +0.008 A 
ENDBRANCH   3   7
TORSDOF 1
ENDMDL
