MODEL 1
REMARK VINA RESULT:    -3.409      0.000      0.000
REMARK INTER + INTRA:          -3.817
REMARK INTER:                  -3.608
REMARK INTRA:                  -0.209
REMARK UNBOUND:                -0.209
REMARK  Name = Nicotine.pdb
REMARK  2 active torsions:
REMARK  status: ('A' for Active; 'I' for Inactive)
REMARK    1  A    between atoms: C_3  and  C_6
REMARK    2  A    between atoms: N_4  and  C_12
REMARK                            x       y       z     vdW  Elec       q    Type
REMARK                         _______ _______ _______ _____ _____    ______ ____
ROOT
ATOM      1  C   UNL     1      -3.337  -5.707   4.193  0.00  0.00    +0.017 C 
ATOM      2  C   UNL     1      -2.444  -5.400   2.962  0.00  0.00    +0.025 C 
ATOM      3  C   UNL     1      -3.077  -4.116   2.385  0.00  0.00    +0.088 C 
ATOM      4  N   UNL     1      -4.470  -4.063   2.863  0.00  0.00    -0.298 NA
ATOM      5  C   UNL     1      -4.732  -5.263   3.685  0.00  0.00    +0.085 C 
ATOM      6  C   UNL     1      -4.717  -2.835   3.630  0.00  0.00    +0.105 C 
ENDROOT
BRANCH   3   7
ATOM      7  C   UNL     1      -3.051  -4.164   0.879  0.00  0.00    -0.012 A 
ATOM      8  C   UNL     1      -2.635  -5.307   0.223  0.00  0.00    +0.115 A 
ATOM      9  N   UNL     1      -2.610  -5.358  -1.094  0.00  0.00    -0.263 NA
ATOM     10  C   UNL     1      -2.977  -4.330  -1.834  0.00  0.00    +0.111 A 
ATOM     11  C   UNL     1      -3.406  -3.154  -1.249  0.00  0.00    +0.020 A 
ATOM     12  C   UNL     1      -3.451  -3.065   0.134  0.00  0.00    +0.008 A 
ENDBRANCH   3   7
TORSDOF 1
ENDMDL
MODEL 2
REMARK VINA RESULT:    -3.280      1.601      2.123
REMARK INTER + INTRA:          -3.682
REMARK INTER:                  -3.441
REMARK INTRA:                  -0.240
REMARK UNBOUND:                -0.209
REMARK  Name = Nicotine.pdb
REMARK  2 active torsions:
REMARK  status: ('A' for Active; 'I' for Inactive)
REMARK    1  A    between atoms: C_3  and  C_6
REMARK    2  A    between atoms: N_4  and  C_12
REMARK                            x       y       z     vdW  Elec       q    Type
REMARK                         _______ _______ _______ _____ _____    ______ ____
ROOT
ATOM      1  C   UNL     1      -5.097  -6.032   3.243  0.00  0.00    +0.017 C 
ATOM      2  C   UNL     1      -4.999  -5.843   1.706  0.00  0.00    +0.025 C 
ATOM      3  C   UNL     1      -3.693  -5.038   1.537  0.00  0.00    +0.088 C 
ATOM      4  N   UNL     1      -3.428  -4.362   2.820  0.00  0.00    -0.298 NA
ATOM      5  C   UNL     1      -4.521  -4.690   3.760  0.00  0.00    +0.085 C 
ATOM      6  C   UNL     1      -2.125  -4.760   3.367  0.00  0.00    +0.105 C 
ENDROOT
BRANCH   3   7
ATOM      7  C   UNL     1      -3.857  -4.018   0.442  0.00  0.00    -0.012 A 
ATOM      8  C   UNL     1      -2.810  -3.182   0.102  0.00  0.00    +0.115 A 
ATOM      9  N   UNL     1      -2.946  -2.286  -0.856  0.00  0.00    -0.263 NA
ATOM     10  C   UNL     1      -4.075  -2.150  -1.524  0.00  0.00    +0.111 A 
ATOM     11  C   UNL     1      -5.165  -2.951  -1.240  0.00  0.00    +0.020 A 
ATOM     12  C   UNL     1      -5.058  -3.908  -0.243  0.00  0.00    +0.008 A 
ENDBRANCH   3   7
TORSDOF 1
ENDMDL
MODEL 3
REMARK VINA RESULT:    -2.878      1.267      2.427
REMARK INTER + INTRA:          -3.256
REMARK INTER:                  -3.064
REMARK INTRA:                  -0.192
REMARK UNBOUND:                -0.209
REMARK  Name = Nicotine.pdb
REMARK  2 active torsions:
REMARK  status: ('A' for Active; 'I' for Inactive)
REMARK    1  A    between atoms: C_3  and  C_6
REMARK    2  A    between atoms: N_4  and  C_12
REMARK                            x       y       z     vdW  Elec       q    Type
REMARK                         _______ _______ _______ _____ _____    ______ ____
ROOT
ATOM      1  C   UNL     1      -4.918  -2.659   3.108  0.00  0.00    +0.017 C 
ATOM      2  C   UNL     1      -4.992  -3.113   1.626  0.00  0.00    +0.025 C 
ATOM      3  C   UNL     1      -4.528  -4.584   1.690  0.00  0.00    +0.088 C 
ATOM      4  N   UNL     1      -3.739  -4.740   2.925  0.00  0.00    -0.298 NA
ATOM      5  C   UNL     1      -3.672  -3.431   3.610  0.00  0.00    +0.085 C 
ATOM      6  C   UNL     1      -4.325  -5.764   3.799  0.00  0.00    +0.105 C 
ENDROOT
BRANCH   3   7
ATOM      7  C   UNL     1      -3.676  -4.905   0.490  0.00  0.00    -0.012 A 
ATOM      8  C   UNL     1      -3.997  -4.394  -0.753  0.00  0.00    +0.115 A 
ATOM      9  N   UNL     1      -3.256  -4.670  -1.808  0.00  0.00    -0.263 NA
ATOM     10  C   UNL     1      -2.188  -5.438  -1.723  0.00  0.00    +0.111 A 
ATOM     11  C   UNL     1      -1.804  -5.985  -0.513  0.00  0.00    +0.020 A 
ATOM     12  C   UNL     1      -2.556  -5.712   0.620  0.00  0.00    +0.008 A 
ENDBRANCH   3   7
TORSDOF 1
ENDMDL
MODEL 4
REMARK VINA RESULT:    -2.389      2.477      4.242
REMARK INTER + INTRA:          -2.739
REMARK INTER:                  -2.518
REMARK INTRA:                  -0.221
REMARK UNBOUND:                -0.209
REMARK  Name = Nicotine.pdb
REMARK  2 active torsions:
REMARK  status: ('A' for Active; 'I' for Inactive)
REMARK    1  A    between atoms: C_3  and  C_6
REMARK    2  A    between atoms: N_4  and  C_12
REMARK                            x       y       z     vdW  Elec       q    Type
REMARK                         _______ _______ _______ _____ _____    ______ ____
ROOT
ATOM      1  C   UNL     1      -4.467  -3.209   0.107  0.00  0.00    +0.017 C 
ATOM      2  C   UNL     1      -4.856  -3.890  -1.232  0.00  0.00    +0.025 C 
ATOM      3  C   UNL     1      -3.869  -5.073  -1.319  0.00  0.00    +0.088 C 
ATOM      4  N   UNL     1      -2.713  -4.742  -0.467  0.00  0.00    -0.298 NA
ATOM      5  C   UNL     1      -2.930  -3.402   0.121  0.00  0.00    +0.085 C 
ATOM      6  C   UNL     1      -2.524  -5.752   0.582  0.00  0.00    +0.105 C 
ENDROOT
BRANCH   3   7
ATOM      7  C   UNL     1      -3.419  -5.261  -2.745  0.00  0.00    -0.012 A 
ATOM      8  C   UNL     1      -2.086  -5.117  -3.082  0.00  0.00    +0.115 A 
ATOM      9  N   UNL     1      -1.684  -5.280  -4.327  0.00  0.00    -0.263 NA
ATOM     10  C   UNL     1      -2.527  -5.583  -5.294  0.00  0.00    +0.111 A 
ATOM     11  C   UNL     1      -3.875  -5.744  -5.033  0.00  0.00    +0.020 A 
ATOM     12  C   UNL     1      -4.334  -5.585  -3.734  0.00  0.00    +0.008 A 
ENDBRANCH   3   7
TORSDOF 1
ENDMDL
MODEL 5
REMARK VINA RESULT:    -2.166      1.778      2.316
REMARK INTER + INTRA:          -2.502
REMARK INTER:                  -2.286
REMARK INTRA:                  -0.215
REMARK UNBOUND:                -0.209
REMARK  Name = Nicotine.pdb
REMARK  2 active torsions:
REMARK  status: ('A' for Active; 'I' for Inactive)
REMARK    1  A    between atoms: C_3  and  C_6
REMARK    2  A    between atoms: N_4  and  C_12
REMARK                            x       y       z     vdW  Elec       q    Type
REMARK                         _______ _______ _______ _____ _____    ______ ____
ROOT
ATOM      1  C   UNL     1      -3.597  -3.138   3.931  0.00  0.00    +0.017 C 
ATOM      2  C   UNL     1      -4.402  -2.791   2.651  0.00  0.00    +0.025 C 
ATOM      3  C   UNL     1      -5.104  -4.123   2.310  0.00  0.00    +0.088 C 
ATOM      4  N   UNL     1      -4.329  -5.201   2.950  0.00  0.00    -0.298 NA
ATOM      5  C   UNL     1      -3.171  -4.600   3.646  0.00  0.00    +0.085 C 
ATOM      6  C   UNL     1      -5.164  -5.969   3.883  0.00  0.00    +0.105 C 
ENDROOT
BRANCH   3   7
ATOM      7  C   UNL     1      -5.127  -4.323   0.817  0.00  0.00    -0.012 A 
ATOM      8  C   UNL     1      -5.144  -5.598   0.283  0.00  0.00    +0.115 A 
ATOM      9  N   UNL     1      -5.165  -5.782  -1.023  0.00  0.00    -0.263 NA
ATOM     10  C   UNL     1      -5.170  -4.768  -1.865  0.00  0.00    +0.111 A 
ATOM     11  C   UNL     1      -5.154  -3.465  -1.405  0.00  0.00    +0.020 A 
ATOM     12  C   UNL     1      -5.137  -3.232  -0.038  0.00  0.00    +0.008 A 
ENDBRANCH   3   7
TORSDOF 1
ENDMDL
MODEL 6
REMARK VINA RESULT:    -2.043      3.547      5.786
REMARK INTER + INTRA:          -2.372
REMARK INTER:                  -2.145
REMARK INTRA:                  -0.227
REMARK UNBOUND:                -0.209
REMARK  Name = Nicotine.pdb
REMARK  2 active torsions:
REMARK  status: ('A' for Active; 'I' for Inactive)
REMARK    1  A    between atoms: C_3  and  C_6
REMARK    2  A    between atoms: N_4  and  C_12
REMARK                            x       y       z     vdW  Elec       q    Type
REMARK                         _______ _______ _______ _____ _____    ______ ____
ROOT
ATOM      1  C   UNL     1      -4.581  -4.659  -2.432  0.00  0.00    +0.017 C 
ATOM      2  C   UNL     1      -3.923  -5.394  -3.629  0.00  0.00    +0.025 C 
ATOM      3  C   UNL     1      -2.591  -5.901  -3.036  0.00  0.00    +0.088 C 
ATOM      4  N   UNL     1      -2.284  -5.056  -1.868  0.00  0.00    -0.298 NA
ATOM      5  C   UNL     1      -3.347  -4.039  -1.729  0.00  0.00    +0.085 C 
ATOM      6  C   UNL     1      -2.166  -5.866  -0.648  0.00  0.00    +0.105 C 
ENDROOT
BRANCH   3   7
ATOM      7  C   UNL     1      -1.494  -5.781  -4.061  0.00  0.00    -0.012 A 
ATOM      8  C   UNL     1      -0.174  -5.972  -3.698  0.00  0.00    +0.115 A 
ATOM      9  N   UNL     1       0.793  -5.868  -4.589  0.00  0.00    -0.263 NA
ATOM     10  C   UNL     1       0.544  -5.580  -5.851  0.00  0.00    +0.111 A 
ATOM     11  C   UNL     1      -0.752  -5.375  -6.288  0.00  0.00    +0.020 A 
ATOM     12  C   UNL     1      -1.795  -5.482  -5.381  0.00  0.00    +0.008 A 
ENDBRANCH   3   7
TORSDOF 1
ENDMDL
MODEL 7
REMARK VINA RESULT:    -1.668      8.674     10.619
REMARK INTER + INTRA:          -1.975
REMARK INTER:                  -1.760
REMARK INTRA:                  -0.215
REMARK UNBOUND:                -0.209
REMARK  Name = Nicotine.pdb
REMARK  2 active torsions:
REMARK  status: ('A' for Active; 'I' for Inactive)
REMARK    1  A    between atoms: C_3  and  C_6
REMARK    2  A    between atoms: N_4  and  C_12
REMARK                            x       y       z     vdW  Elec       q    Type
REMARK                         _______ _______ _______ _____ _____    ______ ____
ROOT
ATOM      1  C   UNL     1       3.897  -6.095  -6.793  0.00  0.00    +0.017 C 
ATOM      2  C   UNL     1       4.357  -4.645  -6.491  0.00  0.00    +0.025 C 
ATOM      3  C   UNL     1       3.089  -3.995  -5.897  0.00  0.00    +0.088 C 
ATOM      4  N   UNL     1       1.935  -4.785  -6.362  0.00  0.00    -0.298 NA
ATOM      5  C   UNL     1       2.428  -5.873  -7.233  0.00  0.00    +0.085 C 
ATOM      6  C   UNL     1       1.173  -5.323  -5.227  0.00  0.00    +0.105 C 
ENDROOT
BRANCH   3   7
ATOM      7  C   UNL     1       2.967  -2.573  -6.381  0.00  0.00    -0.012 A 
ATOM      8  C   UNL     1       1.723  -1.992  -6.536  0.00  0.00    +0.115 A 
ATOM      9  N   UNL     1       1.607  -0.748  -6.959  0.00  0.00    -0.263 NA
ATOM     10  C   UNL     1       2.663  -0.014  -7.249  0.00  0.00    +0.111 A 
ATOM     11  C   UNL     1       3.940  -0.527  -7.117  0.00  0.00    +0.020 A 
ATOM     12  C   UNL     1       4.101  -1.830  -6.671  0.00  0.00    +0.008 A 
ENDBRANCH   3   7
TORSDOF 1
ENDMDL
