MODEL 1
REMARK VINA RESULT:    -3.935      0.000      0.000
REMARK INTER + INTRA:          -4.402
REMARK INTER:                  -4.165
REMARK INTRA:                  -0.238
REMARK UNBOUND:                -0.238
REMARK  Name = Nicotine.pdb
REMARK  2 active torsions:
REMARK  status: ('A' for Active; 'I' for Inactive)
REMARK    1  A    between atoms: C_3  and  C_6
REMARK    2  A    between atoms: N_4  and  C_12
REMARK                            x       y       z     vdW  Elec       q    Type
REMARK                         _______ _______ _______ _____ _____    ______ ____
ROOT
ATOM      1  C   UNL     1      -1.421   5.571   5.049  0.00  0.00    +0.017 C 
ATOM      2  C   UNL     1      -0.587   4.808   3.986  0.00  0.00    +0.025 C 
ATOM      3  C   UNL     1       0.787   5.508   4.055  0.00  0.00    +0.088 C 
ATOM      4  N   UNL     1       0.567   6.847   4.632  0.00  0.00    -0.298 NA
ATOM      5  C   UNL     1      -0.878   7.014   4.896  0.00  0.00    +0.085 C 
ATOM      6  C   UNL     1       1.352   7.027   5.859  0.00  0.00    +0.105 C 
ENDROOT
BRANCH   3   7
ATOM      7  C   UNL     1       1.369   5.633   2.671  0.00  0.00    -0.012 A 
ATOM      8  C   UNL     1       2.586   6.258   2.479  0.00  0.00    +0.115 A 
ATOM      9  N   UNL     1       3.103   6.372   1.271  0.00  0.00    -0.263 NA
ATOM     10  C   UNL     1       2.485   5.900   0.206  0.00  0.00    +0.111 A 
ATOM     11  C   UNL     1       1.264   5.263   0.320  0.00  0.00    +0.020 A 
ATOM     12  C   UNL     1       0.693   5.119   1.575  0.00  0.00    +0.008 A 
ENDBRANCH   3   7
TORSDOF 1
ENDMDL
MODEL 2
REMARK VINA RESULT:    -3.876      1.491      2.156
REMARK INTER + INTRA:          -4.341
REMARK INTER:                  -4.156
REMARK INTRA:                  -0.185
REMARK UNBOUND:                -0.238
REMARK  Name = Nicotine.pdb
REMARK  2 active torsions:
REMARK  status: ('A' for Active; 'I' for Inactive)
REMARK    1  A    between atoms: C_3  and  C_6
REMARK    2  A    between atoms: N_4  and  C_12
REMARK                            x       y       z     vdW  Elec       q    Type
REMARK                         _______ _______ _______ _____ _____    ______ ____
ROOT
ATOM      1  C   UNL     1      -1.772   6.282   4.366  0.00  0.00    +0.017 C 
ATOM      2  C   UNL     1      -1.016   6.853   3.137  0.00  0.00    +0.025 C 
ATOM      3  C   UNL     1      -0.389   5.595   2.500  0.00  0.00    +0.088 C 
ATOM      4  N   UNL     1      -0.304   4.568   3.554  0.00  0.00    -0.298 NA
ATOM      5  C   UNL     1      -0.825   5.141   4.813  0.00  0.00    +0.085 C 
ATOM      6  C   UNL     1      -1.051   3.361   3.175  0.00  0.00    +0.105 C 
ENDROOT
BRANCH   3   7
ATOM      7  C   UNL     1       0.989   5.915   1.982  0.00  0.00    -0.012 A 
ATOM      8  C   UNL     1       1.947   6.444   2.826  0.00  0.00    +0.115 A 
ATOM      9  N   UNL     1       3.156   6.728   2.381  0.00  0.00    -0.263 NA
ATOM     10  C   UNL     1       3.498   6.520   1.125  0.00  0.00    +0.111 A 
ATOM     11  C   UNL     1       2.593   5.993   0.222  0.00  0.00    +0.020 A 
ATOM     12  C   UNL     1       1.314   5.678   0.655  0.00  0.00    +0.008 A 
ENDBRANCH   3   7
TORSDOF 1
ENDMDL
MODEL 3
REMARK VINA RESULT:    -3.642      1.480      4.785
REMARK INTER + INTRA:          -4.093
REMARK INTER:                  -3.837
REMARK INTRA:                  -0.256
REMARK UNBOUND:                -0.238
REMARK  Name = Nicotine.pdb
REMARK  2 active torsions:
REMARK  status: ('A' for Active; 'I' for Inactive)
REMARK    1  A    between atoms: C_3  and  C_6
REMARK    2  A    between atoms: N_4  and  C_12
REMARK                            x       y       z     vdW  Elec       q    Type
REMARK                         _______ _______ _______ _____ _____    ______ ____
ROOT
ATOM      1  C   UNL     1       3.585   6.239   0.491  0.00  0.00    +0.017 C 
ATOM      2  C   UNL     1       3.062   5.467   1.731  0.00  0.00    +0.025 C 
ATOM      3  C   UNL     1       1.605   5.135   1.344  0.00  0.00    +0.088 C 
ATOM      4  N   UNL     1       1.198   6.100   0.307  0.00  0.00    -0.298 NA
ATOM      5  C   UNL     1       2.324   7.025   0.056  0.00  0.00    +0.085 C 
ATOM      6  C   UNL     1       0.797   5.411  -0.927  0.00  0.00    +0.105 C 
ENDROOT
BRANCH   3   7
ATOM      7  C   UNL     1       0.711   5.268   2.549  0.00  0.00    -0.012 A 
ATOM      8  C   UNL     1      -0.525   4.650   2.574  0.00  0.00    +0.115 A 
ATOM      9  N   UNL     1      -1.314   4.761   3.625  0.00  0.00    -0.263 NA
ATOM     10  C   UNL     1      -0.961   5.459   4.686  0.00  0.00    +0.111 A 
ATOM     11  C   UNL     1       0.261   6.105   4.734  0.00  0.00    +0.020 A 
ATOM     12  C   UNL     1       1.119   6.006   3.649  0.00  0.00    +0.008 A 
ENDBRANCH   3   7
TORSDOF 1
ENDMDL
MODEL 4
REMARK VINA RESULT:    -3.285      1.504      4.600
REMARK INTER + INTRA:          -3.715
REMARK INTER:                  -3.502
REMARK INTRA:                  -0.213
REMARK UNBOUND:                -0.238
REMARK  Name = Nicotine.pdb
REMARK  2 active torsions:
REMARK  status: ('A' for Active; 'I' for Inactive)
REMARK    1  A    between atoms: C_3  and  C_6
REMARK    2  A    between atoms: N_4  and  C_12
REMARK                            x       y       z     vdW  Elec       q    Type
REMARK                         _______ _______ _______ _____ _____    ______ ____
ROOT
ATOM      1  C   UNL     1       0.589   6.340  -0.453  0.00  0.00    +0.017 C 
ATOM      2  C   UNL     1      -0.053   7.019   0.786  0.00  0.00    +0.025 C 
ATOM      3  C   UNL     1       0.977   6.750   1.902  0.00  0.00    +0.088 C 
ATOM      4  N   UNL     1       1.774   5.580   1.489  0.00  0.00    -0.298 NA
ATOM      5  C   UNL     1       1.267   5.102   0.185  0.00  0.00    +0.085 C 
ATOM      6  C   UNL     1       3.201   5.917   1.408  0.00  0.00    +0.105 C 
ENDROOT
BRANCH   3   7
ATOM      7  C   UNL     1       0.265   6.455   3.197  0.00  0.00    -0.012 A 
ATOM      8  C   UNL     1      -0.940   5.778   3.194  0.00  0.00    +0.115 A 
ATOM      9  N   UNL     1      -1.569   5.516   4.323  0.00  0.00    -0.263 NA
ATOM     10  C   UNL     1      -1.081   5.885   5.490  0.00  0.00    +0.111 A 
ATOM     11  C   UNL     1       0.120   6.565   5.572  0.00  0.00    +0.020 A 
ATOM     12  C   UNL     1       0.813   6.854   4.407  0.00  0.00    +0.008 A 
ENDBRANCH   3   7
TORSDOF 1
ENDMDL
MODEL 5
REMARK VINA RESULT:    -3.092      2.717      4.537
REMARK INTER + INTRA:          -3.510
REMARK INTER:                  -3.312
REMARK INTRA:                  -0.198
REMARK UNBOUND:                -0.238
REMARK  Name = Nicotine.pdb
REMARK  2 active torsions:
REMARK  status: ('A' for Active; 'I' for Inactive)
REMARK    1  A    between atoms: C_3  and  C_6
REMARK    2  A    between atoms: N_4  and  C_12
REMARK                            x       y       z     vdW  Elec       q    Type
REMARK                         _______ _______ _______ _____ _____    ______ ____
ROOT
ATOM      1  C   UNL     1       1.020   5.632   2.040  0.00  0.00    +0.017 C 
ATOM      2  C   UNL     1       2.348   6.435   2.063  0.00  0.00    +0.025 C 
ATOM      3  C   UNL     1       2.541   6.828   0.583  0.00  0.00    +0.088 C 
ATOM      4  N   UNL     1       1.763   5.873  -0.228  0.00  0.00    -0.298 NA
ATOM      5  C   UNL     1       1.122   4.898   0.679  0.00  0.00    +0.085 C 
ATOM      6  C   UNL     1       0.762   6.570  -1.046  0.00  0.00    +0.105 C 
ENDROOT
BRANCH   3   7
ATOM      7  C   UNL     1       4.000   6.744   0.216  0.00  0.00    -0.012 A 
ATOM      8  C   UNL     1       4.944   6.426   1.174  0.00  0.00    +0.115 A 
ATOM      9  N   UNL     1       6.223   6.350   0.862  0.00  0.00    -0.263 NA
ATOM     10  C   UNL     1       6.652   6.573  -0.365  0.00  0.00    +0.111 A 
ATOM     11  C   UNL     1       5.766   6.895  -1.376  0.00  0.00    +0.020 A 
ATOM     12  C   UNL     1       4.413   6.979  -1.086  0.00  0.00    +0.008 A 
ENDBRANCH   3   7
TORSDOF 1
ENDMDL
MODEL 6
REMARK VINA RESULT:    -3.066     10.796     11.813
REMARK INTER + INTRA:          -3.483
REMARK INTER:                  -3.268
REMARK INTRA:                  -0.215
REMARK UNBOUND:                -0.238
REMARK  Name = Nicotine.pdb
REMARK  2 active torsions:
REMARK  status: ('A' for Active; 'I' for Inactive)
REMARK    1  A    between atoms: C_3  and  C_6
REMARK    2  A    between atoms: N_4  and  C_12
REMARK                            x       y       z     vdW  Elec       q    Type
REMARK                         _______ _______ _______ _____ _____    ______ ____
ROOT
ATOM      1  C   UNL     1      -3.729  -3.286   0.797  0.00  0.00    +0.017 C 
ATOM      2  C   UNL     1      -2.984  -3.495  -0.548  0.00  0.00    +0.025 C 
ATOM      3  C   UNL     1      -3.671  -2.480  -1.486  0.00  0.00    +0.088 C 
ATOM      4  N   UNL     1      -4.998  -2.186  -0.915  0.00  0.00    -0.298 NA
ATOM      5  C   UNL     1      -5.171  -2.989   0.314  0.00  0.00    +0.085 C 
ATOM      6  C   UNL     1      -5.145  -0.752  -0.633  0.00  0.00    +0.105 C 
ENDROOT
BRANCH   3   7
ATOM      7  C   UNL     1      -3.824  -3.075  -2.862  0.00  0.00    -0.012 A 
ATOM      8  C   UNL     1      -3.676  -4.435  -3.055  0.00  0.00    +0.115 A 
ATOM      9  N   UNL     1      -3.808  -4.964  -4.256  0.00  0.00    -0.263 NA
ATOM     10  C   UNL     1      -4.083  -4.225  -5.312  0.00  0.00    +0.111 A 
ATOM     11  C   UNL     1      -4.246  -2.857  -5.196  0.00  0.00    +0.020 A 
ATOM     12  C   UNL     1      -4.120  -2.266  -3.949  0.00  0.00    +0.008 A 
ENDBRANCH   3   7
TORSDOF 1
ENDMDL
MODEL 7
REMARK VINA RESULT:    -3.012      6.187      8.835
REMARK INTER + INTRA:          -3.426
REMARK INTER:                  -3.203
REMARK INTRA:                  -0.223
REMARK UNBOUND:                -0.238
REMARK  Name = Nicotine.pdb
REMARK  2 active torsions:
REMARK  status: ('A' for Active; 'I' for Inactive)
REMARK    1  A    between atoms: C_3  and  C_6
REMARK    2  A    between atoms: N_4  and  C_12
REMARK                            x       y       z     vdW  Elec       q    Type
REMARK                         _______ _______ _______ _____ _____    ______ ____
ROOT
ATOM      1  C   UNL     1      10.745   6.930   1.525  0.00  0.00    +0.017 C 
ATOM      2  C   UNL     1       9.216   6.698   1.640  0.00  0.00    +0.025 C 
ATOM      3  C   UNL     1       8.905   5.818   0.410  0.00  0.00    +0.088 C 
ATOM      4  N   UNL     1       9.986   6.036  -0.567  0.00  0.00    -0.298 NA
ATOM      5  C   UNL     1      10.933   7.025  -0.010  0.00  0.00    +0.085 C 
ATOM      6  C   UNL     1      10.669   4.775  -0.888  0.00  0.00    +0.105 C 
ENDROOT
BRANCH   3   7
ATOM      7  C   UNL     1       7.582   6.222  -0.188  0.00  0.00    -0.012 A 
ATOM      8  C   UNL     1       7.514   6.673  -1.493  0.00  0.00    +0.115 A 
ATOM      9  N   UNL     1       6.360   7.028  -2.024  0.00  0.00    -0.263 NA
ATOM     10  C   UNL     1       5.235   6.969  -1.340  0.00  0.00    +0.111 A 
ATOM     11  C   UNL     1       5.225   6.528  -0.030  0.00  0.00    +0.020 A 
ATOM     12  C   UNL     1       6.418   6.141   0.561  0.00  0.00    +0.008 A 
ENDBRANCH   3   7
TORSDOF 1
ENDMDL
MODEL 8
REMARK VINA RESULT:    -2.960      7.064      9.139
REMARK INTER + INTRA:          -3.371
REMARK INTER:                  -3.187
REMARK INTRA:                  -0.184
REMARK UNBOUND:                -0.238
REMARK  Name = Nicotine.pdb
REMARK  2 active torsions:
REMARK  status: ('A' for Active; 'I' for Inactive)
REMARK    1  A    between atoms: C_3  and  C_6
REMARK    2  A    between atoms: N_4  and  C_12
REMARK                            x       y       z     vdW  Elec       q    Type
REMARK                         _______ _______ _______ _____ _____    ______ ____
ROOT
ATOM      1  C   UNL     1       6.970   5.796  -0.187  0.00  0.00    +0.017 C 
ATOM      2  C   UNL     1       7.084   6.556   1.161  0.00  0.00    +0.025 C 
ATOM      3  C   UNL     1       8.553   7.028   1.170  0.00  0.00    +0.088 C 
ATOM      4  N   UNL     1       9.301   6.146   0.257  0.00  0.00    -0.298 NA
ATOM      5  C   UNL     1       8.369   5.139  -0.294  0.00  0.00    +0.085 C 
ATOM      6  C   UNL     1       9.939   6.918  -0.817  0.00  0.00    +0.105 C 
ENDROOT
BRANCH   3   7
ATOM      7  C   UNL     1       9.116   6.922   2.564  0.00  0.00    -0.012 A 
ATOM      8  C   UNL     1       8.278   6.968   3.662  0.00  0.00    +0.115 A 
ATOM      9  N   UNL     1       8.763   6.876   4.885  0.00  0.00    -0.263 NA
ATOM     10  C   UNL     1      10.055   6.737   5.110  0.00  0.00    +0.111 A 
ATOM     11  C   UNL     1      10.954   6.682   4.061  0.00  0.00    +0.020 A 
ATOM     12  C   UNL     1      10.480   6.771   2.761  0.00  0.00    +0.008 A 
ENDBRANCH   3   7
TORSDOF 1
ENDMDL
MODEL 9
REMARK VINA RESULT:    -1.630     10.503     12.156
REMARK INTER + INTRA:          -1.963
REMARK INTER:                  -1.779
REMARK INTRA:                  -0.184
REMARK UNBOUND:                -0.238
REMARK  Name = Nicotine.pdb
REMARK  2 active torsions:
REMARK  status: ('A' for Active; 'I' for Inactive)
REMARK    1  A    between atoms: C_3  and  C_6
REMARK    2  A    between atoms: N_4  and  C_12
REMARK                            x       y       z     vdW  Elec       q    Type
REMARK                         _______ _______ _______ _____ _____    ______ ____
ROOT
ATOM      1  C   UNL     1      -4.460  -2.952  -4.955  0.00  0.00    +0.017 C 
ATOM      2  C   UNL     1      -4.088  -1.982  -3.802  0.00  0.00    +0.025 C 
ATOM      3  C   UNL     1      -3.749  -2.939  -2.639  0.00  0.00    +0.088 C 
ATOM      4  N   UNL     1      -4.417  -4.222  -2.920  0.00  0.00    -0.298 NA
ATOM      5  C   UNL     1      -5.171  -4.094  -4.186  0.00  0.00    +0.085 C 
ATOM      6  C   UNL     1      -3.443  -5.318  -2.996  0.00  0.00    +0.105 C 
ENDROOT
BRANCH   3   7
ATOM      7  C   UNL     1      -4.258  -2.368  -1.341  0.00  0.00    -0.012 A 
ATOM      8  C   UNL     1      -4.428  -1.004  -1.196  0.00  0.00    +0.115 A 
ATOM      9  N   UNL     1      -4.873  -0.496  -0.063  0.00  0.00    -0.263 NA
ATOM     10  C   UNL     1      -5.171  -1.260   0.969  0.00  0.00    +0.111 A 
ATOM     11  C   UNL     1      -5.027  -2.633   0.898  0.00  0.00    +0.020 A 
ATOM     12  C   UNL     1      -4.567  -3.204  -0.279  0.00  0.00    +0.008 A 
ENDBRANCH   3   7
TORSDOF 1
ENDMDL
