MODEL 1
REMARK VINA RESULT:     6.950      0.000      0.000
REMARK INTER + INTRA:           7.144
REMARK INTER:                   7.356
REMARK INTRA:                  -0.212
REMARK UNBOUND:                -0.212
REMARK  Name = Nicotine.pdb
REMARK  2 active torsions:
REMARK  status: ('A' for Active; 'I' for Inactive)
REMARK    1  A    between atoms: C_3  and  C_6
REMARK    2  A    between atoms: N_4  and  C_12
REMARK                            x       y       z     vdW  Elec       q    Type
REMARK                         _______ _______ _______ _____ _____    ______ ____
ROOT
ATOM      1  C   UNL     1       5.234   3.908  -5.822  0.00  0.00    +0.017 C 
ATOM      2  C   UNL     1       6.495   4.421  -5.077  0.00  0.00    +0.025 C 
ATOM      3  C   UNL     1       6.756   5.790  -5.740  0.00  0.00    +0.088 C 
ATOM      4  N   UNL     1       6.105   5.767  -7.062  0.00  0.00    -0.298 NA
ATOM      5  C   UNL     1       5.478   4.442  -7.255  0.00  0.00    +0.085 C 
ATOM      6  C   UNL     1       5.111   6.843  -7.179  0.00  0.00    +0.105 C 
ENDROOT
BRANCH   3   7
ATOM      7  C   UNL     1       8.238   6.008  -5.901  0.00  0.00    -0.012 A 
ATOM      8  C   UNL     1       9.074   5.965  -4.801  0.00  0.00    +0.115 A 
ATOM      9  N   UNL     1      10.373   6.154  -4.933  0.00  0.00    -0.263 NA
ATOM     10  C   UNL     1      10.923   6.390  -6.108  0.00  0.00    +0.111 A 
ATOM     11  C   UNL     1      10.150   6.447  -7.253  0.00  0.00    +0.020 A 
ATOM     12  C   UNL     1       8.782   6.248  -7.154  0.00  0.00    +0.008 A 
ENDBRANCH   3   7
TORSDOF 1
ENDMDL
