MODEL 1
REMARK VINA RESULT:    -4.879      0.000      0.000
REMARK INTER + INTRA:          -5.420
REMARK INTER:                  -5.164
REMARK INTRA:                  -0.256
REMARK UNBOUND:                -0.256
REMARK  Name = Nicotine.pdb
REMARK  2 active torsions:
REMARK  status: ('A' for Active; 'I' for Inactive)
REMARK    1  A    between atoms: C_3  and  C_6
REMARK    2  A    between atoms: N_4  and  C_12
REMARK                            x       y       z     vdW  Elec       q    Type
REMARK                         _______ _______ _______ _____ _____    ______ ____
ROOT
ATOM      1  C   UNL     1       3.255   1.171   4.342  0.00  0.00    +0.017 C 
ATOM      2  C   UNL     1       3.690   0.109   3.298  0.00  0.00    +0.025 C 
ATOM      3  C   UNL     1       4.794   0.837   2.502  0.00  0.00    +0.088 C 
ATOM      4  N   UNL     1       4.581   2.284   2.682  0.00  0.00    -0.298 NA
ATOM      5  C   UNL     1       3.385   2.482   3.528  0.00  0.00    +0.085 C 
ATOM      6  C   UNL     1       5.761   2.920   3.281  0.00  0.00    +0.105 C 
ENDROOT
BRANCH   3   7
ATOM      7  C   UNL     1       4.694   0.480   1.042  0.00  0.00    -0.012 A 
ATOM      8  C   UNL     1       5.773   0.669   0.200  0.00  0.00    +0.115 A 
ATOM      9  N   UNL     1       5.694   0.359  -1.079  0.00  0.00    -0.263 NA
ATOM     10  C   UNL     1       4.592  -0.138  -1.605  0.00  0.00    +0.111 A 
ATOM     11  C   UNL     1       3.471  -0.356  -0.825  0.00  0.00    +0.020 A 
ATOM     12  C   UNL     1       3.519  -0.047   0.526  0.00  0.00    +0.008 A 
ENDBRANCH   3   7
TORSDOF 1
ENDMDL
MODEL 2
REMARK VINA RESULT:    -4.636      1.343      2.133
REMARK INTER + INTRA:          -5.163
REMARK INTER:                  -4.951
REMARK INTRA:                  -0.211
REMARK UNBOUND:                -0.256
REMARK  Name = Nicotine.pdb
REMARK  2 active torsions:
REMARK  status: ('A' for Active; 'I' for Inactive)
REMARK    1  A    between atoms: C_3  and  C_6
REMARK    2  A    between atoms: N_4  and  C_12
REMARK                            x       y       z     vdW  Elec       q    Type
REMARK                         _______ _______ _______ _____ _____    ______ ____
ROOT
ATOM      1  C   UNL     1       4.354   1.360   4.334  0.00  0.00    +0.017 C 
ATOM      2  C   UNL     1       4.029   1.681   2.852  0.00  0.00    +0.025 C 
ATOM      3  C   UNL     1       3.565   0.319   2.295  0.00  0.00    +0.088 C 
ATOM      4  N   UNL     1       4.125  -0.725   3.172  0.00  0.00    -0.298 NA
ATOM      5  C   UNL     1       4.932  -0.073   4.225  0.00  0.00    +0.085 C 
ATOM      6  C   UNL     1       3.059  -1.549   3.758  0.00  0.00    +0.105 C 
ENDROOT
BRANCH   3   7
ATOM      7  C   UNL     1       4.075   0.138   0.889  0.00  0.00    -0.012 A 
ATOM      8  C   UNL     1       5.323   0.613   0.532  0.00  0.00    +0.115 A 
ATOM      9  N   UNL     1       5.778   0.459  -0.696  0.00  0.00    -0.263 NA
ATOM     10  C   UNL     1       5.068  -0.148  -1.627  0.00  0.00    +0.111 A 
ATOM     11  C   UNL     1       3.811  -0.650  -1.344  0.00  0.00    +0.020 A 
ATOM     12  C   UNL     1       3.302  -0.511  -0.062  0.00  0.00    +0.008 A 
ENDBRANCH   3   7
TORSDOF 1
ENDMDL
MODEL 3
REMARK VINA RESULT:    -4.624      1.848      4.902
REMARK INTER + INTRA:          -5.150
REMARK INTER:                  -4.935
REMARK INTRA:                  -0.215
REMARK UNBOUND:                -0.256
REMARK  Name = Nicotine.pdb
REMARK  2 active torsions:
REMARK  status: ('A' for Active; 'I' for Inactive)
REMARK    1  A    between atoms: C_3  and  C_6
REMARK    2  A    between atoms: N_4  and  C_12
REMARK                            x       y       z     vdW  Elec       q    Type
REMARK                         _______ _______ _______ _____ _____    ______ ____
ROOT
ATOM      1  C   UNL     1       4.461  -0.153  -1.001  0.00  0.00    +0.017 C 
ATOM      2  C   UNL     1       4.793   0.482   0.375  0.00  0.00    +0.025 C 
ATOM      3  C   UNL     1       4.370  -0.615   1.374  0.00  0.00    +0.088 C 
ATOM      4  N   UNL     1       3.392  -1.477   0.688  0.00  0.00    -0.298 NA
ATOM      5  C   UNL     1       3.173  -0.950  -0.676  0.00  0.00    +0.085 C 
ATOM      6  C   UNL     1       3.855  -2.870   0.647  0.00  0.00    +0.105 C 
ENDROOT
BRANCH   3   7
ATOM      7  C   UNL     1       3.738   0.015   2.589  0.00  0.00    -0.012 A 
ATOM      8  C   UNL     1       2.783  -0.672   3.315  0.00  0.00    +0.115 A 
ATOM      9  N   UNL     1       2.225  -0.129   4.379  0.00  0.00    -0.263 NA
ATOM     10  C   UNL     1       2.550   1.081   4.791  0.00  0.00    +0.111 A 
ATOM     11  C   UNL     1       3.497   1.828   4.115  0.00  0.00    +0.020 A 
ATOM     12  C   UNL     1       4.109   1.287   2.995  0.00  0.00    +0.008 A 
ENDBRANCH   3   7
TORSDOF 1
ENDMDL
MODEL 4
REMARK VINA RESULT:    -4.551      1.623      2.249
REMARK INTER + INTRA:          -5.073
REMARK INTER:                  -4.886
REMARK INTRA:                  -0.187
REMARK UNBOUND:                -0.256
REMARK  Name = Nicotine.pdb
REMARK  2 active torsions:
REMARK  status: ('A' for Active; 'I' for Inactive)
REMARK    1  A    between atoms: C_3  and  C_6
REMARK    2  A    between atoms: N_4  and  C_12
REMARK                            x       y       z     vdW  Elec       q    Type
REMARK                         _______ _______ _______ _____ _____    ______ ____
ROOT
ATOM      1  C   UNL     1       6.804   0.167   3.999  0.00  0.00    +0.017 C 
ATOM      2  C   UNL     1       6.692  -0.156   2.486  0.00  0.00    +0.025 C 
ATOM      3  C   UNL     1       5.722   0.928   1.971  0.00  0.00    +0.088 C 
ATOM      4  N   UNL     1       4.942   1.402   3.128  0.00  0.00    -0.298 NA
ATOM      5  C   UNL     1       5.367   0.645   4.324  0.00  0.00    +0.085 C 
ATOM      6  C   UNL     1       5.119   2.846   3.327  0.00  0.00    +0.105 C 
ENDROOT
BRANCH   3   7
ATOM      7  C   UNL     1       4.799   0.339   0.935  0.00  0.00    -0.012 A 
ATOM      8  C   UNL     1       3.541  -0.106   1.292  0.00  0.00    +0.115 A 
ATOM      9  N   UNL     1       2.727  -0.622   0.391  0.00  0.00    -0.263 NA
ATOM     10  C   UNL     1       3.076  -0.735  -0.875  0.00  0.00    +0.111 A 
ATOM     11  C   UNL     1       4.319  -0.310  -1.306  0.00  0.00    +0.020 A 
ATOM     12  C   UNL     1       5.200   0.243  -0.389  0.00  0.00    +0.008 A 
ENDBRANCH   3   7
TORSDOF 1
ENDMDL
MODEL 5
REMARK VINA RESULT:    -4.529      1.547      1.785
REMARK INTER + INTRA:          -5.050
REMARK INTER:                  -4.855
REMARK INTRA:                  -0.195
REMARK UNBOUND:                -0.256
REMARK  Name = Nicotine.pdb
REMARK  2 active torsions:
REMARK  status: ('A' for Active; 'I' for Inactive)
REMARK    1  A    between atoms: C_3  and  C_6
REMARK    2  A    between atoms: N_4  and  C_12
REMARK                            x       y       z     vdW  Elec       q    Type
REMARK                         _______ _______ _______ _____ _____    ______ ____
ROOT
ATOM      1  C   UNL     1       3.064   1.659   4.811  0.00  0.00    +0.017 C 
ATOM      2  C   UNL     1       2.849   0.336   4.031  0.00  0.00    +0.025 C 
ATOM      3  C   UNL     1       4.153   0.196   3.217  0.00  0.00    +0.088 C 
ATOM      4  N   UNL     1       4.741   1.542   3.100  0.00  0.00    -0.298 NA
ATOM      5  C   UNL     1       3.849   2.506   3.779  0.00  0.00    +0.085 C 
ATOM      6  C   UNL     1       6.092   1.579   3.674  0.00  0.00    +0.105 C 
ENDROOT
BRANCH   3   7
ATOM      7  C   UNL     1       3.847  -0.352   1.848  0.00  0.00    -0.012 A 
ATOM      8  C   UNL     1       3.822  -1.717   1.630  0.00  0.00    +0.115 A 
ATOM      9  N   UNL     1       3.555  -2.205   0.435  0.00  0.00    -0.263 NA
ATOM     10  C   UNL     1       3.303  -1.420  -0.594  0.00  0.00    +0.111 A 
ATOM     11  C   UNL     1       3.309  -0.045  -0.453  0.00  0.00    +0.020 A 
ATOM     12  C   UNL     1       3.580   0.505   0.791  0.00  0.00    +0.008 A 
ENDBRANCH   3   7
TORSDOF 1
ENDMDL
MODEL 6
REMARK VINA RESULT:    -4.409      2.609      5.451
REMARK INTER + INTRA:          -4.922
REMARK INTER:                  -4.712
REMARK INTRA:                  -0.211
REMARK UNBOUND:                -0.256
REMARK  Name = Nicotine.pdb
REMARK  2 active torsions:
REMARK  status: ('A' for Active; 'I' for Inactive)
REMARK    1  A    between atoms: C_3  and  C_6
REMARK    2  A    between atoms: N_4  and  C_12
REMARK                            x       y       z     vdW  Elec       q    Type
REMARK                         _______ _______ _______ _____ _____    ______ ____
ROOT
ATOM      1  C   UNL     1       5.660  -3.699  -2.718  0.00  0.00    +0.017 C 
ATOM      2  C   UNL     1       4.698  -2.534  -2.365  0.00  0.00    +0.025 C 
ATOM      3  C   UNL     1       5.617  -1.535  -1.631  0.00  0.00    +0.088 C 
ATOM      4  N   UNL     1       6.771  -2.297  -1.120  0.00  0.00    -0.298 NA
ATOM      5  C   UNL     1       6.594  -3.719  -1.482  0.00  0.00    +0.085 C 
ATOM      6  C   UNL     1       8.031  -1.769  -1.659  0.00  0.00    +0.105 C 
ENDROOT
BRANCH   3   7
ATOM      7  C   UNL     1       4.873  -0.900  -0.485  0.00  0.00    -0.012 A 
ATOM      8  C   UNL     1       3.620  -1.360  -0.125  0.00  0.00    +0.115 A 
ATOM      9  N   UNL     1       2.962  -0.809   0.877  0.00  0.00    -0.263 NA
ATOM     10  C   UNL     1       3.465   0.193   1.570  0.00  0.00    +0.111 A 
ATOM     11  C   UNL     1       4.713   0.705   1.268  0.00  0.00    +0.020 A 
ATOM     12  C   UNL     1       5.437   0.149   0.225  0.00  0.00    +0.008 A 
ENDBRANCH   3   7
TORSDOF 1
ENDMDL
MODEL 7
REMARK VINA RESULT:    -4.212      1.905      4.582
REMARK INTER + INTRA:          -4.714
REMARK INTER:                  -4.513
REMARK INTRA:                  -0.201
REMARK UNBOUND:                -0.256
REMARK  Name = Nicotine.pdb
REMARK  2 active torsions:
REMARK  status: ('A' for Active; 'I' for Inactive)
REMARK    1  A    between atoms: C_3  and  C_6
REMARK    2  A    between atoms: N_4  and  C_12
REMARK                            x       y       z     vdW  Elec       q    Type
REMARK                         _______ _______ _______ _____ _____    ______ ____
ROOT
ATOM      1  C   UNL     1       6.149  -0.747  -1.444  0.00  0.00    +0.017 C 
ATOM      2  C   UNL     1       5.274   0.229  -0.613  0.00  0.00    +0.025 C 
ATOM      3  C   UNL     1       5.878   0.115   0.803  0.00  0.00    +0.088 C 
ATOM      4  N   UNL     1       6.583  -1.177   0.875  0.00  0.00    -0.298 NA
ATOM      5  C   UNL     1       6.421  -1.875  -0.418  0.00  0.00    +0.085 C 
ATOM      6  C   UNL     1       8.004  -0.986   1.196  0.00  0.00    +0.105 C 
ENDROOT
BRANCH   3   7
ATOM      7  C   UNL     1       4.781   0.160   1.834  0.00  0.00    -0.012 A 
ATOM      8  C   UNL     1       3.634  -0.593   1.668  0.00  0.00    +0.115 A 
ATOM      9  N   UNL     1       2.669  -0.560   2.565  0.00  0.00    -0.263 NA
ATOM     10  C   UNL     1       2.755   0.187   3.648  0.00  0.00    +0.111 A 
ATOM     11  C   UNL     1       3.872   0.967   3.883  0.00  0.00    +0.020 A 
ATOM     12  C   UNL     1       4.909   0.954   2.964  0.00  0.00    +0.008 A 
ENDBRANCH   3   7
TORSDOF 1
ENDMDL
MODEL 8
REMARK VINA RESULT:    -4.197      2.030      5.013
REMARK INTER + INTRA:          -4.698
REMARK INTER:                  -4.444
REMARK INTRA:                  -0.254
REMARK UNBOUND:                -0.256
REMARK  Name = Nicotine.pdb
REMARK  2 active torsions:
REMARK  status: ('A' for Active; 'I' for Inactive)
REMARK    1  A    between atoms: C_3  and  C_6
REMARK    2  A    between atoms: N_4  and  C_12
REMARK                            x       y       z     vdW  Elec       q    Type
REMARK                         _______ _______ _______ _____ _____    ______ ____
ROOT
ATOM      1  C   UNL     1       4.804  -2.888  -2.634  0.00  0.00    +0.017 C 
ATOM      2  C   UNL     1       4.199  -1.584  -2.050  0.00  0.00    +0.025 C 
ATOM      3  C   UNL     1       5.393  -0.953  -1.302  0.00  0.00    +0.088 C 
ATOM      4  N   UNL     1       6.345  -2.038  -1.004  0.00  0.00    -0.298 NA
ATOM      5  C   UNL     1       5.784  -3.309  -1.510  0.00  0.00    +0.085 C 
ATOM      6  C   UNL     1       7.658  -1.766  -1.604  0.00  0.00    +0.105 C 
ENDROOT
BRANCH   3   7
ATOM      7  C   UNL     1       4.918  -0.320  -0.020  0.00  0.00    -0.012 A 
ATOM      8  C   UNL     1       5.562   0.790   0.492  0.00  0.00    +0.115 A 
ATOM      9  N   UNL     1       5.152   1.350   1.614  0.00  0.00    -0.263 NA
ATOM     10  C   UNL     1       4.122   0.879   2.288  0.00  0.00    +0.111 A 
ATOM     11  C   UNL     1       3.428  -0.229   1.837  0.00  0.00    +0.020 A 
ATOM     12  C   UNL     1       3.826  -0.841   0.659  0.00  0.00    +0.008 A 
ENDBRANCH   3   7
TORSDOF 1
ENDMDL
MODEL 9
REMARK VINA RESULT:    -4.194      2.174      4.799
REMARK INTER + INTRA:          -4.695
REMARK INTER:                  -4.481
REMARK INTRA:                  -0.213
REMARK UNBOUND:                -0.256
REMARK  Name = Nicotine.pdb
REMARK  2 active torsions:
REMARK  status: ('A' for Active; 'I' for Inactive)
REMARK    1  A    between atoms: C_3  and  C_6
REMARK    2  A    between atoms: N_4  and  C_12
REMARK                            x       y       z     vdW  Elec       q    Type
REMARK                         _______ _______ _______ _____ _____    ______ ____
ROOT
ATOM      1  C   UNL     1       6.192  -0.779   1.145  0.00  0.00    +0.017 C 
ATOM      2  C   UNL     1       5.354  -1.428   2.278  0.00  0.00    +0.025 C 
ATOM      3  C   UNL     1       3.928  -0.909   1.996  0.00  0.00    +0.088 C 
ATOM      4  N   UNL     1       4.061   0.321   1.196  0.00  0.00    -0.298 NA
ATOM      5  C   UNL     1       5.499   0.598   0.994  0.00  0.00    +0.085 C 
ATOM      6  C   UNL     1       3.363   0.192  -0.089  0.00  0.00    +0.105 C 
ENDROOT
BRANCH   3   7
ATOM      7  C   UNL     1       3.228  -0.605   3.295  0.00  0.00    -0.012 A 
ATOM      8  C   UNL     1       2.933  -1.620   4.185  0.00  0.00    +0.115 A 
ATOM      9  N   UNL     1       2.320  -1.362   5.324  0.00  0.00    -0.263 NA
ATOM     10  C   UNL     1       1.966  -0.137   5.659  0.00  0.00    +0.111 A 
ATOM     11  C   UNL     1       2.228   0.929   4.819  0.00  0.00    +0.020 A 
ATOM     12  C   UNL     1       2.875   0.697   3.615  0.00  0.00    +0.008 A 
ENDBRANCH   3   7
TORSDOF 1
ENDMDL
MODEL 10
REMARK VINA RESULT:    -4.034      3.423      5.997
REMARK INTER + INTRA:          -4.526
REMARK INTER:                  -4.322
REMARK INTRA:                  -0.204
REMARK UNBOUND:                -0.256
REMARK  Name = Nicotine.pdb
REMARK  2 active torsions:
REMARK  status: ('A' for Active; 'I' for Inactive)
REMARK    1  A    between atoms: C_3  and  C_6
REMARK    2  A    between atoms: N_4  and  C_12
REMARK                            x       y       z     vdW  Elec       q    Type
REMARK                         _______ _______ _______ _____ _____    ______ ____
ROOT
ATOM      1  C   UNL     1       7.567  -4.466  -0.833  0.00  0.00    +0.017 C 
ATOM      2  C   UNL     1       6.231  -4.064  -0.154  0.00  0.00    +0.025 C 
ATOM      3  C   UNL     1       5.389  -3.531  -1.333  0.00  0.00    +0.088 C 
ATOM      4  N   UNL     1       6.330  -3.132  -2.396  0.00  0.00    -0.298 NA
ATOM      5  C   UNL     1       7.709  -3.370  -1.919  0.00  0.00    +0.085 C 
ATOM      6  C   UNL     1       6.067  -3.872  -3.637  0.00  0.00    +0.105 C 
ENDROOT
BRANCH   3   7
ATOM      7  C   UNL     1       4.581  -2.340  -0.889  0.00  0.00    -0.012 A 
ATOM      8  C   UNL     1       3.830  -2.398   0.270  0.00  0.00    +0.115 A 
ATOM      9  N   UNL     1       3.119  -1.360   0.666  0.00  0.00    -0.263 NA
ATOM     10  C   UNL     1       3.095  -0.234  -0.020  0.00  0.00    +0.111 A 
ATOM     11  C   UNL     1       3.822  -0.102  -1.188  0.00  0.00    +0.020 A 
ATOM     12  C   UNL     1       4.585  -1.170  -1.633  0.00  0.00    +0.008 A 
ENDBRANCH   3   7
TORSDOF 1
ENDMDL
