MODEL 1
REMARK VINA RESULT:    -3.747      0.000      0.000
REMARK INTER + INTRA:          -4.188
REMARK INTER:                  -3.966
REMARK INTRA:                  -0.222
REMARK UNBOUND:                -0.222
REMARK  Name = Nicotine.pdb
REMARK  2 active torsions:
REMARK  status: ('A' for Active; 'I' for Inactive)
REMARK    1  A    between atoms: C_3  and  C_6
REMARK    2  A    between atoms: N_4  and  C_12
REMARK                            x       y       z     vdW  Elec       q    Type
REMARK                         _______ _______ _______ _____ _____    ______ ____
ROOT
ATOM      1  C   UNL     1       2.128   6.918   1.107  0.00  0.00    +0.017 C 
ATOM      2  C   UNL     1       1.334   6.547  -0.172  0.00  0.00    +0.025 C 
ATOM      3  C   UNL     1       0.183   5.676   0.375  0.00  0.00    +0.088 C 
ATOM      4  N   UNL     1       0.619   5.144   1.678  0.00  0.00    -0.298 NA
ATOM      5  C   UNL     1       1.991   5.624   1.947  0.00  0.00    +0.085 C 
ATOM      6  C   UNL     1      -0.301   5.549   2.748  0.00  0.00    +0.105 C 
ENDROOT
BRANCH   3   7
ATOM      7  C   UNL     1      -0.098   4.542  -0.577  0.00  0.00    -0.012 A 
ATOM      8  C   UNL     1      -0.877   3.472  -0.178  0.00  0.00    +0.115 A 
ATOM      9  N   UNL     1      -1.127   2.475  -1.004  0.00  0.00    -0.263 NA
ATOM     10  C   UNL     1      -0.650   2.456  -2.233  0.00  0.00    +0.111 A 
ATOM     11  C   UNL     1       0.137   3.492  -2.702  0.00  0.00    +0.020 A 
ATOM     12  C   UNL     1       0.417   4.560  -1.864  0.00  0.00    +0.008 A 
ENDBRANCH   3   7
TORSDOF 1
ENDMDL
MODEL 2
REMARK VINA RESULT:    -3.575      1.603      2.062
REMARK INTER + INTRA:          -4.006
REMARK INTER:                  -3.811
REMARK INTRA:                  -0.195
REMARK UNBOUND:                -0.222
REMARK  Name = Nicotine.pdb
REMARK  2 active torsions:
REMARK  status: ('A' for Active; 'I' for Inactive)
REMARK    1  A    between atoms: C_3  and  C_6
REMARK    2  A    between atoms: N_4  and  C_12
REMARK                            x       y       z     vdW  Elec       q    Type
REMARK                         _______ _______ _______ _____ _____    ______ ____
ROOT
ATOM      1  C   UNL     1       1.692   6.310  -0.026  0.00  0.00    +0.017 C 
ATOM      2  C   UNL     1       1.093   5.672  -1.307  0.00  0.00    +0.025 C 
ATOM      3  C   UNL     1      -0.427   5.722  -1.043  0.00  0.00    +0.088 C 
ATOM      4  N   UNL     1      -0.613   5.815   0.417  0.00  0.00    -0.298 NA
ATOM      5  C   UNL     1       0.716   5.799   1.063  0.00  0.00    +0.085 C 
ATOM      6  C   UNL     1      -1.359   7.028   0.776  0.00  0.00    +0.105 C 
ENDROOT
BRANCH   3   7
ATOM      7  C   UNL     1      -1.080   4.469  -1.565  0.00  0.00    -0.012 A 
ATOM      8  C   UNL     1      -0.347   3.548  -2.289  0.00  0.00    +0.115 A 
ATOM      9  N   UNL     1      -0.911   2.449  -2.750  0.00  0.00    -0.263 NA
ATOM     10  C   UNL     1      -2.186   2.185  -2.543  0.00  0.00    +0.111 A 
ATOM     11  C   UNL     1      -2.983   3.060  -1.828  0.00  0.00    +0.020 A 
ATOM     12  C   UNL     1      -2.423   4.223  -1.323  0.00  0.00    +0.008 A 
ENDBRANCH   3   7
TORSDOF 1
ENDMDL
MODEL 3
REMARK VINA RESULT:    -3.560      1.533      4.537
REMARK INTER + INTRA:          -3.991
REMARK INTER:                  -3.742
REMARK INTRA:                  -0.249
REMARK UNBOUND:                -0.222
REMARK  Name = Nicotine.pdb
REMARK  2 active torsions:
REMARK  status: ('A' for Active; 'I' for Inactive)
REMARK    1  A    between atoms: C_3  and  C_6
REMARK    2  A    between atoms: N_4  and  C_12
REMARK                            x       y       z     vdW  Elec       q    Type
REMARK                         _______ _______ _______ _____ _____    ______ ____
ROOT
ATOM      1  C   UNL     1      -2.490   1.818  -2.820  0.00  0.00    +0.017 C 
ATOM      2  C   UNL     1      -1.047   2.272  -2.473  0.00  0.00    +0.025 C 
ATOM      3  C   UNL     1      -1.204   2.879  -1.062  0.00  0.00    +0.088 C 
ATOM      4  N   UNL     1      -2.620   3.255  -0.903  0.00  0.00    -0.298 NA
ATOM      5  C   UNL     1      -3.337   2.933  -2.156  0.00  0.00    +0.085 C 
ATOM      6  C   UNL     1      -3.224   2.562   0.242  0.00  0.00    +0.105 C 
ENDROOT
BRANCH   3   7
ATOM      7  C   UNL     1      -0.330   4.099  -0.929  0.00  0.00    -0.012 A 
ATOM      8  C   UNL     1      -0.182   4.723   0.295  0.00  0.00    +0.115 A 
ATOM      9  N   UNL     1       0.581   5.791   0.421  0.00  0.00    -0.263 NA
ATOM     10  C   UNL     1       1.229   6.304  -0.606  0.00  0.00    +0.111 A 
ATOM     11  C   UNL     1       1.130   5.734  -1.862  0.00  0.00    +0.020 A 
ATOM     12  C   UNL     1       0.341   4.607  -2.031  0.00  0.00    +0.008 A 
ENDBRANCH   3   7
TORSDOF 1
ENDMDL
MODEL 4
REMARK VINA RESULT:    -3.513      1.878      3.014
REMARK INTER + INTRA:          -3.940
REMARK INTER:                  -3.695
REMARK INTRA:                  -0.245
REMARK UNBOUND:                -0.222
REMARK  Name = Nicotine.pdb
REMARK  2 active torsions:
REMARK  status: ('A' for Active; 'I' for Inactive)
REMARK    1  A    between atoms: C_3  and  C_6
REMARK    2  A    between atoms: N_4  and  C_12
REMARK                            x       y       z     vdW  Elec       q    Type
REMARK                         _______ _______ _______ _____ _____    ______ ____
ROOT
ATOM      1  C   UNL     1      -0.049   6.000   0.945  0.00  0.00    +0.017 C 
ATOM      2  C   UNL     1      -0.520   4.541   0.713  0.00  0.00    +0.025 C 
ATOM      3  C   UNL     1      -0.154   4.289  -0.766  0.00  0.00    +0.088 C 
ATOM      4  N   UNL     1      -0.052   5.605  -1.421  0.00  0.00    -0.298 NA
ATOM      5  C   UNL     1      -0.363   6.653  -0.425  0.00  0.00    +0.085 C 
ATOM      6  C   UNL     1       1.284   5.805  -1.997  0.00  0.00    +0.105 C 
ENDROOT
BRANCH   3   7
ATOM      7  C   UNL     1      -1.229   3.467  -1.427  0.00  0.00    -0.012 A 
ATOM      8  C   UNL     1      -0.893   2.432  -2.280  0.00  0.00    +0.115 A 
ATOM      9  N   UNL     1      -1.828   1.708  -2.863  0.00  0.00    -0.263 NA
ATOM     10  C   UNL     1      -3.110   1.938  -2.660  0.00  0.00    +0.111 A 
ATOM     11  C   UNL     1      -3.522   2.956  -1.820  0.00  0.00    +0.020 A 
ATOM     12  C   UNL     1      -2.568   3.735  -1.185  0.00  0.00    +0.008 A 
ENDBRANCH   3   7
TORSDOF 1
ENDMDL
MODEL 5
REMARK VINA RESULT:    -3.423      2.384      3.255
REMARK INTER + INTRA:          -3.845
REMARK INTER:                  -3.590
REMARK INTRA:                  -0.256
REMARK UNBOUND:                -0.222
REMARK  Name = Nicotine.pdb
REMARK  2 active torsions:
REMARK  status: ('A' for Active; 'I' for Inactive)
REMARK    1  A    between atoms: C_3  and  C_6
REMARK    2  A    between atoms: N_4  and  C_12
REMARK                            x       y       z     vdW  Elec       q    Type
REMARK                         _______ _______ _______ _____ _____    ______ ____
ROOT
ATOM      1  C   UNL     1      -3.212   6.961   1.034  0.00  0.00    +0.017 C 
ATOM      2  C   UNL     1      -2.610   6.837  -0.391  0.00  0.00    +0.025 C 
ATOM      3  C   UNL     1      -2.543   5.310  -0.608  0.00  0.00    +0.088 C 
ATOM      4  N   UNL     1      -2.538   4.679   0.724  0.00  0.00    -0.298 NA
ATOM      5  C   UNL     1      -2.574   5.744   1.750  0.00  0.00    +0.085 C 
ATOM      6  C   UNL     1      -3.675   3.762   0.877  0.00  0.00    +0.105 C 
ENDROOT
BRANCH   3   7
ATOM      7  C   UNL     1      -1.281   4.953  -1.350  0.00  0.00    -0.012 A 
ATOM      8  C   UNL     1      -1.224   3.807  -2.120  0.00  0.00    +0.115 A 
ATOM      9  N   UNL     1      -0.124   3.487  -2.773  0.00  0.00    -0.263 NA
ATOM     10  C   UNL     1       0.957   4.239  -2.719  0.00  0.00    +0.111 A 
ATOM     11  C   UNL     1       0.975   5.401  -1.970  0.00  0.00    +0.020 A 
ATOM     12  C   UNL     1      -0.165   5.772  -1.274  0.00  0.00    +0.008 A 
ENDBRANCH   3   7
TORSDOF 1
ENDMDL
MODEL 6
REMARK VINA RESULT:    -3.310      1.680      4.377
REMARK INTER + INTRA:          -3.726
REMARK INTER:                  -3.511
REMARK INTRA:                  -0.215
REMARK UNBOUND:                -0.222
REMARK  Name = Nicotine.pdb
REMARK  2 active torsions:
REMARK  status: ('A' for Active; 'I' for Inactive)
REMARK    1  A    between atoms: C_3  and  C_6
REMARK    2  A    between atoms: N_4  and  C_12
REMARK                            x       y       z     vdW  Elec       q    Type
REMARK                         _______ _______ _______ _____ _____    ______ ____
ROOT
ATOM      1  C   UNL     1      -1.456   6.032  -1.216  0.00  0.00    +0.017 C 
ATOM      2  C   UNL     1      -0.738   6.530   0.066  0.00  0.00    +0.025 C 
ATOM      3  C   UNL     1       0.735   6.145  -0.190  0.00  0.00    +0.088 C 
ATOM      4  N   UNL     1       0.736   5.059  -1.186  0.00  0.00    -0.298 NA
ATOM      5  C   UNL     1      -0.664   4.740  -1.537  0.00  0.00    +0.085 C 
ATOM      6  C   UNL     1       1.505   5.439  -2.379  0.00  0.00    +0.105 C 
ENDROOT
BRANCH   3   7
ATOM      7  C   UNL     1       1.370   5.669   1.091  0.00  0.00    -0.012 A 
ATOM      8  C   UNL     1       0.596   5.104   2.087  0.00  0.00    +0.115 A 
ATOM      9  N   UNL     1       1.144   4.684   3.211  0.00  0.00    -0.263 NA
ATOM     10  C   UNL     1       2.440   4.785   3.430  0.00  0.00    +0.111 A 
ATOM     11  C   UNL     1       3.277   5.339   2.479  0.00  0.00    +0.020 A 
ATOM     12  C   UNL     1       2.738   5.787   1.283  0.00  0.00    +0.008 A 
ENDBRANCH   3   7
TORSDOF 1
ENDMDL
MODEL 7
REMARK VINA RESULT:    -3.124      1.944      4.476
REMARK INTER + INTRA:          -3.529
REMARK INTER:                  -3.316
REMARK INTRA:                  -0.214
REMARK UNBOUND:                -0.222
REMARK  Name = Nicotine.pdb
REMARK  2 active torsions:
REMARK  status: ('A' for Active; 'I' for Inactive)
REMARK    1  A    between atoms: C_3  and  C_6
REMARK    2  A    between atoms: N_4  and  C_12
REMARK                            x       y       z     vdW  Elec       q    Type
REMARK                         _______ _______ _______ _____ _____    ______ ____
ROOT
ATOM      1  C   UNL     1      -4.277   3.776   0.095  0.00  0.00    +0.017 C 
ATOM      2  C   UNL     1      -3.293   4.963  -0.081  0.00  0.00    +0.025 C 
ATOM      3  C   UNL     1      -2.382   4.491  -1.234  0.00  0.00    +0.088 C 
ATOM      4  N   UNL     1      -2.463   3.020  -1.280  0.00  0.00    -0.298 NA
ATOM      5  C   UNL     1      -3.358   2.563  -0.196  0.00  0.00    +0.085 C 
ATOM      6  C   UNL     1      -2.942   2.558  -2.589  0.00  0.00    +0.105 C 
ENDROOT
BRANCH   3   7
ATOM      7  C   UNL     1      -0.962   4.920  -0.974  0.00  0.00    -0.012 A 
ATOM      8  C   UNL     1      -0.486   5.014   0.320  0.00  0.00    +0.115 A 
ATOM      9  N   UNL     1       0.756   5.389   0.557  0.00  0.00    -0.263 NA
ATOM     10  C   UNL     1       1.589   5.687  -0.421  0.00  0.00    +0.111 A 
ATOM     11  C   UNL     1       1.184   5.615  -1.741  0.00  0.00    +0.020 A 
ATOM     12  C   UNL     1      -0.113   5.220  -2.029  0.00  0.00    +0.008 A 
ENDBRANCH   3   7
TORSDOF 1
ENDMDL
MODEL 8
REMARK VINA RESULT:    -3.034      2.653      3.862
REMARK INTER + INTRA:          -3.433
REMARK INTER:                  -3.205
REMARK INTRA:                  -0.228
REMARK UNBOUND:                -0.222
REMARK  Name = Nicotine.pdb
REMARK  2 active torsions:
REMARK  status: ('A' for Active; 'I' for Inactive)
REMARK    1  A    between atoms: C_3  and  C_6
REMARK    2  A    between atoms: N_4  and  C_12
REMARK                            x       y       z     vdW  Elec       q    Type
REMARK                         _______ _______ _______ _____ _____    ______ ____
ROOT
ATOM      1  C   UNL     1       1.561   5.777  -0.516  0.00  0.00    +0.017 C 
ATOM      2  C   UNL     1       0.343   5.638   0.436  0.00  0.00    +0.025 C 
ATOM      3  C   UNL     1      -0.648   4.790  -0.390  0.00  0.00    +0.088 C 
ATOM      4  N   UNL     1      -0.283   4.950  -1.809  0.00  0.00    -0.298 NA
ATOM      5  C   UNL     1       0.868   5.874  -1.898  0.00  0.00    +0.085 C 
ATOM      6  C   UNL     1       0.034   3.653  -2.421  0.00  0.00    +0.105 C 
ENDROOT
BRANCH   3   7
ATOM      7  C   UNL     1      -2.054   5.280  -0.162  0.00  0.00    -0.012 A 
ATOM      8  C   UNL     1      -3.045   4.401   0.235  0.00  0.00    +0.115 A 
ATOM      9  N   UNL     1      -4.278   4.821   0.436  0.00  0.00    -0.263 NA
ATOM     10  C   UNL     1      -4.616   6.085   0.268  0.00  0.00    +0.111 A 
ATOM     11  C   UNL     1      -3.680   7.021  -0.127  0.00  0.00    +0.020 A 
ATOM     12  C   UNL     1      -2.371   6.617  -0.343  0.00  0.00    +0.008 A 
ENDBRANCH   3   7
TORSDOF 1
ENDMDL
MODEL 9
REMARK VINA RESULT:    -2.980      2.004      3.152
REMARK INTER + INTRA:          -3.376
REMARK INTER:                  -3.164
REMARK INTRA:                  -0.212
REMARK UNBOUND:                -0.222
REMARK  Name = Nicotine.pdb
REMARK  2 active torsions:
REMARK  status: ('A' for Active; 'I' for Inactive)
REMARK    1  A    between atoms: C_3  and  C_6
REMARK    2  A    between atoms: N_4  and  C_12
REMARK                            x       y       z     vdW  Elec       q    Type
REMARK                         _______ _______ _______ _____ _____    ______ ____
ROOT
ATOM      1  C   UNL     1      -2.691   3.743   2.024  0.00  0.00    +0.017 C 
ATOM      2  C   UNL     1      -1.311   3.444   1.381  0.00  0.00    +0.025 C 
ATOM      3  C   UNL     1      -0.921   4.797   0.750  0.00  0.00    +0.088 C 
ATOM      4  N   UNL     1      -2.166   5.560   0.549  0.00  0.00    -0.298 NA
ATOM      5  C   UNL     1      -3.304   4.732   1.002  0.00  0.00    +0.085 C 
ATOM      6  C   UNL     1      -2.124   6.838   1.271  0.00  0.00    +0.105 C 
ENDROOT
BRANCH   3   7
ATOM      7  C   UNL     1      -0.240   4.568  -0.574  0.00  0.00    -0.012 A 
ATOM      8  C   UNL     1      -0.643   3.534  -1.398  0.00  0.00    +0.115 A 
ATOM      9  N   UNL     1      -0.052   3.327  -2.559  0.00  0.00    -0.263 NA
ATOM     10  C   UNL     1       0.940   4.089  -2.977  0.00  0.00    +0.111 A 
ATOM     11  C   UNL     1       1.397   5.142  -2.207  0.00  0.00    +0.020 A 
ATOM     12  C   UNL     1       0.796   5.394  -0.984  0.00  0.00    +0.008 A 
ENDBRANCH   3   7
TORSDOF 1
ENDMDL
MODEL 10
REMARK VINA RESULT:    -2.955      2.378      3.233
REMARK INTER + INTRA:          -3.349
REMARK INTER:                  -3.139
REMARK INTRA:                  -0.211
REMARK UNBOUND:                -0.222
REMARK  Name = Nicotine.pdb
REMARK  2 active torsions:
REMARK  status: ('A' for Active; 'I' for Inactive)
REMARK    1  A    between atoms: C_3  and  C_6
REMARK    2  A    between atoms: N_4  and  C_12
REMARK                            x       y       z     vdW  Elec       q    Type
REMARK                         _______ _______ _______ _____ _____    ______ ____
ROOT
ATOM      1  C   UNL     1      -1.847   6.684   2.724  0.00  0.00    +0.017 C 
ATOM      2  C   UNL     1      -0.695   6.737   1.685  0.00  0.00    +0.025 C 
ATOM      3  C   UNL     1      -1.443   6.695   0.336  0.00  0.00    +0.088 C 
ATOM      4  N   UNL     1      -2.766   6.096   0.587  0.00  0.00    -0.298 NA
ATOM      5  C   UNL     1      -2.859   5.745   2.020  0.00  0.00    +0.085 C 
ATOM      6  C   UNL     1      -3.843   7.016   0.199  0.00  0.00    +0.105 C 
ENDROOT
BRANCH   3   7
ATOM      7  C   UNL     1      -0.676   5.852  -0.649  0.00  0.00    -0.012 A 
ATOM      8  C   UNL     1       0.646   6.139  -0.935  0.00  0.00    +0.115 A 
ATOM      9  N   UNL     1       1.324   5.405  -1.796  0.00  0.00    -0.263 NA
ATOM     10  C   UNL     1       0.777   4.378  -2.414  0.00  0.00    +0.111 A 
ATOM     11  C   UNL     1      -0.540   4.030  -2.179  0.00  0.00    +0.020 A 
ATOM     12  C   UNL     1      -1.284   4.775  -1.276  0.00  0.00    +0.008 A 
ENDBRANCH   3   7
TORSDOF 1
ENDMDL
