MODEL 1
REMARK VINA RESULT:    -4.615      0.000      0.000
REMARK INTER + INTRA:          -5.139
REMARK INTER:                  -4.885
REMARK INTRA:                  -0.254
REMARK UNBOUND:                -0.254
REMARK  Name = Nicotine.pdb
REMARK  2 active torsions:
REMARK  status: ('A' for Active; 'I' for Inactive)
REMARK    1  A    between atoms: C_3  and  C_6
REMARK    2  A    between atoms: N_4  and  C_12
REMARK                            x       y       z     vdW  Elec       q    Type
REMARK                         _______ _______ _______ _____ _____    ______ ____
ROOT
ATOM      1  C   UNL     1       5.956  -5.024   2.836  0.00  0.00    +0.017 C 
ATOM      2  C   UNL     1       4.629  -4.222   2.881  0.00  0.00    +0.025 C 
ATOM      3  C   UNL     1       4.670  -3.562   4.276  0.00  0.00    +0.088 C 
ATOM      4  N   UNL     1       5.585  -4.361   5.111  0.00  0.00    -0.298 NA
ATOM      5  C   UNL     1       6.088  -5.494   4.306  0.00  0.00    +0.085 C 
ATOM      6  C   UNL     1       6.692  -3.539   5.615  0.00  0.00    +0.105 C 
ENDROOT
BRANCH   3   7
ATOM      7  C   UNL     1       3.291  -3.559   4.883  0.00  0.00    -0.012 A 
ATOM      8  C   UNL     1       2.892  -2.525   5.709  0.00  0.00    +0.115 A 
ATOM      9  N   UNL     1       1.687  -2.515   6.244  0.00  0.00    -0.263 NA
ATOM     10  C   UNL     1       0.819  -3.481   6.016  0.00  0.00    +0.111 A 
ATOM     11  C   UNL     1       1.146  -4.547   5.200  0.00  0.00    +0.020 A 
ATOM     12  C   UNL     1       2.403  -4.590   4.615  0.00  0.00    +0.008 A 
ENDBRANCH   3   7
TORSDOF 1
ENDMDL
MODEL 2
REMARK VINA RESULT:    -4.196      1.648      4.793
REMARK INTER + INTRA:          -4.695
REMARK INTER:                  -4.479
REMARK INTRA:                  -0.216
REMARK UNBOUND:                -0.254
REMARK  Name = Nicotine.pdb
REMARK  2 active torsions:
REMARK  status: ('A' for Active; 'I' for Inactive)
REMARK    1  A    between atoms: C_3  and  C_6
REMARK    2  A    between atoms: N_4  and  C_12
REMARK                            x       y       z     vdW  Elec       q    Type
REMARK                         _______ _______ _______ _____ _____    ______ ____
ROOT
ATOM      1  C   UNL     1       4.132  -2.386   6.079  0.00  0.00    +0.017 C 
ATOM      2  C   UNL     1       5.186  -2.470   4.943  0.00  0.00    +0.025 C 
ATOM      3  C   UNL     1       4.634  -3.594   4.041  0.00  0.00    +0.088 C 
ATOM      4  N   UNL     1       3.737  -4.419   4.870  0.00  0.00    -0.298 NA
ATOM      5  C   UNL     1       3.730  -3.873   6.244  0.00  0.00    +0.085 C 
ATOM      6  C   UNL     1       2.380  -4.450   4.308  0.00  0.00    +0.105 C 
ENDROOT
BRANCH   3   7
ATOM      7  C   UNL     1       5.769  -4.436   3.518  0.00  0.00    -0.012 A 
ATOM      8  C   UNL     1       6.997  -4.424   4.151  0.00  0.00    +0.115 A 
ATOM      9  N   UNL     1       7.996  -5.158   3.700  0.00  0.00    -0.263 NA
ATOM     10  C   UNL     1       7.866  -5.925   2.635  0.00  0.00    +0.111 A 
ATOM     11  C   UNL     1       6.667  -5.989   1.950  0.00  0.00    +0.020 A 
ATOM     12  C   UNL     1       5.593  -5.235   2.399  0.00  0.00    +0.008 A 
ENDBRANCH   3   7
TORSDOF 1
ENDMDL
MODEL 3
REMARK VINA RESULT:    -4.182      1.305      1.898
REMARK INTER + INTRA:          -4.681
REMARK INTER:                  -4.472
REMARK INTRA:                  -0.209
REMARK UNBOUND:                -0.254
REMARK  Name = Nicotine.pdb
REMARK  2 active torsions:
REMARK  status: ('A' for Active; 'I' for Inactive)
REMARK    1  A    between atoms: C_3  and  C_6
REMARK    2  A    between atoms: N_4  and  C_12
REMARK                            x       y       z     vdW  Elec       q    Type
REMARK                         _______ _______ _______ _____ _____    ______ ____
ROOT
ATOM      1  C   UNL     1       6.539  -5.936   2.443  0.00  0.00    +0.017 C 
ATOM      2  C   UNL     1       5.326  -4.972   2.523  0.00  0.00    +0.025 C 
ATOM      3  C   UNL     1       5.718  -4.015   3.669  0.00  0.00    +0.088 C 
ATOM      4  N   UNL     1       6.715  -4.714   4.499  0.00  0.00    -0.298 NA
ATOM      5  C   UNL     1       6.937  -6.062   3.935  0.00  0.00    +0.085 C 
ATOM      6  C   UNL     1       7.972  -3.956   4.563  0.00  0.00    +0.105 C 
ENDROOT
BRANCH   3   7
ATOM      7  C   UNL     1       4.504  -3.681   4.496  0.00  0.00    -0.012 A 
ATOM      8  C   UNL     1       3.298  -4.313   4.255  0.00  0.00    +0.115 A 
ATOM      9  N   UNL     1       2.230  -4.026   4.974  0.00  0.00    -0.263 NA
ATOM     10  C   UNL     1       2.267  -3.135   5.944  0.00  0.00    +0.111 A 
ATOM     11  C   UNL     1       3.438  -2.463   6.244  0.00  0.00    +0.020 A 
ATOM     12  C   UNL     1       4.582  -2.742   5.512  0.00  0.00    +0.008 A 
ENDBRANCH   3   7
TORSDOF 1
ENDMDL
MODEL 4
REMARK VINA RESULT:    -3.952      2.707      5.797
REMARK INTER + INTRA:          -4.437
REMARK INTER:                  -4.237
REMARK INTRA:                  -0.200
REMARK UNBOUND:                -0.254
REMARK  Name = Nicotine.pdb
REMARK  2 active torsions:
REMARK  status: ('A' for Active; 'I' for Inactive)
REMARK    1  A    between atoms: C_3  and  C_6
REMARK    2  A    between atoms: N_4  and  C_12
REMARK                            x       y       z     vdW  Elec       q    Type
REMARK                         _______ _______ _______ _____ _____    ______ ____
ROOT
ATOM      1  C   UNL     1       4.637  -4.200   2.840  0.00  0.00    +0.017 C 
ATOM      2  C   UNL     1       5.680  -5.349   2.859  0.00  0.00    +0.025 C 
ATOM      3  C   UNL     1       6.327  -5.208   4.253  0.00  0.00    +0.088 C 
ATOM      4  N   UNL     1       6.105  -3.821   4.699  0.00  0.00    -0.298 NA
ATOM      5  C   UNL     1       5.375  -3.096   3.638  0.00  0.00    +0.085 C 
ATOM      6  C   UNL     1       5.363  -3.788   5.966  0.00  0.00    +0.105 C 
ENDROOT
BRANCH   3   7
ATOM      7  C   UNL     1       7.805  -5.488   4.162  0.00  0.00    -0.012 A 
ATOM      8  C   UNL     1       8.376  -5.850   2.957  0.00  0.00    +0.115 A 
ATOM      9  N   UNL     1       9.668  -6.097   2.869  0.00  0.00    -0.263 NA
ATOM     10  C   UNL     1      10.463  -6.010   3.917  0.00  0.00    +0.111 A 
ATOM     11  C   UNL     1       9.964  -5.652   5.156  0.00  0.00    +0.020 A 
ATOM     12  C   UNL     1       8.611  -5.380   5.285  0.00  0.00    +0.008 A 
ENDBRANCH   3   7
TORSDOF 1
ENDMDL
MODEL 5
REMARK VINA RESULT:    -3.893      2.537      5.568
REMARK INTER + INTRA:          -4.374
REMARK INTER:                  -4.158
REMARK INTRA:                  -0.216
REMARK UNBOUND:                -0.254
REMARK  Name = Nicotine.pdb
REMARK  2 active torsions:
REMARK  status: ('A' for Active; 'I' for Inactive)
REMARK    1  A    between atoms: C_3  and  C_6
REMARK    2  A    between atoms: N_4  and  C_12
REMARK                            x       y       z     vdW  Elec       q    Type
REMARK                         _______ _______ _______ _____ _____    ______ ____
ROOT
ATOM      1  C   UNL     1       4.587  -4.179   2.756  0.00  0.00    +0.017 C 
ATOM      2  C   UNL     1       5.724  -5.232   2.684  0.00  0.00    +0.025 C 
ATOM      3  C   UNL     1       6.159  -5.374   4.158  0.00  0.00    +0.088 C 
ATOM      4  N   UNL     1       5.744  -4.144   4.857  0.00  0.00    -0.298 NA
ATOM      5  C   UNL     1       5.098  -3.242   3.880  0.00  0.00    +0.085 C 
ATOM      6  C   UNL     1       4.837  -4.451   5.971  0.00  0.00    +0.105 C 
ENDROOT
BRANCH   3   7
ATOM      7  C   UNL     1       7.656  -5.530   4.238  0.00  0.00    -0.012 A 
ATOM      8  C   UNL     1       8.327  -5.239   5.410  0.00  0.00    +0.115 A 
ATOM      9  N   UNL     1       9.637  -5.374   5.489  0.00  0.00    -0.263 NA
ATOM     10  C   UNL     1      10.354  -5.787   4.462  0.00  0.00    +0.111 A 
ATOM     11  C   UNL     1       9.751  -6.097   3.257  0.00  0.00    +0.020 A 
ATOM     12  C   UNL     1       8.376  -5.973   3.139  0.00  0.00    +0.008 A 
ENDBRANCH   3   7
TORSDOF 1
ENDMDL
MODEL 6
REMARK VINA RESULT:    -3.582      2.127      5.432
REMARK INTER + INTRA:          -4.045
REMARK INTER:                  -3.825
REMARK INTRA:                  -0.220
REMARK UNBOUND:                -0.254
REMARK  Name = Nicotine.pdb
REMARK  2 active torsions:
REMARK  status: ('A' for Active; 'I' for Inactive)
REMARK    1  A    between atoms: C_3  and  C_6
REMARK    2  A    between atoms: N_4  and  C_12
REMARK                            x       y       z     vdW  Elec       q    Type
REMARK                         _______ _______ _______ _____ _____    ______ ____
ROOT
ATOM      1  C   UNL     1       3.985  -2.908   5.526  0.00  0.00    +0.017 C 
ATOM      2  C   UNL     1       5.510  -2.647   5.642  0.00  0.00    +0.025 C 
ATOM      3  C   UNL     1       6.085  -3.401   4.424  0.00  0.00    +0.088 C 
ATOM      4  N   UNL     1       5.098  -4.427   4.040  0.00  0.00    -0.298 NA
ATOM      5  C   UNL     1       3.956  -4.357   4.977  0.00  0.00    +0.085 C 
ATOM      6  C   UNL     1       4.654  -4.237   2.653  0.00  0.00    +0.105 C 
ENDROOT
BRANCH   3   7
ATOM      7  C   UNL     1       7.389  -4.057   4.797  0.00  0.00    -0.012 A 
ATOM      8  C   UNL     1       7.923  -5.053   4.001  0.00  0.00    +0.115 A 
ATOM      9  N   UNL     1       9.064  -5.632   4.320  0.00  0.00    -0.263 NA
ATOM     10  C   UNL     1       9.737  -5.289   5.400  0.00  0.00    +0.111 A 
ATOM     11  C   UNL     1       9.266  -4.300   6.244  0.00  0.00    +0.020 A 
ATOM     12  C   UNL     1       8.072  -3.665   5.938  0.00  0.00    +0.008 A 
ENDBRANCH   3   7
TORSDOF 1
ENDMDL
MODEL 7
REMARK VINA RESULT:    -3.204      2.681      5.408
REMARK INTER + INTRA:          -3.645
REMARK INTER:                  -3.460
REMARK INTRA:                  -0.184
REMARK UNBOUND:                -0.254
REMARK  Name = Nicotine.pdb
REMARK  2 active torsions:
REMARK  status: ('A' for Active; 'I' for Inactive)
REMARK    1  A    between atoms: C_3  and  C_6
REMARK    2  A    between atoms: N_4  and  C_12
REMARK                            x       y       z     vdW  Elec       q    Type
REMARK                         _______ _______ _______ _____ _____    ______ ____
ROOT
ATOM      1  C   UNL     1       4.445  -3.302   3.994  0.00  0.00    +0.017 C 
ATOM      2  C   UNL     1       5.904  -2.910   4.348  0.00  0.00    +0.025 C 
ATOM      3  C   UNL     1       6.733  -4.040   3.701  0.00  0.00    +0.088 C 
ATOM      4  N   UNL     1       5.838  -5.200   3.537  0.00  0.00    -0.298 NA
ATOM      5  C   UNL     1       4.507  -4.847   4.075  0.00  0.00    +0.085 C 
ATOM      6  C   UNL     1       5.748  -5.601   2.128  0.00  0.00    +0.105 C 
ENDROOT
BRANCH   3   7
ATOM      7  C   UNL     1       7.889  -4.404   4.596  0.00  0.00    -0.012 A 
ATOM      8  C   UNL     1       8.429  -3.468   5.457  0.00  0.00    +0.115 A 
ATOM      9  N   UNL     1       9.441  -3.779   6.244  0.00  0.00    -0.263 NA
ATOM     10  C   UNL     1       9.975  -4.984   6.242  0.00  0.00    +0.111 A 
ATOM     11  C   UNL     1       9.488  -5.973   5.407  0.00  0.00    +0.020 A 
ATOM     12  C   UNL     1       8.422  -5.684   4.570  0.00  0.00    +0.008 A 
ENDBRANCH   3   7
TORSDOF 1
ENDMDL
MODEL 8
REMARK VINA RESULT:    -2.610      1.414      2.220
REMARK INTER + INTRA:          -3.017
REMARK INTER:                  -2.763
REMARK INTRA:                  -0.253
REMARK UNBOUND:                -0.254
REMARK  Name = Nicotine.pdb
REMARK  2 active torsions:
REMARK  status: ('A' for Active; 'I' for Inactive)
REMARK    1  A    between atoms: C_3  and  C_6
REMARK    2  A    between atoms: N_4  and  C_12
REMARK                            x       y       z     vdW  Elec       q    Type
REMARK                         _______ _______ _______ _____ _____    ______ ____
ROOT
ATOM      1  C   UNL     1       7.314  -2.987   4.733  0.00  0.00    +0.017 C 
ATOM      2  C   UNL     1       6.123  -2.906   5.724  0.00  0.00    +0.025 C 
ATOM      3  C   UNL     1       5.436  -4.277   5.552  0.00  0.00    +0.088 C 
ATOM      4  N   UNL     1       5.826  -4.799   4.230  0.00  0.00    -0.298 NA
ATOM      5  C   UNL     1       6.699  -3.805   3.570  0.00  0.00    +0.085 C 
ATOM      6  C   UNL     1       6.504  -6.096   4.355  0.00  0.00    +0.105 C 
ENDROOT
BRANCH   3   7
ATOM      7  C   UNL     1       3.939  -4.112   5.618  0.00  0.00    -0.012 A 
ATOM      8  C   UNL     1       3.152  -5.098   6.182  0.00  0.00    +0.115 A 
ATOM      9  N   UNL     1       1.841  -4.961   6.244  0.00  0.00    -0.263 NA
ATOM     10  C   UNL     1       1.233  -3.890   5.775  0.00  0.00    +0.111 A 
ATOM     11  C   UNL     1       1.956  -2.862   5.198  0.00  0.00    +0.020 A 
ATOM     12  C   UNL     1       3.336  -2.968   5.120  0.00  0.00    +0.008 A 
ENDBRANCH   3   7
TORSDOF 1
ENDMDL
MODEL 9
REMARK VINA RESULT:    -2.078      2.153      3.192
REMARK INTER + INTRA:          -2.453
REMARK INTER:                  -2.197
REMARK INTRA:                  -0.256
REMARK UNBOUND:                -0.254
REMARK  Name = Nicotine.pdb
REMARK  2 active torsions:
REMARK  status: ('A' for Active; 'I' for Inactive)
REMARK    1  A    between atoms: C_3  and  C_6
REMARK    2  A    between atoms: N_4  and  C_12
REMARK                            x       y       z     vdW  Elec       q    Type
REMARK                         _______ _______ _______ _____ _____    ______ ____
ROOT
ATOM      1  C   UNL     1       9.448  -4.370   4.116  0.00  0.00    +0.017 C 
ATOM      2  C   UNL     1       8.390  -3.254   4.323  0.00  0.00    +0.025 C 
ATOM      3  C   UNL     1       7.315  -3.952   5.184  0.00  0.00    +0.088 C 
ATOM      4  N   UNL     1       7.461  -5.404   4.973  0.00  0.00    -0.298 NA
ATOM      5  C   UNL     1       8.556  -5.631   4.007  0.00  0.00    +0.085 C 
ATOM      6  C   UNL     1       7.724  -6.096   6.241  0.00  0.00    +0.105 C 
ENDROOT
BRANCH   3   7
ATOM      7  C   UNL     1       5.943  -3.505   4.751  0.00  0.00    -0.012 A 
ATOM      8  C   UNL     1       4.850  -3.708   5.572  0.00  0.00    +0.115 A 
ATOM      9  N   UNL     1       3.645  -3.320   5.201  0.00  0.00    -0.263 NA
ATOM     10  C   UNL     1       3.434  -2.729   4.042  0.00  0.00    +0.111 A 
ATOM     11  C   UNL     1       4.479  -2.492   3.167  0.00  0.00    +0.020 A 
ATOM     12  C   UNL     1       5.760  -2.881   3.526  0.00  0.00    +0.008 A 
ENDBRANCH   3   7
TORSDOF 1
ENDMDL
