MODEL 1
REMARK VINA RESULT:    -3.991      0.000      0.000
REMARK INTER + INTRA:          -4.439
REMARK INTER:                  -4.224
REMARK INTRA:                  -0.215
REMARK UNBOUND:                -0.215
REMARK  Name = Nicotine.pdb
REMARK  2 active torsions:
REMARK  status: ('A' for Active; 'I' for Inactive)
REMARK    1  A    between atoms: C_3  and  C_6
REMARK    2  A    between atoms: N_4  and  C_12
REMARK                            x       y       z     vdW  Elec       q    Type
REMARK                         _______ _______ _______ _____ _____    ______ ____
ROOT
ATOM      1  C   UNL     1       6.783  -0.898  -2.116  0.00  0.00    +0.017 C 
ATOM      2  C   UNL     1       6.355  -0.708  -0.637  0.00  0.00    +0.025 C 
ATOM      3  C   UNL     1       7.432   0.250  -0.085  0.00  0.00    +0.088 C 
ATOM      4  N   UNL     1       8.615   0.126  -0.955  0.00  0.00    -0.298 NA
ATOM      5  C   UNL     1       8.327  -0.879  -2.000  0.00  0.00    +0.085 C 
ATOM      6  C   UNL     1       8.968   1.421  -1.552  0.00  0.00    +0.105 C 
ENDROOT
BRANCH   3   7
ATOM      7  C   UNL     1       7.789  -0.139   1.326  0.00  0.00    -0.012 A 
ATOM      8  C   UNL     1       9.062   0.091   1.814  0.00  0.00    +0.115 A 
ATOM      9  N   UNL     1       9.383  -0.246   3.048  0.00  0.00    -0.263 NA
ATOM     10  C   UNL     1       8.512  -0.812   3.860  0.00  0.00    +0.111 A 
ATOM     11  C   UNL     1       7.221  -1.073   3.443  0.00  0.00    +0.020 A 
ATOM     12  C   UNL     1       6.845  -0.727   2.154  0.00  0.00    +0.008 A 
ENDBRANCH   3   7
TORSDOF 1
ENDMDL
MODEL 2
REMARK VINA RESULT:    -3.773      4.794      6.793
REMARK INTER + INTRA:          -4.209
REMARK INTER:                  -4.027
REMARK INTRA:                  -0.182
REMARK UNBOUND:                -0.215
REMARK  Name = Nicotine.pdb
REMARK  2 active torsions:
REMARK  status: ('A' for Active; 'I' for Inactive)
REMARK    1  A    between atoms: C_3  and  C_6
REMARK    2  A    between atoms: N_4  and  C_12
REMARK                            x       y       z     vdW  Elec       q    Type
REMARK                         _______ _______ _______ _____ _____    ______ ____
ROOT
ATOM      1  C   UNL     1       3.064   3.123  -5.915  0.00  0.00    +0.017 C 
ATOM      2  C   UNL     1       3.651   2.443  -4.650  0.00  0.00    +0.025 C 
ATOM      3  C   UNL     1       5.167   2.426  -4.938  0.00  0.00    +0.088 C 
ATOM      4  N   UNL     1       5.336   2.526  -6.399  0.00  0.00    -0.298 NA
ATOM      5  C   UNL     1       3.998   2.579  -7.025  0.00  0.00    +0.085 C 
ATOM      6  C   UNL     1       6.133   3.707  -6.757  0.00  0.00    +0.105 C 
ENDROOT
BRANCH   3   7
ATOM      7  C   UNL     1       5.769   1.138  -4.438  0.00  0.00    -0.012 A 
ATOM      8  C   UNL     1       5.905   0.055  -5.285  0.00  0.00    +0.115 A 
ATOM      9  N   UNL     1       6.431  -1.076  -4.856  0.00  0.00    -0.263 NA
ATOM     10  C   UNL     1       6.845  -1.219  -3.612  0.00  0.00    +0.111 A 
ATOM     11  C   UNL     1       6.742  -0.179  -2.707  0.00  0.00    +0.020 A 
ATOM     12  C   UNL     1       6.199   1.027  -3.124  0.00  0.00    +0.008 A 
ENDBRANCH   3   7
TORSDOF 1
ENDMDL
MODEL 3
REMARK VINA RESULT:    -3.704      2.123      5.252
REMARK INTER + INTRA:          -4.136
REMARK INTER:                  -3.924
REMARK INTRA:                  -0.212
REMARK UNBOUND:                -0.215
REMARK  Name = Nicotine.pdb
REMARK  2 active torsions:
REMARK  status: ('A' for Active; 'I' for Inactive)
REMARK    1  A    between atoms: C_3  and  C_6
REMARK    2  A    between atoms: N_4  and  C_12
REMARK                            x       y       z     vdW  Elec       q    Type
REMARK                         _______ _______ _______ _____ _____    ______ ____
ROOT
ATOM      1  C   UNL     1       7.014  -0.174   1.039  0.00  0.00    +0.017 C 
ATOM      2  C   UNL     1       6.280  -0.778  -0.187  0.00  0.00    +0.025 C 
ATOM      3  C   UNL     1       7.390  -0.847  -1.257  0.00  0.00    +0.088 C 
ATOM      4  N   UNL     1       8.425   0.132  -0.876  0.00  0.00    -0.298 NA
ATOM      5  C   UNL     1       7.993   0.816   0.361  0.00  0.00    +0.085 C 
ATOM      6  C   UNL     1       9.726  -0.523  -0.690  0.00  0.00    +0.105 C 
ENDROOT
BRANCH   3   7
ATOM      7  C   UNL     1       6.823  -0.496  -2.608  0.00  0.00    -0.012 A 
ATOM      8  C   UNL     1       6.843  -1.419  -3.636  0.00  0.00    +0.115 A 
ATOM      9  N   UNL     1       6.348  -1.120  -4.821  0.00  0.00    -0.263 NA
ATOM     10  C   UNL     1       5.819   0.061  -5.073  0.00  0.00    +0.111 A 
ATOM     11  C   UNL     1       5.763   1.035  -4.094  0.00  0.00    +0.020 A 
ATOM     12  C   UNL     1       6.269   0.755  -2.834  0.00  0.00    +0.008 A 
ENDBRANCH   3   7
TORSDOF 1
ENDMDL
MODEL 4
REMARK VINA RESULT:    -3.664      4.420      6.911
REMARK INTER + INTRA:          -4.093
REMARK INTER:                  -3.877
REMARK INTRA:                  -0.216
REMARK UNBOUND:                -0.215
REMARK  Name = Nicotine.pdb
REMARK  2 active torsions:
REMARK  status: ('A' for Active; 'I' for Inactive)
REMARK    1  A    between atoms: C_3  and  C_6
REMARK    2  A    between atoms: N_4  and  C_12
REMARK                            x       y       z     vdW  Elec       q    Type
REMARK                         _______ _______ _______ _____ _____    ______ ____
ROOT
ATOM      1  C   UNL     1       6.970  -2.137  -3.972  0.00  0.00    +0.017 C 
ATOM      2  C   UNL     1       6.166  -1.384  -5.065  0.00  0.00    +0.025 C 
ATOM      3  C   UNL     1       6.519   0.095  -4.798  0.00  0.00    +0.088 C 
ATOM      4  N   UNL     1       6.964   0.192  -3.397  0.00  0.00    -0.298 NA
ATOM      5  C   UNL     1       6.879  -1.150  -2.781  0.00  0.00    +0.085 C 
ATOM      6  C   UNL     1       8.331   0.724  -3.314  0.00  0.00    +0.105 C 
ENDROOT
BRANCH   3   7
ATOM      7  C   UNL     1       5.302   0.958  -5.012  0.00  0.00    -0.012 A 
ATOM      8  C   UNL     1       5.216   2.204  -4.418  0.00  0.00    +0.115 A 
ATOM      9  N   UNL     1       4.155   2.966  -4.600  0.00  0.00    -0.263 NA
ATOM     10  C   UNL     1       3.142   2.576  -5.348  0.00  0.00    +0.111 A 
ATOM     11  C   UNL     1       3.157   1.343  -5.974  0.00  0.00    +0.020 A 
ATOM     12  C   UNL     1       4.258   0.517  -5.810  0.00  0.00    +0.008 A 
ENDBRANCH   3   7
TORSDOF 1
ENDMDL
MODEL 5
REMARK VINA RESULT:    -3.654      2.401      3.533
REMARK INTER + INTRA:          -4.083
REMARK INTER:                  -3.865
REMARK INTRA:                  -0.218
REMARK UNBOUND:                -0.215
REMARK  Name = Nicotine.pdb
REMARK  2 active torsions:
REMARK  status: ('A' for Active; 'I' for Inactive)
REMARK    1  A    between atoms: C_3  and  C_6
REMARK    2  A    between atoms: N_4  and  C_12
REMARK                            x       y       z     vdW  Elec       q    Type
REMARK                         _______ _______ _______ _____ _____    ______ ____
ROOT
ATOM      1  C   UNL     1       5.350   0.790  -5.138  0.00  0.00    +0.017 C 
ATOM      2  C   UNL     1       5.418   1.354  -3.694  0.00  0.00    +0.025 C 
ATOM      3  C   UNL     1       6.879   1.076  -3.281  0.00  0.00    +0.088 C 
ATOM      4  N   UNL     1       7.374  -0.019  -4.135  0.00  0.00    -0.298 NA
ATOM      5  C   UNL     1       6.281  -0.444  -5.035  0.00  0.00    +0.085 C 
ATOM      6  C   UNL     1       8.554   0.402  -4.901  0.00  0.00    +0.105 C 
ENDROOT
BRANCH   3   7
ATOM      7  C   UNL     1       6.933   0.663  -1.833  0.00  0.00    -0.012 A 
ATOM      8  C   UNL     1       7.683   1.389  -0.927  0.00  0.00    +0.115 A 
ATOM      9  N   UNL     1       7.735   1.034   0.342  0.00  0.00    -0.263 NA
ATOM     10  C   UNL     1       7.081  -0.017   0.796  0.00  0.00    +0.111 A 
ATOM     11  C   UNL     1       6.309  -0.790  -0.052  0.00  0.00    +0.020 A 
ATOM     12  C   UNL     1       6.226  -0.445  -1.392  0.00  0.00    +0.008 A 
ENDBRANCH   3   7
TORSDOF 1
ENDMDL
MODEL 6
REMARK VINA RESULT:    -3.632      6.908      8.152
REMARK INTER + INTRA:          -4.059
REMARK INTER:                  -3.804
REMARK INTRA:                  -0.255
REMARK UNBOUND:                -0.215
REMARK  Name = Nicotine.pdb
REMARK  2 active torsions:
REMARK  status: ('A' for Active; 'I' for Inactive)
REMARK    1  A    between atoms: C_3  and  C_6
REMARK    2  A    between atoms: N_4  and  C_12
REMARK                            x       y       z     vdW  Elec       q    Type
REMARK                         _______ _______ _______ _____ _____    ______ ____
ROOT
ATOM      1  C   UNL     1       3.093   3.297  -6.112  0.00  0.00    +0.017 C 
ATOM      2  C   UNL     1       3.113   1.902  -5.433  0.00  0.00    +0.025 C 
ATOM      3  C   UNL     1       4.602   1.501  -5.508  0.00  0.00    +0.088 C 
ATOM      4  N   UNL     1       5.210   2.280  -6.602  0.00  0.00    -0.298 NA
ATOM      5  C   UNL     1       4.162   3.122  -7.219  0.00  0.00    +0.085 C 
ATOM      6  C   UNL     1       6.323   3.102  -6.108  0.00  0.00    +0.105 C 
ENDROOT
BRANCH   3   7
ATOM      7  C   UNL     1       4.722   0.027  -5.799  0.00  0.00    -0.012 A 
ATOM      8  C   UNL     1       5.807  -0.691  -5.333  0.00  0.00    +0.115 A 
ATOM      9  N   UNL     1       5.920  -1.981  -5.583  0.00  0.00    -0.263 NA
ATOM     10  C   UNL     1       5.012  -2.634  -6.281  0.00  0.00    +0.111 A 
ATOM     11  C   UNL     1       3.899  -1.982  -6.779  0.00  0.00    +0.020 A 
ATOM     12  C   UNL     1       3.744  -0.627  -6.532  0.00  0.00    +0.008 A 
ENDBRANCH   3   7
TORSDOF 1
ENDMDL
MODEL 7
REMARK VINA RESULT:    -3.478      4.611      7.296
REMARK INTER + INTRA:          -3.896
REMARK INTER:                  -3.710
REMARK INTRA:                  -0.186
REMARK UNBOUND:                -0.215
REMARK  Name = Nicotine.pdb
REMARK  2 active torsions:
REMARK  status: ('A' for Active; 'I' for Inactive)
REMARK    1  A    between atoms: C_3  and  C_6
REMARK    2  A    between atoms: N_4  and  C_12
REMARK                            x       y       z     vdW  Elec       q    Type
REMARK                         _______ _______ _______ _____ _____    ______ ____
ROOT
ATOM      1  C   UNL     1       8.608   0.554  -4.589  0.00  0.00    +0.017 C 
ATOM      2  C   UNL     1       7.779   1.838  -4.856  0.00  0.00    +0.025 C 
ATOM      3  C   UNL     1       6.524   1.627  -3.982  0.00  0.00    +0.088 C 
ATOM      4  N   UNL     1       6.395   0.178  -3.744  0.00  0.00    -0.298 NA
ATOM      5  C   UNL     1       7.495  -0.514  -4.448  0.00  0.00    +0.085 C 
ATOM      6  C   UNL     1       6.418  -0.124  -2.306  0.00  0.00    +0.105 C 
ENDROOT
BRANCH   3   7
ATOM      7  C   UNL     1       5.304   2.139  -4.705  0.00  0.00    -0.012 A 
ATOM      8  C   UNL     1       5.437   3.012  -5.767  0.00  0.00    +0.115 A 
ATOM      9  N   UNL     1       4.375   3.465  -6.405  0.00  0.00    -0.263 NA
ATOM     10  C   UNL     1       3.154   3.107  -6.060  0.00  0.00    +0.111 A 
ATOM     11  C   UNL     1       2.943   2.236  -5.007  0.00  0.00    +0.020 A 
ATOM     12  C   UNL     1       4.036   1.735  -4.316  0.00  0.00    +0.008 A 
ENDBRANCH   3   7
TORSDOF 1
ENDMDL
MODEL 8
REMARK VINA RESULT:    -3.352      7.164      8.381
REMARK INTER + INTRA:          -3.763
REMARK INTER:                  -3.522
REMARK INTRA:                  -0.240
REMARK UNBOUND:                -0.215
REMARK  Name = Nicotine.pdb
REMARK  2 active torsions:
REMARK  status: ('A' for Active; 'I' for Inactive)
REMARK    1  A    between atoms: C_3  and  C_6
REMARK    2  A    between atoms: N_4  and  C_12
REMARK                            x       y       z     vdW  Elec       q    Type
REMARK                         _______ _______ _______ _____ _____    ______ ____
ROOT
ATOM      1  C   UNL     1       8.736   1.577  -6.344  0.00  0.00    +0.017 C 
ATOM      2  C   UNL     1       7.279   1.438  -6.858  0.00  0.00    +0.025 C 
ATOM      3  C   UNL     1       6.735   2.879  -6.756  0.00  0.00    +0.088 C 
ATOM      4  N   UNL     1       7.565   3.590  -5.768  0.00  0.00    -0.298 NA
ATOM      5  C   UNL     1       8.576   2.650  -5.238  0.00  0.00    +0.085 C 
ATOM      6  C   UNL     1       8.205   4.769  -6.367  0.00  0.00    +0.105 C 
ENDROOT
BRANCH   3   7
ATOM      7  C   UNL     1       5.300   2.854  -6.300  0.00  0.00    -0.012 A 
ATOM      8  C   UNL     1       4.349   3.627  -6.940  0.00  0.00    +0.115 A 
ATOM      9  N   UNL     1       3.091   3.612  -6.547  0.00  0.00    -0.263 NA
ATOM     10  C   UNL     1       2.689   2.866  -5.536  0.00  0.00    +0.111 A 
ATOM     11  C   UNL     1       3.583   2.066  -4.848  0.00  0.00    +0.020 A 
ATOM     12  C   UNL     1       4.914   2.053  -5.236  0.00  0.00    +0.008 A 
ENDBRANCH   3   7
TORSDOF 1
ENDMDL
MODEL 9
REMARK VINA RESULT:    -3.269      6.890      7.910
REMARK INTER + INTRA:          -3.676
REMARK INTER:                  -3.420
REMARK INTRA:                  -0.255
REMARK UNBOUND:                -0.215
REMARK  Name = Nicotine.pdb
REMARK  2 active torsions:
REMARK  status: ('A' for Active; 'I' for Inactive)
REMARK    1  A    between atoms: C_3  and  C_6
REMARK    2  A    between atoms: N_4  and  C_12
REMARK                            x       y       z     vdW  Elec       q    Type
REMARK                         _______ _______ _______ _____ _____    ______ ____
ROOT
ATOM      1  C   UNL     1       5.560   2.695  -5.481  0.00  0.00    +0.017 C 
ATOM      2  C   UNL     1       6.051   1.402  -6.183  0.00  0.00    +0.025 C 
ATOM      3  C   UNL     1       4.771   0.545  -6.269  0.00  0.00    +0.088 C 
ATOM      4  N   UNL     1       3.847   1.035  -5.230  0.00  0.00    -0.298 NA
ATOM      5  C   UNL     1       4.506   2.134  -4.494  0.00  0.00    +0.085 C 
ATOM      6  C   UNL     1       2.579   1.483  -5.821  0.00  0.00    +0.105 C 
ENDROOT
BRANCH   3   7
ATOM      7  C   UNL     1       5.104  -0.903  -6.019  0.00  0.00    -0.012 A 
ATOM      8  C   UNL     1       4.340  -1.905  -6.586  0.00  0.00    +0.115 A 
ATOM      9  N   UNL     1       4.625  -3.175  -6.372  0.00  0.00    -0.263 NA
ATOM     10  C   UNL     1       5.642  -3.538  -5.616  0.00  0.00    +0.111 A 
ATOM     11  C   UNL     1       6.452  -2.592  -5.016  0.00  0.00    +0.020 A 
ATOM     12  C   UNL     1       6.186  -1.247  -5.222  0.00  0.00    +0.008 A 
ENDBRANCH   3   7
TORSDOF 1
ENDMDL
MODEL 10
REMARK VINA RESULT:    -2.424      4.395      6.540
REMARK INTER + INTRA:          -2.780
REMARK INTER:                  -2.536
REMARK INTRA:                  -0.244
REMARK UNBOUND:                -0.215
REMARK  Name = Nicotine.pdb
REMARK  2 active torsions:
REMARK  status: ('A' for Active; 'I' for Inactive)
REMARK    1  A    between atoms: C_3  and  C_6
REMARK    2  A    between atoms: N_4  and  C_12
REMARK                            x       y       z     vdW  Elec       q    Type
REMARK                         _______ _______ _______ _____ _____    ______ ____
ROOT
ATOM      1  C   UNL     1       3.342   2.908  -5.412  0.00  0.00    +0.017 C 
ATOM      2  C   UNL     1       4.747   2.614  -4.823  0.00  0.00    +0.025 C 
ATOM      3  C   UNL     1       5.100   1.242  -5.436  0.00  0.00    +0.088 C 
ATOM      4  N   UNL     1       3.832   0.596  -5.820  0.00  0.00    -0.298 NA
ATOM      5  C   UNL     1       2.715   1.492  -5.450  0.00  0.00    +0.085 C 
ATOM      6  C   UNL     1       3.809   0.291  -7.256  0.00  0.00    +0.105 C 
ENDROOT
BRANCH   3   7
ATOM      7  C   UNL     1       5.820   0.396  -4.418  0.00  0.00    -0.012 A 
ATOM      8  C   UNL     1       6.302  -0.853  -4.762  0.00  0.00    +0.115 A 
ATOM      9  N   UNL     1       6.934  -1.599  -3.878  0.00  0.00    -0.263 NA
ATOM     10  C   UNL     1       7.131  -1.190  -2.640  0.00  0.00    +0.111 A 
ATOM     11  C   UNL     1       6.677   0.047  -2.223  0.00  0.00    +0.020 A 
ATOM     12  C   UNL     1       6.013   0.862  -3.127  0.00  0.00    +0.008 A 
ENDBRANCH   3   7
TORSDOF 1
ENDMDL
