MODEL 1
REMARK VINA RESULT:     0.331      0.000      0.000
REMARK INTER + INTRA:           0.134
REMARK INTER:                   0.350
REMARK INTRA:                  -0.215
REMARK UNBOUND:                -0.215
REMARK  Name = Nicotine.pdb
REMARK  2 active torsions:
REMARK  status: ('A' for Active; 'I' for Inactive)
REMARK    1  A    between atoms: C_3  and  C_6
REMARK    2  A    between atoms: N_4  and  C_12
REMARK                            x       y       z     vdW  Elec       q    Type
REMARK                         _______ _______ _______ _____ _____    ______ ____
ROOT
ATOM      1  C   UNL     1       6.030   3.760   6.241  0.00  0.00    +0.017 C 
ATOM      2  C   UNL     1       7.530   4.156   6.244  0.00  0.00    +0.025 C 
ATOM      3  C   UNL     1       7.485   5.685   6.037  0.00  0.00    +0.088 C 
ATOM      4  N   UNL     1       6.191   6.003   5.407  0.00  0.00    -0.298 NA
ATOM      5  C   UNL     1       5.449   4.742   5.193  0.00  0.00    +0.085 C 
ATOM      6  C   UNL     1       5.417   6.937   6.235  0.00  0.00    +0.105 C 
ENDROOT
BRANCH   3   7
ATOM      7  C   UNL     1       8.614   6.113   5.136  0.00  0.00    -0.012 A 
ATOM      8  C   UNL     1       8.351   6.612   3.874  0.00  0.00    +0.115 A 
ATOM      9  N   UNL     1       9.334   6.989   3.079  0.00  0.00    -0.263 NA
ATOM     10  C   UNL     1      10.596   6.908   3.451  0.00  0.00    +0.111 A 
ATOM     11  C   UNL     1      10.936   6.420   4.699  0.00  0.00    +0.020 A 
ATOM     12  C   UNL     1       9.930   6.019   5.564  0.00  0.00    +0.008 A 
ENDBRANCH   3   7
TORSDOF 1
ENDMDL
MODEL 2
REMARK VINA RESULT:     0.523      2.074      4.795
REMARK INTER + INTRA:           0.338
REMARK INTER:                   0.523
REMARK INTRA:                  -0.185
REMARK UNBOUND:                -0.215
REMARK  Name = Nicotine.pdb
REMARK  2 active torsions:
REMARK  status: ('A' for Active; 'I' for Inactive)
REMARK    1  A    between atoms: C_3  and  C_6
REMARK    2  A    between atoms: N_4  and  C_12
REMARK                            x       y       z     vdW  Elec       q    Type
REMARK                         _______ _______ _______ _____ _____    ______ ____
ROOT
ATOM      1  C   UNL     1       7.241   6.793   4.721  0.00  0.00    +0.017 C 
ATOM      2  C   UNL     1       6.347   5.814   5.527  0.00  0.00    +0.025 C 
ATOM      3  C   UNL     1       7.376   4.882   6.203  0.00  0.00    +0.088 C 
ATOM      4  N   UNL     1       8.617   4.954   5.411  0.00  0.00    -0.298 NA
ATOM      5  C   UNL     1       8.394   5.863   4.267  0.00  0.00    +0.085 C 
ATOM      6  C   UNL     1       9.743   5.410   6.236  0.00  0.00    +0.105 C 
ENDROOT
BRANCH   3   7
ATOM      7  C   UNL     1       6.855   3.469   6.218  0.00  0.00    -0.012 A 
ATOM      8  C   UNL     1       5.495   3.225   6.231  0.00  0.00    +0.115 A 
ATOM      9  N   UNL     1       5.031   1.990   6.243  0.00  0.00    -0.263 NA
ATOM     10  C   UNL     1       5.837   0.947   6.244  0.00  0.00    +0.111 A 
ATOM     11  C   UNL     1       7.209   1.113   6.231  0.00  0.00    +0.020 A 
ATOM     12  C   UNL     1       7.734   2.396   6.212  0.00  0.00    +0.008 A 
ENDBRANCH   3   7
TORSDOF 1
ENDMDL
