MODEL 1
REMARK VINA RESULT:    -3.713      0.000      0.000
REMARK INTER + INTRA:          -4.113
REMARK INTER:                  -3.930
REMARK INTRA:                  -0.183
REMARK UNBOUND:                -0.183
REMARK  Name = Nicotine.pdb
REMARK  2 active torsions:
REMARK  status: ('A' for Active; 'I' for Inactive)
REMARK    1  A    between atoms: C_3  and  C_6
REMARK    2  A    between atoms: N_4  and  C_12
REMARK                            x       y       z     vdW  Elec       q    Type
REMARK                         _______ _______ _______ _____ _____    ______ ____
ROOT
ATOM      1  C   UNL     1       7.025  -3.517   4.417  0.00  0.00    +0.017 C 
ATOM      2  C   UNL     1       6.859  -3.962   2.940  0.00  0.00    +0.025 C 
ATOM      3  C   UNL     1       8.224  -4.604   2.615  0.00  0.00    +0.088 C 
ATOM      4  N   UNL     1       9.204  -4.055   3.570  0.00  0.00    -0.298 NA
ATOM      5  C   UNL     1       8.513  -3.087   4.449  0.00  0.00    +0.085 C 
ATOM      6  C   UNL     1       9.832  -5.125   4.355  0.00  0.00    +0.105 C 
ENDROOT
BRANCH   3   7
ATOM      7  C   UNL     1       8.631  -4.259   1.206  0.00  0.00    -0.012 A 
ATOM      8  C   UNL     1       9.453  -3.176   0.961  0.00  0.00    +0.115 A 
ATOM      9  N   UNL     1       9.814  -2.867  -0.269  0.00  0.00    -0.263 NA
ATOM     10  C   UNL     1       9.409  -3.572  -1.308  0.00  0.00    +0.111 A 
ATOM     11  C   UNL     1       8.586  -4.670  -1.140  0.00  0.00    +0.020 A 
ATOM     12  C   UNL     1       8.190  -5.028   0.139  0.00  0.00    +0.008 A 
ENDBRANCH   3   7
TORSDOF 1
ENDMDL
MODEL 2
REMARK VINA RESULT:    -3.649      1.395      4.378
REMARK INTER + INTRA:          -4.045
REMARK INTER:                  -3.831
REMARK INTRA:                  -0.215
REMARK UNBOUND:                -0.183
REMARK  Name = Nicotine.pdb
REMARK  2 active torsions:
REMARK  status: ('A' for Active; 'I' for Inactive)
REMARK    1  A    between atoms: C_3  and  C_6
REMARK    2  A    between atoms: N_4  and  C_12
REMARK                            x       y       z     vdW  Elec       q    Type
REMARK                         _______ _______ _______ _____ _____    ______ ____
ROOT
ATOM      1  C   UNL     1       9.995  -2.686  -1.337  0.00  0.00    +0.017 C 
ATOM      2  C   UNL     1       9.907  -2.396   0.185  0.00  0.00    +0.025 C 
ATOM      3  C   UNL     1       9.680  -3.797   0.792  0.00  0.00    +0.088 C 
ATOM      4  N   UNL     1       9.120  -4.649  -0.272  0.00  0.00    -0.298 NA
ATOM      5  C   UNL     1       8.968  -3.835  -1.496  0.00  0.00    +0.085 C 
ATOM      6  C   UNL     1       9.977  -5.816  -0.518  0.00  0.00    +0.105 C 
ENDROOT
BRANCH   3   7
ATOM      7  C   UNL     1       8.711  -3.706   1.942  0.00  0.00    -0.012 A 
ATOM      8  C   UNL     1       9.034  -2.981   3.074  0.00  0.00    +0.115 A 
ATOM      9  N   UNL     1       8.191  -2.896   4.084  0.00  0.00    -0.263 NA
ATOM     10  C   UNL     1       7.016  -3.493   4.059  0.00  0.00    +0.111 A 
ATOM     11  C   UNL     1       6.623  -4.235   2.960  0.00  0.00    +0.020 A 
ATOM     12  C   UNL     1       7.481  -4.343   1.877  0.00  0.00    +0.008 A 
ENDBRANCH   3   7
TORSDOF 1
ENDMDL
MODEL 3
REMARK VINA RESULT:    -3.560      1.466      4.557
REMARK INTER + INTRA:          -3.951
REMARK INTER:                  -3.729
REMARK INTRA:                  -0.222
REMARK UNBOUND:                -0.183
REMARK  Name = Nicotine.pdb
REMARK  2 active torsions:
REMARK  status: ('A' for Active; 'I' for Inactive)
REMARK    1  A    between atoms: C_3  and  C_6
REMARK    2  A    between atoms: N_4  and  C_12
REMARK                            x       y       z     vdW  Elec       q    Type
REMARK                         _______ _______ _______ _____ _____    ______ ____
ROOT
ATOM      1  C   UNL     1      10.917  -2.273  -0.471  0.00  0.00    +0.017 C 
ATOM      2  C   UNL     1      10.652  -2.361   1.055  0.00  0.00    +0.025 C 
ATOM      3  C   UNL     1       9.974  -3.739   1.211  0.00  0.00    +0.088 C 
ATOM      4  N   UNL     1       9.402  -4.095  -0.100  0.00  0.00    -0.298 NA
ATOM      5  C   UNL     1       9.672  -2.992  -1.047  0.00  0.00    +0.085 C 
ATOM      6  C   UNL     1       9.960  -5.361  -0.593  0.00  0.00    +0.105 C 
ENDROOT
BRANCH   3   7
ATOM      7  C   UNL     1       8.881  -3.660   2.245  0.00  0.00    -0.012 A 
ATOM      8  C   UNL     1       7.609  -4.116   1.954  0.00  0.00    +0.115 A 
ATOM      9  N   UNL     1       6.647  -4.050   2.853  0.00  0.00    -0.263 NA
ATOM     10  C   UNL     1       6.855  -3.551   4.055  0.00  0.00    +0.111 A 
ATOM     11  C   UNL     1       8.101  -3.076   4.418  0.00  0.00    +0.020 A 
ATOM     12  C   UNL     1       9.139  -3.133   3.501  0.00  0.00    +0.008 A 
ENDBRANCH   3   7
TORSDOF 1
ENDMDL
MODEL 4
REMARK VINA RESULT:    -3.531      1.152      1.738
REMARK INTER + INTRA:          -3.920
REMARK INTER:                  -3.677
REMARK INTRA:                  -0.243
REMARK UNBOUND:                -0.183
REMARK  Name = Nicotine.pdb
REMARK  2 active torsions:
REMARK  status: ('A' for Active; 'I' for Inactive)
REMARK    1  A    between atoms: C_3  and  C_6
REMARK    2  A    between atoms: N_4  and  C_12
REMARK                            x       y       z     vdW  Elec       q    Type
REMARK                         _______ _______ _______ _____ _____    ______ ____
ROOT
ATOM      1  C   UNL     1       6.837  -5.756   2.829  0.00  0.00    +0.017 C 
ATOM      2  C   UNL     1       7.920  -5.781   1.718  0.00  0.00    +0.025 C 
ATOM      3  C   UNL     1       8.698  -4.471   1.963  0.00  0.00    +0.088 C 
ATOM      4  N   UNL     1       7.806  -3.565   2.708  0.00  0.00    -0.298 NA
ATOM      5  C   UNL     1       6.508  -4.244   2.911  0.00  0.00    +0.085 C 
ATOM      6  C   UNL     1       8.403  -3.174   3.991  0.00  0.00    +0.105 C 
ENDROOT
BRANCH   3   7
ATOM      7  C   UNL     1       9.080  -3.848   0.645  0.00  0.00    -0.012 A 
ATOM      8  C   UNL     1       9.840  -2.694   0.612  0.00  0.00    +0.115 A 
ATOM      9  N   UNL     1      10.179  -2.142  -0.537  0.00  0.00    -0.263 NA
ATOM     10  C   UNL     1       9.810  -2.662  -1.691  0.00  0.00    +0.111 A 
ATOM     11  C   UNL     1       9.049  -3.815  -1.736  0.00  0.00    +0.020 A 
ATOM     12  C   UNL     1       8.679  -4.427  -0.549  0.00  0.00    +0.008 A 
ENDBRANCH   3   7
TORSDOF 1
ENDMDL
MODEL 5
REMARK VINA RESULT:    -3.191      1.526      4.822
REMARK INTER + INTRA:          -3.561
REMARK INTER:                  -3.363
REMARK INTRA:                  -0.198
REMARK UNBOUND:                -0.183
REMARK  Name = Nicotine.pdb
REMARK  2 active torsions:
REMARK  status: ('A' for Active; 'I' for Inactive)
REMARK    1  A    between atoms: C_3  and  C_6
REMARK    2  A    between atoms: N_4  and  C_12
REMARK                            x       y       z     vdW  Elec       q    Type
REMARK                         _______ _______ _______ _____ _____    ______ ____
ROOT
ATOM      1  C   UNL     1      10.054  -1.606  -2.495  0.00  0.00    +0.017 C 
ATOM      2  C   UNL     1      10.172  -1.633  -0.949  0.00  0.00    +0.025 C 
ATOM      3  C   UNL     1      10.065  -3.136  -0.618  0.00  0.00    +0.088 C 
ATOM      4  N   UNL     1       9.382  -3.786  -1.751  0.00  0.00    -0.298 NA
ATOM      5  C   UNL     1       9.042  -2.751  -2.751  0.00  0.00    +0.085 C 
ATOM      6  C   UNL     1      10.223  -4.834  -2.343  0.00  0.00    +0.105 C 
ENDROOT
BRANCH   3   7
ATOM      7  C   UNL     1       9.263  -3.328   0.643  0.00  0.00    -0.012 A 
ATOM      8  C   UNL     1       9.488  -2.523   1.744  0.00  0.00    +0.115 A 
ATOM      9  N   UNL     1       8.791  -2.684   2.852  0.00  0.00    -0.263 NA
ATOM     10  C   UNL     1       7.858  -3.610   2.955  0.00  0.00    +0.111 A 
ATOM     11  C   UNL     1       7.576  -4.452   1.895  0.00  0.00    +0.020 A 
ATOM     12  C   UNL     1       8.286  -4.309   0.713  0.00  0.00    +0.008 A 
ENDBRANCH   3   7
TORSDOF 1
ENDMDL
MODEL 6
REMARK VINA RESULT:    -2.923     12.171     12.884
REMARK INTER + INTRA:          -3.277
REMARK INTER:                  -3.041
REMARK INTRA:                  -0.237
REMARK UNBOUND:                -0.183
REMARK  Name = Nicotine.pdb
REMARK  2 active torsions:
REMARK  status: ('A' for Active; 'I' for Inactive)
REMARK    1  A    between atoms: C_3  and  C_6
REMARK    2  A    between atoms: N_4  and  C_12
REMARK                            x       y       z     vdW  Elec       q    Type
REMARK                         _______ _______ _______ _____ _____    ______ ____
ROOT
ATOM      1  C   UNL     1       3.286   6.419  -4.910  0.00  0.00    +0.017 C 
ATOM      2  C   UNL     1       4.668   7.028  -5.266  0.00  0.00    +0.025 C 
ATOM      3  C   UNL     1       5.274   5.978  -6.222  0.00  0.00    +0.088 C 
ATOM      4  N   UNL     1       4.591   4.699  -5.956  0.00  0.00    -0.298 NA
ATOM      5  C   UNL     1       3.613   4.905  -4.866  0.00  0.00    +0.085 C 
ATOM      6  C   UNL     1       3.932   4.192  -7.166  0.00  0.00    +0.105 C 
ENDROOT
BRANCH   3   7
ATOM      7  C   UNL     1       6.751   5.837  -5.958  0.00  0.00    -0.012 A 
ATOM      8  C   UNL     1       7.503   4.919  -6.667  0.00  0.00    +0.115 A 
ATOM      9  N   UNL     1       8.796   4.789  -6.443  0.00  0.00    -0.263 NA
ATOM     10  C   UNL     1       9.420   5.521  -5.541  0.00  0.00    +0.111 A 
ATOM     11  C   UNL     1       8.734   6.460  -4.794  0.00  0.00    +0.020 A 
ATOM     12  C   UNL     1       7.374   6.629  -5.006  0.00  0.00    +0.008 A 
ENDBRANCH   3   7
TORSDOF 1
ENDMDL
MODEL 7
REMARK VINA RESULT:    -2.794      2.783      6.084
REMARK INTER + INTRA:          -3.141
REMARK INTER:                  -2.929
REMARK INTRA:                  -0.212
REMARK UNBOUND:                -0.183
REMARK  Name = Nicotine.pdb
REMARK  2 active torsions:
REMARK  status: ('A' for Active; 'I' for Inactive)
REMARK    1  A    between atoms: C_3  and  C_6
REMARK    2  A    between atoms: N_4  and  C_12
REMARK                            x       y       z     vdW  Elec       q    Type
REMARK                         _______ _______ _______ _____ _____    ______ ____
ROOT
ATOM      1  C   UNL     1       7.199  -2.721  -5.169  0.00  0.00    +0.017 C 
ATOM      2  C   UNL     1       8.199  -2.278  -4.069  0.00  0.00    +0.025 C 
ATOM      3  C   UNL     1       8.819  -3.613  -3.605  0.00  0.00    +0.088 C 
ATOM      4  N   UNL     1       7.871  -4.683  -3.964  0.00  0.00    -0.298 NA
ATOM      5  C   UNL     1       6.687  -4.069  -4.602  0.00  0.00    +0.085 C 
ATOM      6  C   UNL     1       8.499  -5.667  -4.855  0.00  0.00    +0.105 C 
ENDROOT
BRANCH   3   7
ATOM      7  C   UNL     1       9.029  -3.591  -2.113  0.00  0.00    -0.012 A 
ATOM      8  C   UNL     1       9.790  -2.596  -1.529  0.00  0.00    +0.115 A 
ATOM      9  N   UNL     1       9.978  -2.569  -0.224  0.00  0.00    -0.263 NA
ATOM     10  C   UNL     1       9.454  -3.480   0.571  0.00  0.00    +0.111 A 
ATOM     11  C   UNL     1       8.680  -4.505   0.059  0.00  0.00    +0.020 A 
ATOM     12  C   UNL     1       8.456  -4.563  -1.308  0.00  0.00    +0.008 A 
ENDBRANCH   3   7
TORSDOF 1
ENDMDL
MODEL 8
REMARK VINA RESULT:    -2.754      1.879      3.213
REMARK INTER + INTRA:          -3.098
REMARK INTER:                  -2.903
REMARK INTRA:                  -0.195
REMARK UNBOUND:                -0.183
REMARK  Name = Nicotine.pdb
REMARK  2 active torsions:
REMARK  status: ('A' for Active; 'I' for Inactive)
REMARK    1  A    between atoms: C_3  and  C_6
REMARK    2  A    between atoms: N_4  and  C_12
REMARK                            x       y       z     vdW  Elec       q    Type
REMARK                         _______ _______ _______ _____ _____    ______ ____
ROOT
ATOM      1  C   UNL     1       7.767  -5.032   1.402  0.00  0.00    +0.017 C 
ATOM      2  C   UNL     1       8.079  -4.867  -0.108  0.00  0.00    +0.025 C 
ATOM      3  C   UNL     1       9.454  -4.167  -0.104  0.00  0.00    +0.088 C 
ATOM      4  N   UNL     1       9.601  -3.500   1.202  0.00  0.00    -0.298 NA
ATOM      5  C   UNL     1       8.373  -3.734   1.991  0.00  0.00    +0.085 C 
ATOM      6  C   UNL     1      10.787  -3.992   1.915  0.00  0.00    +0.105 C 
ENDROOT
BRANCH   3   7
ATOM      7  C   UNL     1       9.515  -3.148  -1.212  0.00  0.00    -0.012 A 
ATOM      8  C   UNL     1       8.990  -3.437  -2.457  0.00  0.00    +0.115 A 
ATOM      9  N   UNL     1       9.039  -2.550  -3.432  0.00  0.00    -0.263 NA
ATOM     10  C   UNL     1       9.584  -1.362  -3.262  0.00  0.00    +0.111 A 
ATOM     11  C   UNL     1      10.128  -1.002  -2.043  0.00  0.00    +0.020 A 
ATOM     12  C   UNL     1      10.091  -1.906  -0.993  0.00  0.00    +0.008 A 
ENDBRANCH   3   7
TORSDOF 1
ENDMDL
MODEL 9
REMARK VINA RESULT:    -2.701      5.025      6.821
REMARK INTER + INTRA:          -3.042
REMARK INTER:                  -2.827
REMARK INTRA:                  -0.216
REMARK UNBOUND:                -0.183
REMARK  Name = Nicotine.pdb
REMARK  2 active torsions:
REMARK  status: ('A' for Active; 'I' for Inactive)
REMARK    1  A    between atoms: C_3  and  C_6
REMARK    2  A    between atoms: N_4  and  C_12
REMARK                            x       y       z     vdW  Elec       q    Type
REMARK                         _______ _______ _______ _____ _____    ______ ____
ROOT
ATOM      1  C   UNL     1       7.104  -4.264  -6.236  0.00  0.00    +0.017 C 
ATOM      2  C   UNL     1       8.365  -3.498  -5.757  0.00  0.00    +0.025 C 
ATOM      3  C   UNL     1       8.494  -3.929  -4.281  0.00  0.00    +0.088 C 
ATOM      4  N   UNL     1       7.162  -4.384  -3.841  0.00  0.00    -0.298 NA
ATOM      5  C   UNL     1       6.216  -4.230  -4.967  0.00  0.00    +0.085 C 
ATOM      6  C   UNL     1       7.208  -5.777  -3.378  0.00  0.00    +0.105 C 
ENDROOT
BRANCH   3   7
ATOM      7  C   UNL     1       8.940  -2.759  -3.442  0.00  0.00    -0.012 A 
ATOM      8  C   UNL     1       8.748  -1.466  -3.888  0.00  0.00    +0.115 A 
ATOM      9  N   UNL     1       9.135  -0.436  -3.160  0.00  0.00    -0.263 NA
ATOM     10  C   UNL     1       9.717  -0.596  -1.988  0.00  0.00    +0.111 A 
ATOM     11  C   UNL     1       9.943  -1.861  -1.477  0.00  0.00    +0.020 A 
ATOM     12  C   UNL     1       9.544  -2.967  -2.211  0.00  0.00    +0.008 A 
ENDBRANCH   3   7
TORSDOF 1
ENDMDL
MODEL 10
REMARK VINA RESULT:    -2.648      4.626      7.370
REMARK INTER + INTRA:          -2.985
REMARK INTER:                  -2.729
REMARK INTRA:                  -0.256
REMARK UNBOUND:                -0.183
REMARK  Name = Nicotine.pdb
REMARK  2 active torsions:
REMARK  status: ('A' for Active; 'I' for Inactive)
REMARK    1  A    between atoms: C_3  and  C_6
REMARK    2  A    between atoms: N_4  and  C_12
REMARK                            x       y       z     vdW  Elec       q    Type
REMARK                         _______ _______ _______ _____ _____    ______ ____
ROOT
ATOM      1  C   UNL     1       6.294  -5.340  -5.711  0.00  0.00    +0.017 C 
ATOM      2  C   UNL     1       6.372  -4.548  -4.378  0.00  0.00    +0.025 C 
ATOM      3  C   UNL     1       7.113  -3.257  -4.784  0.00  0.00    +0.088 C 
ATOM      4  N   UNL     1       7.867  -3.555  -6.015  0.00  0.00    -0.298 NA
ATOM      5  C   UNL     1       7.646  -4.972  -6.372  0.00  0.00    +0.085 C 
ATOM      6  C   UNL     1       7.460  -2.666  -7.111  0.00  0.00    +0.105 C 
ENDROOT
BRANCH   3   7
ATOM      7  C   UNL     1       8.061  -2.844  -3.688  0.00  0.00    -0.012 A 
ATOM      8  C   UNL     1       8.544  -1.550  -3.632  0.00  0.00    +0.115 A 
ATOM      9  N   UNL     1       9.373  -1.180  -2.676  0.00  0.00    -0.263 NA
ATOM     10  C   UNL     1       9.773  -2.020  -1.743  0.00  0.00    +0.111 A 
ATOM     11  C   UNL     1       9.332  -3.331  -1.733  0.00  0.00    +0.020 A 
ATOM     12  C   UNL     1       8.455  -3.754  -2.720  0.00  0.00    +0.008 A 
ENDBRANCH   3   7
TORSDOF 1
ENDMDL
