MODEL 1
REMARK VINA RESULT:     4.130      0.000      0.000
REMARK INTER + INTRA:           4.152
REMARK INTER:                   4.372
REMARK INTRA:                  -0.220
REMARK UNBOUND:                -0.220
REMARK  Name = Nicotine.pdb
REMARK  2 active torsions:
REMARK  status: ('A' for Active; 'I' for Inactive)
REMARK    1  A    between atoms: C_3  and  C_6
REMARK    2  A    between atoms: N_4  and  C_12
REMARK                            x       y       z     vdW  Elec       q    Type
REMARK                         _______ _______ _______ _____ _____    ______ ____
ROOT
ATOM      1  C   UNL     1      10.148   0.503  -3.979  0.00  0.00    +0.017 C 
ATOM      2  C   UNL     1      10.728  -0.871  -4.408  0.00  0.00    +0.025 C 
ATOM      3  C   UNL     1      10.462  -0.901  -5.928  0.00  0.00    +0.088 C 
ATOM      4  N   UNL     1       9.360   0.041  -6.197  0.00  0.00    -0.298 NA
ATOM      5  C   UNL     1       8.920   0.630  -4.914  0.00  0.00    +0.085 C 
ATOM      6  C   UNL     1       9.779   1.086  -7.139  0.00  0.00    +0.105 C 
ENDROOT
BRANCH   3   7
ATOM      7  C   UNL     1      10.064  -2.291  -6.351  0.00  0.00    -0.012 A 
ATOM      8  C   UNL     1       8.810  -2.528  -6.882  0.00  0.00    +0.115 A 
ATOM      9  N   UNL     1       8.455  -3.742  -7.256  0.00  0.00    -0.263 NA
ATOM     10  C   UNL     1       9.271  -4.770  -7.139  0.00  0.00    +0.111 A 
ATOM     11  C   UNL     1      10.541  -4.610  -6.617  0.00  0.00    +0.020 A 
ATOM     12  C   UNL     1      10.952  -3.347  -6.219  0.00  0.00    +0.008 A 
ENDBRANCH   3   7
TORSDOF 1
ENDMDL
