MODEL 1
REMARK VINA RESULT:    -3.274      0.000      0.000
REMARK INTER + INTRA:          -3.688
REMARK INTER:                  -3.465
REMARK INTRA:                  -0.223
REMARK UNBOUND:                -0.223
REMARK  Name = Nicotine.pdb
REMARK  2 active torsions:
REMARK  status: ('A' for Active; 'I' for Inactive)
REMARK    1  A    between atoms: C_3  and  C_6
REMARK    2  A    between atoms: N_4  and  C_12
REMARK                            x       y       z     vdW  Elec       q    Type
REMARK                         _______ _______ _______ _____ _____    ______ ____
ROOT
ATOM      1  C   UNL     1      10.392  -0.868  -5.802  0.00  0.00    +0.017 C 
ATOM      2  C   UNL     1       9.105  -1.308  -5.055  0.00  0.00    +0.025 C 
ATOM      3  C   UNL     1       8.767  -2.662  -5.714  0.00  0.00    +0.088 C 
ATOM      4  N   UNL     1       9.417  -2.680  -7.036  0.00  0.00    -0.298 NA
ATOM      5  C   UNL     1      10.117  -1.392  -7.234  0.00  0.00    +0.085 C 
ATOM      6  C   UNL     1      10.349  -3.809  -7.151  0.00  0.00    +0.105 C 
ENDROOT
BRANCH   3   7
ATOM      7  C   UNL     1       7.275  -2.797  -5.873  0.00  0.00    -0.012 A 
ATOM      8  C   UNL     1       6.727  -3.098  -7.106  0.00  0.00    +0.115 A 
ATOM      9  N   UNL     1       5.422  -3.217  -7.254  0.00  0.00    -0.263 NA
ATOM     10  C   UNL     1       4.593  -3.056  -6.242  0.00  0.00    +0.111 A 
ATOM     11  C   UNL     1       5.067  -2.754  -4.979  0.00  0.00    +0.020 A 
ATOM     12  C   UNL     1       6.433  -2.626  -4.784  0.00  0.00    +0.008 A 
ENDBRANCH   3   7
TORSDOF 1
ENDMDL
MODEL 2
REMARK VINA RESULT:    -2.408      1.619      4.330
REMARK INTER + INTRA:          -2.771
REMARK INTER:                  -2.575
REMARK INTRA:                  -0.196
REMARK UNBOUND:                -0.223
REMARK  Name = Nicotine.pdb
REMARK  2 active torsions:
REMARK  status: ('A' for Active; 'I' for Inactive)
REMARK    1  A    between atoms: C_3  and  C_6
REMARK    2  A    between atoms: N_4  and  C_12
REMARK                            x       y       z     vdW  Elec       q    Type
REMARK                         _______ _______ _______ _____ _____    ______ ____
ROOT
ATOM      1  C   UNL     1       5.642  -2.281  -4.119  0.00  0.00    +0.017 C 
ATOM      2  C   UNL     1       7.112  -2.466  -4.579  0.00  0.00    +0.025 C 
ATOM      3  C   UNL     1       6.968  -2.783  -6.083  0.00  0.00    +0.088 C 
ATOM      4  N   UNL     1       5.602  -3.296  -6.293  0.00  0.00    -0.298 NA
ATOM      5  C   UNL     1       4.908  -3.333  -4.988  0.00  0.00    +0.085 C 
ATOM      6  C   UNL     1       4.869  -2.464  -7.256  0.00  0.00    +0.105 C 
ENDROOT
BRANCH   3   7
ATOM      7  C   UNL     1       7.977  -3.827  -6.486  0.00  0.00    -0.012 A 
ATOM      8  C   UNL     1       9.253  -3.457  -6.867  0.00  0.00    +0.115 A 
ATOM      9  N   UNL     1      10.141  -4.364  -7.221  0.00  0.00    -0.263 NA
ATOM     10  C   UNL     1       9.854  -5.651  -7.226  0.00  0.00    +0.111 A 
ATOM     11  C   UNL     1       8.598  -6.097  -6.856  0.00  0.00    +0.020 A 
ATOM     12  C   UNL     1       7.640  -5.172  -6.473  0.00  0.00    +0.008 A 
ENDBRANCH   3   7
TORSDOF 1
ENDMDL
MODEL 3
REMARK VINA RESULT:    -2.301      1.241      4.537
REMARK INTER + INTRA:          -2.658
REMARK INTER:                  -2.473
REMARK INTRA:                  -0.185
REMARK UNBOUND:                -0.223
REMARK  Name = Nicotine.pdb
REMARK  2 active torsions:
REMARK  status: ('A' for Active; 'I' for Inactive)
REMARK    1  A    between atoms: C_3  and  C_6
REMARK    2  A    between atoms: N_4  and  C_12
REMARK                            x       y       z     vdW  Elec       q    Type
REMARK                         _______ _______ _______ _____ _____    ______ ____
ROOT
ATOM      1  C   UNL     1       4.979  -3.839  -5.779  0.00  0.00    +0.017 C 
ATOM      2  C   UNL     1       6.488  -4.117  -6.008  0.00  0.00    +0.025 C 
ATOM      3  C   UNL     1       7.173  -3.147  -5.022  0.00  0.00    +0.088 C 
ATOM      4  N   UNL     1       6.212  -2.068  -4.732  0.00  0.00    -0.298 NA
ATOM      5  C   UNL     1       4.979  -2.314  -5.510  0.00  0.00    +0.085 C 
ATOM      6  C   UNL     1       5.921  -1.993  -3.294  0.00  0.00    +0.105 C 
ENDROOT
BRANCH   3   7
ATOM      7  C   UNL     1       8.417  -2.572  -5.649  0.00  0.00    -0.012 A 
ATOM      8  C   UNL     1       9.033  -3.222  -6.701  0.00  0.00    +0.115 A 
ATOM      9  N   UNL     1      10.122  -2.726  -7.256  0.00  0.00    -0.263 NA
ATOM     10  C   UNL     1      10.664  -1.601  -6.834  0.00  0.00    +0.111 A 
ATOM     11  C   UNL     1      10.103  -0.895  -5.786  0.00  0.00    +0.020 A 
ATOM     12  C   UNL     1       8.955  -1.383  -5.182  0.00  0.00    +0.008 A 
ENDBRANCH   3   7
TORSDOF 1
ENDMDL
MODEL 4
REMARK VINA RESULT:    -2.246      1.791      2.592
REMARK INTER + INTRA:          -2.600
REMARK INTER:                  -2.348
REMARK INTRA:                  -0.252
REMARK UNBOUND:                -0.223
REMARK  Name = Nicotine.pdb
REMARK  2 active torsions:
REMARK  status: ('A' for Active; 'I' for Inactive)
REMARK    1  A    between atoms: C_3  and  C_6
REMARK    2  A    between atoms: N_4  and  C_12
REMARK                            x       y       z     vdW  Elec       q    Type
REMARK                         _______ _______ _______ _____ _____    ______ ____
ROOT
ATOM      1  C   UNL     1       8.160  -1.943  -4.569  0.00  0.00    +0.017 C 
ATOM      2  C   UNL     1       6.620  -1.976  -4.382  0.00  0.00    +0.025 C 
ATOM      3  C   UNL     1       6.187  -3.157  -5.276  0.00  0.00    +0.088 C 
ATOM      4  N   UNL     1       7.250  -3.359  -6.277  0.00  0.00    -0.298 NA
ATOM      5  C   UNL     1       8.303  -2.345  -6.058  0.00  0.00    +0.085 C 
ATOM      6  C   UNL     1       7.801  -4.718  -6.194  0.00  0.00    +0.105 C 
ENDROOT
BRANCH   3   7
ATOM      7  C   UNL     1       4.888  -2.829  -5.965  0.00  0.00    -0.012 A 
ATOM      8  C   UNL     1       4.194  -3.808  -6.651  0.00  0.00    +0.115 A 
ATOM      9  N   UNL     1       3.055  -3.529  -7.256  0.00  0.00    -0.263 NA
ATOM     10  C   UNL     1       2.537  -2.318  -7.233  0.00  0.00    +0.111 A 
ATOM     11  C   UNL     1       3.174  -1.288  -6.567  0.00  0.00    +0.020 A 
ATOM     12  C   UNL     1       4.370  -1.544  -5.914  0.00  0.00    +0.008 A 
ENDBRANCH   3   7
TORSDOF 1
ENDMDL
MODEL 5
REMARK VINA RESULT:    -1.718      1.724      4.718
REMARK INTER + INTRA:          -2.042
REMARK INTER:                  -1.822
REMARK INTRA:                  -0.220
REMARK UNBOUND:                -0.223
REMARK  Name = Nicotine.pdb
REMARK  2 active torsions:
REMARK  status: ('A' for Active; 'I' for Inactive)
REMARK    1  A    between atoms: C_3  and  C_6
REMARK    2  A    between atoms: N_4  and  C_12
REMARK                            x       y       z     vdW  Elec       q    Type
REMARK                         _______ _______ _______ _____ _____    ______ ____
ROOT
ATOM      1  C   UNL     1       3.686  -3.191  -6.648  0.00  0.00    +0.017 C 
ATOM      2  C   UNL     1       4.816  -4.238  -6.832  0.00  0.00    +0.025 C 
ATOM      3  C   UNL     1       5.830  -3.850  -5.735  0.00  0.00    +0.088 C 
ATOM      4  N   UNL     1       5.587  -2.436  -5.395  0.00  0.00    -0.298 NA
ATOM      5  C   UNL     1       4.490  -1.929  -6.247  0.00  0.00    +0.085 C 
ATOM      6  C   UNL     1       5.261  -2.285  -3.971  0.00  0.00    +0.105 C 
ENDROOT
BRANCH   3   7
ATOM      7  C   UNL     1       7.235  -4.020  -6.252  0.00  0.00    -0.012 A 
ATOM      8  C   UNL     1       8.070  -2.926  -6.379  0.00  0.00    +0.115 A 
ATOM      9  N   UNL     1       9.301  -3.066  -6.831  0.00  0.00    -0.263 NA
ATOM     10  C   UNL     1       9.783  -4.243  -7.177  0.00  0.00    +0.111 A 
ATOM     11  C   UNL     1       9.006  -5.383  -7.076  0.00  0.00    +0.020 A 
ATOM     12  C   UNL     1       7.709  -5.275  -6.600  0.00  0.00    +0.008 A 
ENDBRANCH   3   7
TORSDOF 1
ENDMDL
MODEL 6
REMARK VINA RESULT:    -1.369      1.596      4.878
REMARK INTER + INTRA:          -1.672
REMARK INTER:                  -1.423
REMARK INTRA:                  -0.248
REMARK UNBOUND:                -0.223
REMARK  Name = Nicotine.pdb
REMARK  2 active torsions:
REMARK  status: ('A' for Active; 'I' for Inactive)
REMARK    1  A    between atoms: C_3  and  C_6
REMARK    2  A    between atoms: N_4  and  C_12
REMARK                            x       y       z     vdW  Elec       q    Type
REMARK                         _______ _______ _______ _____ _____    ______ ____
ROOT
ATOM      1  C   UNL     1       4.146  -4.086  -6.687  0.00  0.00    +0.017 C 
ATOM      2  C   UNL     1       5.419  -4.169  -5.804  0.00  0.00    +0.025 C 
ATOM      3  C   UNL     1       5.530  -2.745  -5.220  0.00  0.00    +0.088 C 
ATOM      4  N   UNL     1       4.784  -1.845  -6.117  0.00  0.00    -0.298 NA
ATOM      5  C   UNL     1       4.241  -2.641  -7.238  0.00  0.00    +0.085 C 
ATOM      6  C   UNL     1       3.709  -1.152  -5.395  0.00  0.00    +0.105 C 
ENDROOT
BRANCH   3   7
ATOM      7  C   UNL     1       6.976  -2.327  -5.159  0.00  0.00    -0.012 A 
ATOM      8  C   UNL     1       7.456  -1.625  -4.069  0.00  0.00    +0.115 A 
ATOM      9  N   UNL     1       8.720  -1.256  -4.007  0.00  0.00    -0.263 NA
ATOM     10  C   UNL     1       9.572  -1.537  -4.973  0.00  0.00    +0.111 A 
ATOM     11  C   UNL     1       9.165  -2.236  -6.095  0.00  0.00    +0.020 A 
ATOM     12  C   UNL     1       7.844  -2.645  -6.192  0.00  0.00    +0.008 A 
ENDBRANCH   3   7
TORSDOF 1
ENDMDL
MODEL 7
REMARK VINA RESULT:    -0.970      1.693      2.335
REMARK INTER + INTRA:          -1.250
REMARK INTER:                  -1.078
REMARK INTRA:                  -0.171
REMARK UNBOUND:                -0.223
REMARK  Name = Nicotine.pdb
REMARK  2 active torsions:
REMARK  status: ('A' for Active; 'I' for Inactive)
REMARK    1  A    between atoms: C_3  and  C_6
REMARK    2  A    between atoms: N_4  and  C_12
REMARK                            x       y       z     vdW  Elec       q    Type
REMARK                         _______ _______ _______ _____ _____    ______ ____
ROOT
ATOM      1  C   UNL     1       9.631  -3.934  -6.915  0.00  0.00    +0.017 C 
ATOM      2  C   UNL     1       8.685  -2.837  -6.358  0.00  0.00    +0.025 C 
ATOM      3  C   UNL     1       7.611  -3.654  -5.609  0.00  0.00    +0.088 C 
ATOM      4  N   UNL     1       7.621  -5.014  -6.176  0.00  0.00    -0.298 NA
ATOM      5  C   UNL     1       8.631  -5.067  -7.255  0.00  0.00    +0.085 C 
ATOM      6  C   UNL     1       7.904  -6.015  -5.140  0.00  0.00    +0.105 C 
ENDROOT
BRANCH   3   7
ATOM      7  C   UNL     1       6.257  -3.024  -5.808  0.00  0.00    -0.012 A 
ATOM      8  C   UNL     1       5.650  -3.047  -7.049  0.00  0.00    +0.115 A 
ATOM      9  N   UNL     1       4.465  -2.498  -7.232  0.00  0.00    -0.263 NA
ATOM     10  C   UNL     1       3.815  -1.909  -6.248  0.00  0.00    +0.111 A 
ATOM     11  C   UNL     1       4.359  -1.847  -4.978  0.00  0.00    +0.020 A 
ATOM     12  C   UNL     1       5.601  -2.418  -4.747  0.00  0.00    +0.008 A 
ENDBRANCH   3   7
TORSDOF 1
ENDMDL
