MODEL 1
REMARK VINA RESULT:    15.115      0.000      0.000
REMARK INTER + INTRA:          15.756
REMARK INTER:                  15.999
REMARK INTRA:                  -0.243
REMARK UNBOUND:                -0.243
REMARK  Name = Nicotine.pdb
REMARK  2 active torsions:
REMARK  status: ('A' for Active; 'I' for Inactive)
REMARK    1  A    between atoms: C_3  and  C_6
REMARK    2  A    between atoms: N_4  and  C_12
REMARK                            x       y       z     vdW  Elec       q    Type
REMARK                         _______ _______ _______ _____ _____    ______ ____
ROOT
ATOM      1  C   UNL     1      -5.171  -0.585  -4.117  0.00  0.00    +0.017 C 
ATOM      2  C   UNL     1      -4.882   0.051  -2.732  0.00  0.00    +0.025 C 
ATOM      3  C   UNL     1      -3.741  -0.828  -2.178  0.00  0.00    +0.088 C 
ATOM      4  N   UNL     1      -3.804  -2.121  -2.882  0.00  0.00    -0.298 NA
ATOM      5  C   UNL     1      -4.943  -2.089  -3.825  0.00  0.00    +0.085 C 
ATOM      6  C   UNL     1      -2.545  -2.400  -3.586  0.00  0.00    +0.105 C 
ENDROOT
BRANCH   3   7
ATOM      7  C   UNL     1      -3.930  -1.040  -0.698  0.00  0.00    -0.012 A 
ATOM      8  C   UNL     1      -2.999  -1.756   0.030  0.00  0.00    +0.115 A 
ATOM      9  N   UNL     1      -3.156  -1.946   1.326  0.00  0.00    -0.263 NA
ATOM     10  C   UNL     1      -4.198  -1.465   1.975  0.00  0.00    +0.111 A 
ATOM     11  C   UNL     1      -5.171  -0.739   1.313  0.00  0.00    +0.020 A 
ATOM     12  C   UNL     1      -5.036  -0.514  -0.048  0.00  0.00    +0.008 A 
ENDBRANCH   3   7
TORSDOF 1
ENDMDL
MODEL 2
REMARK VINA RESULT:    15.829      1.371      4.559
REMARK INTER + INTRA:          16.511
REMARK INTER:                  16.698
REMARK INTRA:                  -0.187
REMARK UNBOUND:                -0.243
REMARK  Name = Nicotine.pdb
REMARK  2 active torsions:
REMARK  status: ('A' for Active; 'I' for Inactive)
REMARK    1  A    between atoms: C_3  and  C_6
REMARK    2  A    between atoms: N_4  and  C_12
REMARK                            x       y       z     vdW  Elec       q    Type
REMARK                         _______ _______ _______ _____ _____    ______ ____
ROOT
ATOM      1  C   UNL     1      -3.633  -1.658   0.940  0.00  0.00    +0.017 C 
ATOM      2  C   UNL     1      -2.919  -1.751  -0.434  0.00  0.00    +0.025 C 
ATOM      3  C   UNL     1      -3.665  -0.701  -1.285  0.00  0.00    +0.088 C 
ATOM      4  N   UNL     1      -4.985  -0.492  -0.662  0.00  0.00    -0.298 NA
ATOM      5  C   UNL     1      -5.097  -1.380   0.514  0.00  0.00    +0.085 C 
ATOM      6  C   UNL     1      -5.171   0.914  -0.281  0.00  0.00    +0.105 C 
ENDROOT
BRANCH   3   7
ATOM      7  C   UNL     1      -3.835  -1.209  -2.693  0.00  0.00    -0.012 A 
ATOM      8  C   UNL     1      -2.879  -2.030  -3.261  0.00  0.00    +0.115 A 
ATOM      9  N   UNL     1      -3.021  -2.479  -4.492  0.00  0.00    -0.263 NA
ATOM     10  C   UNL     1      -4.069  -2.166  -5.228  0.00  0.00    +0.111 A 
ATOM     11  C   UNL     1      -5.067  -1.350  -4.727  0.00  0.00    +0.020 A 
ATOM     12  C   UNL     1      -4.955  -0.863  -3.434  0.00  0.00    +0.008 A 
ENDBRANCH   3   7
TORSDOF 1
ENDMDL
MODEL 3
REMARK VINA RESULT:    16.614      1.238      1.882
REMARK INTER + INTRA:          17.342
REMARK INTER:                  17.540
REMARK INTRA:                  -0.198
REMARK UNBOUND:                -0.243
REMARK  Name = Nicotine.pdb
REMARK  2 active torsions:
REMARK  status: ('A' for Active; 'I' for Inactive)
REMARK    1  A    between atoms: C_3  and  C_6
REMARK    2  A    between atoms: N_4  and  C_12
REMARK                            x       y       z     vdW  Elec       q    Type
REMARK                         _______ _______ _______ _____ _____    ______ ____
ROOT
ATOM      1  C   UNL     1      -4.409  -1.772  -4.474  0.00  0.00    +0.017 C 
ATOM      2  C   UNL     1      -5.163  -1.462  -3.155  0.00  0.00    +0.025 C 
ATOM      3  C   UNL     1      -4.174  -0.554  -2.394  0.00  0.00    +0.088 C 
ATOM      4  N   UNL     1      -2.831  -0.817  -2.941  0.00  0.00    -0.298 NA
ATOM      5  C   UNL     1      -2.942  -1.860  -3.983  0.00  0.00    +0.085 C 
ATOM      6  C   UNL     1      -2.234   0.409  -3.486  0.00  0.00    +0.105 C 
ENDROOT
BRANCH   3   7
ATOM      7  C   UNL     1      -4.203  -0.882  -0.924  0.00  0.00    -0.012 A 
ATOM      8  C   UNL     1      -5.138  -0.292  -0.095  0.00  0.00    +0.115 A 
ATOM      9  N   UNL     1      -5.170  -0.573   1.193  0.00  0.00    -0.263 NA
ATOM     10  C   UNL     1      -4.321  -1.421   1.739  0.00  0.00    +0.111 A 
ATOM     11  C   UNL     1      -3.358  -2.051   0.972  0.00  0.00    +0.020 A 
ATOM     12  C   UNL     1      -3.297  -1.784  -0.387  0.00  0.00    +0.008 A 
ENDBRANCH   3   7
TORSDOF 1
ENDMDL
