MODEL 1
REMARK VINA RESULT:    11.805      0.000      0.000
REMARK INTER + INTRA:          12.321
REMARK INTER:                  12.495
REMARK INTRA:                  -0.174
REMARK UNBOUND:                -0.174
REMARK  Name = Nicotine.pdb
REMARK  2 active torsions:
REMARK  status: ('A' for Active; 'I' for Inactive)
REMARK    1  A    between atoms: C_3  and  C_6
REMARK    2  A    between atoms: N_4  and  C_12
REMARK                            x       y       z     vdW  Elec       q    Type
REMARK                         _______ _______ _______ _____ _____    ______ ____
ROOT
ATOM      1  C   UNL     1       0.387  -3.104   1.030  0.00  0.00    +0.017 C 
ATOM      2  C   UNL     1       1.636  -3.633   0.276  0.00  0.00    +0.025 C 
ATOM      3  C   UNL     1       2.647  -2.476   0.423  0.00  0.00    +0.088 C 
ATOM      4  N   UNL     1       1.873  -1.251   0.691  0.00  0.00    -0.298 NA
ATOM      5  C   UNL     1       0.434  -1.593   0.690  0.00  0.00    +0.085 C 
ATOM      6  C   UNL     1       2.270  -0.645   1.969  0.00  0.00    +0.105 C 
ENDROOT
BRANCH   3   7
ATOM      7  C   UNL     1       3.435  -2.318  -0.851  0.00  0.00    -0.012 A 
ATOM      8  C   UNL     1       2.806  -1.928  -2.018  0.00  0.00    +0.115 A 
ATOM      9  N   UNL     1       3.488  -1.787  -3.138  0.00  0.00    -0.263 NA
ATOM     10  C   UNL     1       4.786  -2.011  -3.191  0.00  0.00    +0.111 A 
ATOM     11  C   UNL     1       5.483  -2.404  -2.064  0.00  0.00    +0.020 A 
ATOM     12  C   UNL     1       4.800  -2.558  -0.867  0.00  0.00    +0.008 A 
ENDBRANCH   3   7
TORSDOF 1
ENDMDL
MODEL 2
REMARK VINA RESULT:    14.392      1.032      4.607
REMARK INTER + INTRA:          15.060
REMARK INTER:                  15.269
REMARK INTRA:                  -0.209
REMARK UNBOUND:                -0.174
REMARK  Name = Nicotine.pdb
REMARK  2 active torsions:
REMARK  status: ('A' for Active; 'I' for Inactive)
REMARK    1  A    between atoms: C_3  and  C_6
REMARK    2  A    between atoms: N_4  and  C_12
REMARK                            x       y       z     vdW  Elec       q    Type
REMARK                         _______ _______ _______ _____ _____    ______ ____
ROOT
ATOM      1  C   UNL     1       5.494  -2.341  -1.694  0.00  0.00    +0.017 C 
ATOM      2  C   UNL     1       4.658  -2.844  -0.487  0.00  0.00    +0.025 C 
ATOM      3  C   UNL     1       3.208  -2.744  -1.004  0.00  0.00    +0.088 C 
ATOM      4  N   UNL     1       3.203  -1.764  -2.106  0.00  0.00    -0.298 NA
ATOM      5  C   UNL     1       4.574  -1.238  -2.274  0.00  0.00    +0.085 C 
ATOM      6  C   UNL     1       2.715  -2.373  -3.350  0.00  0.00    +0.105 C 
ENDROOT
BRANCH   3   7
ATOM      7  C   UNL     1       2.300  -2.276   0.104  0.00  0.00    -0.012 A 
ATOM      8  C   UNL     1       2.724  -1.306   0.993  0.00  0.00    +0.115 A 
ATOM      9  N   UNL     1       1.935  -0.891   1.965  0.00  0.00    -0.263 NA
ATOM     10  C   UNL     1       0.721  -1.379   2.129  0.00  0.00    +0.111 A 
ATOM     11  C   UNL     1       0.228  -2.351   1.278  0.00  0.00    +0.020 A 
ATOM     12  C   UNL     1       1.027  -2.808   0.241  0.00  0.00    +0.008 A 
ENDBRANCH   3   7
TORSDOF 1
ENDMDL
