MODEL 1
REMARK VINA RESULT:    -3.536      0.000      0.000
REMARK INTER + INTRA:          -3.966
REMARK INTER:                  -3.743
REMARK INTRA:                  -0.224
REMARK UNBOUND:                -0.224
REMARK  Name = Nicotine.pdb
REMARK  2 active torsions:
REMARK  status: ('A' for Active; 'I' for Inactive)
REMARK    1  A    between atoms: C_3  and  C_6
REMARK    2  A    between atoms: N_4  and  C_12
REMARK                            x       y       z     vdW  Elec       q    Type
REMARK                         _______ _______ _______ _____ _____    ______ ____
ROOT
ATOM      1  C   UNL     1       2.566  -0.129   4.748  0.00  0.00    +0.017 C 
ATOM      2  C   UNL     1       3.691   0.895   5.051  0.00  0.00    +0.025 C 
ATOM      3  C   UNL     1       2.907   2.186   5.374  0.00  0.00    +0.088 C 
ATOM      4  N   UNL     1       1.577   2.056   4.751  0.00  0.00    -0.298 NA
ATOM      5  C   UNL     1       1.514   0.762   4.041  0.00  0.00    +0.085 C 
ATOM      6  C   UNL     1       0.512   2.159   5.757  0.00  0.00    +0.105 C 
ENDROOT
BRANCH   3   7
ATOM      7  C   UNL     1       3.628   3.379   4.803  0.00  0.00    -0.012 A 
ATOM      8  C   UNL     1       2.997   4.606   4.726  0.00  0.00    +0.115 A 
ATOM      9  N   UNL     1       3.621   5.656   4.228  0.00  0.00    -0.263 NA
ATOM     10  C   UNL     1       4.861   5.580   3.787  0.00  0.00    +0.111 A 
ATOM     11  C   UNL     1       5.557   4.387   3.833  0.00  0.00    +0.020 A 
ATOM     12  C   UNL     1       4.935   3.263   4.355  0.00  0.00    +0.008 A 
ENDBRANCH   3   7
TORSDOF 1
ENDMDL
MODEL 2
REMARK VINA RESULT:    -3.327      1.455      4.700
REMARK INTER + INTRA:          -3.746
REMARK INTER:                  -3.497
REMARK INTRA:                  -0.249
REMARK UNBOUND:                -0.224
REMARK  Name = Nicotine.pdb
REMARK  2 active torsions:
REMARK  status: ('A' for Active; 'I' for Inactive)
REMARK    1  A    between atoms: C_3  and  C_6
REMARK    2  A    between atoms: N_4  and  C_12
REMARK                            x       y       z     vdW  Elec       q    Type
REMARK                         _______ _______ _______ _____ _____    ______ ____
ROOT
ATOM      1  C   UNL     1       4.224   5.458   4.234  0.00  0.00    +0.017 C 
ATOM      2  C   UNL     1       3.068   4.559   4.746  0.00  0.00    +0.025 C 
ATOM      3  C   UNL     1       3.807   3.465   5.546  0.00  0.00    +0.088 C 
ATOM      4  N   UNL     1       5.192   3.419   5.045  0.00  0.00    -0.298 NA
ATOM      5  C   UNL     1       5.335   4.413   3.960  0.00  0.00    +0.085 C 
ATOM      6  C   UNL     1       6.152   3.677   6.127  0.00  0.00    +0.105 C 
ENDROOT
BRANCH   3   7
ATOM      7  C   UNL     1       3.137   2.133   5.330  0.00  0.00    -0.012 A 
ATOM      8  C   UNL     1       3.530   1.027   6.060  0.00  0.00    +0.115 A 
ATOM      9  N   UNL     1       2.949  -0.143   5.878  0.00  0.00    -0.263 NA
ATOM     10  C   UNL     1       1.980  -0.306   4.999  0.00  0.00    +0.111 A 
ATOM     11  C   UNL     1       1.534   0.754   4.233  0.00  0.00    +0.020 A 
ATOM     12  C   UNL     1       2.117   2.001   4.401  0.00  0.00    +0.008 A 
ENDBRANCH   3   7
TORSDOF 1
ENDMDL
MODEL 3
REMARK VINA RESULT:    -3.287      1.390      1.777
REMARK INTER + INTRA:          -3.703
REMARK INTER:                  -3.486
REMARK INTRA:                  -0.217
REMARK UNBOUND:                -0.224
REMARK  Name = Nicotine.pdb
REMARK  2 active torsions:
REMARK  status: ('A' for Active; 'I' for Inactive)
REMARK    1  A    between atoms: C_3  and  C_6
REMARK    2  A    between atoms: N_4  and  C_12
REMARK                            x       y       z     vdW  Elec       q    Type
REMARK                         _______ _______ _______ _____ _____    ______ ____
ROOT
ATOM      1  C   UNL     1       3.315   0.702   4.486  0.00  0.00    +0.017 C 
ATOM      2  C   UNL     1       3.798   2.164   4.675  0.00  0.00    +0.025 C 
ATOM      3  C   UNL     1       2.531   2.886   5.180  0.00  0.00    +0.088 C 
ATOM      4  N   UNL     1       1.371   2.082   4.756  0.00  0.00    -0.298 NA
ATOM      5  C   UNL     1       1.862   0.914   3.993  0.00  0.00    +0.085 C 
ATOM      6  C   UNL     1       0.572   1.657   5.913  0.00  0.00    +0.105 C 
ENDROOT
BRANCH   3   7
ATOM      7  C   UNL     1       2.450   4.264   4.575  0.00  0.00    -0.012 A 
ATOM      8  C   UNL     1       1.237   4.768   4.144  0.00  0.00    +0.115 A 
ATOM      9  N   UNL     1       1.157   5.973   3.614  0.00  0.00    -0.263 NA
ATOM     10  C   UNL     1       2.220   6.739   3.472  0.00  0.00    +0.111 A 
ATOM     11  C   UNL     1       3.467   6.303   3.881  0.00  0.00    +0.020 A 
ATOM     12  C   UNL     1       3.589   5.044   4.448  0.00  0.00    +0.008 A 
ENDBRANCH   3   7
TORSDOF 1
ENDMDL
MODEL 4
REMARK VINA RESULT:    -3.139      1.177      4.552
REMARK INTER + INTRA:          -3.546
REMARK INTER:                  -3.341
REMARK INTRA:                  -0.205
REMARK UNBOUND:                -0.224
REMARK  Name = Nicotine.pdb
REMARK  2 active torsions:
REMARK  status: ('A' for Active; 'I' for Inactive)
REMARK    1  A    between atoms: C_3  and  C_6
REMARK    2  A    between atoms: N_4  and  C_12
REMARK                            x       y       z     vdW  Elec       q    Type
REMARK                         _______ _______ _______ _____ _____    ______ ____
ROOT
ATOM      1  C   UNL     1       4.274   6.294   3.566  0.00  0.00    +0.017 C 
ATOM      2  C   UNL     1       3.155   5.408   4.175  0.00  0.00    +0.025 C 
ATOM      3  C   UNL     1       3.947   4.350   4.973  0.00  0.00    +0.088 C 
ATOM      4  N   UNL     1       5.303   4.293   4.398  0.00  0.00    -0.298 NA
ATOM      5  C   UNL     1       5.376   5.246   3.271  0.00  0.00    +0.085 C 
ATOM      6  C   UNL     1       6.319   4.599   5.414  0.00  0.00    +0.105 C 
ENDROOT
BRANCH   3   7
ATOM      7  C   UNL     1       3.278   3.006   4.845  0.00  0.00    -0.012 A 
ATOM      8  C   UNL     1       1.923   2.874   5.083  0.00  0.00    +0.115 A 
ATOM      9  N   UNL     1       1.329   1.701   4.973  0.00  0.00    -0.263 NA
ATOM     10  C   UNL     1       1.997   0.616   4.636  0.00  0.00    +0.111 A 
ATOM     11  C   UNL     1       3.355   0.670   4.382  0.00  0.00    +0.020 A 
ATOM     12  C   UNL     1       4.012   1.887   4.483  0.00  0.00    +0.008 A 
ENDBRANCH   3   7
TORSDOF 1
ENDMDL
MODEL 5
REMARK VINA RESULT:    -3.129      1.824      5.136
REMARK INTER + INTRA:          -3.536
REMARK INTER:                  -3.321
REMARK INTRA:                  -0.214
REMARK UNBOUND:                -0.224
REMARK  Name = Nicotine.pdb
REMARK  2 active torsions:
REMARK  status: ('A' for Active; 'I' for Inactive)
REMARK    1  A    between atoms: C_3  and  C_6
REMARK    2  A    between atoms: N_4  and  C_12
REMARK                            x       y       z     vdW  Elec       q    Type
REMARK                         _______ _______ _______ _____ _____    ______ ____
ROOT
ATOM      1  C   UNL     1       6.239   6.631   1.878  0.00  0.00    +0.017 C 
ATOM      2  C   UNL     1       4.933   6.315   2.653  0.00  0.00    +0.025 C 
ATOM      3  C   UNL     1       5.449   5.647   3.945  0.00  0.00    +0.088 C 
ATOM      4  N   UNL     1       6.796   5.122   3.657  0.00  0.00    -0.298 NA
ATOM      5  C   UNL     1       7.123   5.412   2.245  0.00  0.00    +0.085 C 
ATOM      6  C   UNL     1       7.794   5.708   4.561  0.00  0.00    +0.105 C 
ENDROOT
BRANCH   3   7
ATOM      7  C   UNL     1       4.531   4.519   4.341  0.00  0.00    -0.012 A 
ATOM      8  C   UNL     1       3.222   4.776   4.700  0.00  0.00    +0.115 A 
ATOM      9  N   UNL     1       2.412   3.795   5.047  0.00  0.00    -0.263 NA
ATOM     10  C   UNL     1       2.813   2.539   5.067  0.00  0.00    +0.111 A 
ATOM     11  C   UNL     1       4.109   2.205   4.720  0.00  0.00    +0.020 A 
ATOM     12  C   UNL     1       4.988   3.210   4.344  0.00  0.00    +0.008 A 
ENDBRANCH   3   7
TORSDOF 1
ENDMDL
MODEL 6
REMARK VINA RESULT:    -2.962      2.405      3.347
REMARK INTER + INTRA:          -3.359
REMARK INTER:                  -3.144
REMARK INTRA:                  -0.215
REMARK UNBOUND:                -0.224
REMARK  Name = Nicotine.pdb
REMARK  2 active torsions:
REMARK  status: ('A' for Active; 'I' for Inactive)
REMARK    1  A    between atoms: C_3  and  C_6
REMARK    2  A    between atoms: N_4  and  C_12
REMARK                            x       y       z     vdW  Elec       q    Type
REMARK                         _______ _______ _______ _____ _____    ______ ____
ROOT
ATOM      1  C   UNL     1       1.416   3.818   4.955  0.00  0.00    +0.017 C 
ATOM      2  C   UNL     1       2.952   4.036   4.966  0.00  0.00    +0.025 C 
ATOM      3  C   UNL     1       3.094   5.527   4.593  0.00  0.00    +0.088 C 
ATOM      4  N   UNL     1       1.860   5.920   3.888  0.00  0.00    -0.298 NA
ATOM      5  C   UNL     1       0.978   4.737   3.788  0.00  0.00    +0.085 C 
ATOM      6  C   UNL     1       1.185   7.023   4.583  0.00  0.00    +0.105 C 
ENDROOT
BRANCH   3   7
ATOM      7  C   UNL     1       4.285   5.718   3.690  0.00  0.00    -0.012 A 
ATOM      8  C   UNL     1       4.301   6.743   2.763  0.00  0.00    +0.115 A 
ATOM      9  N   UNL     1       5.340   6.917   1.969  0.00  0.00    -0.263 NA
ATOM     10  C   UNL     1       6.395   6.129   2.025  0.00  0.00    +0.111 A 
ATOM     11  C   UNL     1       6.450   5.084   2.927  0.00  0.00    +0.020 A 
ATOM     12  C   UNL     1       5.379   4.872   3.782  0.00  0.00    +0.008 A 
ENDBRANCH   3   7
TORSDOF 1
ENDMDL
MODEL 7
REMARK VINA RESULT:    -2.956      3.089      5.505
REMARK INTER + INTRA:          -3.353
REMARK INTER:                  -3.148
REMARK INTRA:                  -0.205
REMARK UNBOUND:                -0.224
REMARK  Name = Nicotine.pdb
REMARK  2 active torsions:
REMARK  status: ('A' for Active; 'I' for Inactive)
REMARK    1  A    between atoms: C_3  and  C_6
REMARK    2  A    between atoms: N_4  and  C_12
REMARK                            x       y       z     vdW  Elec       q    Type
REMARK                         _______ _______ _______ _____ _____    ______ ____
ROOT
ATOM      1  C   UNL     1       6.688   6.667   1.577  0.00  0.00    +0.017 C 
ATOM      2  C   UNL     1       5.175   6.976   1.717  0.00  0.00    +0.025 C 
ATOM      3  C   UNL     1       4.943   6.895   3.241  0.00  0.00    +0.088 C 
ATOM      4  N   UNL     1       6.027   6.070   3.804  0.00  0.00    -0.298 NA
ATOM      5  C   UNL     1       6.898   5.618   2.698  0.00  0.00    +0.085 C 
ATOM      6  C   UNL     1       6.794   6.819   4.807  0.00  0.00    +0.105 C 
ENDROOT
BRANCH   3   7
ATOM      7  C   UNL     1       3.609   6.254   3.524  0.00  0.00    -0.012 A 
ATOM      8  C   UNL     1       2.467   6.712   2.895  0.00  0.00    +0.115 A 
ATOM      9  N   UNL     1       1.295   6.157   3.137  0.00  0.00    -0.263 NA
ATOM     10  C   UNL     1       1.165   5.152   3.981  0.00  0.00    +0.111 A 
ATOM     11  C   UNL     1       2.264   4.641   4.647  0.00  0.00    +0.020 A 
ATOM     12  C   UNL     1       3.513   5.195   4.414  0.00  0.00    +0.008 A 
ENDBRANCH   3   7
TORSDOF 1
ENDMDL
MODEL 8
REMARK VINA RESULT:    -2.879      1.540      2.686
REMARK INTER + INTRA:          -3.271
REMARK INTER:                  -3.016
REMARK INTRA:                  -0.255
REMARK UNBOUND:                -0.224
REMARK  Name = Nicotine.pdb
REMARK  2 active torsions:
REMARK  status: ('A' for Active; 'I' for Inactive)
REMARK    1  A    between atoms: C_3  and  C_6
REMARK    2  A    between atoms: N_4  and  C_12
REMARK                            x       y       z     vdW  Elec       q    Type
REMARK                         _______ _______ _______ _____ _____    ______ ____
ROOT
ATOM      1  C   UNL     1       1.754  -0.118   4.794  0.00  0.00    +0.017 C 
ATOM      2  C   UNL     1       1.658   1.239   4.048  0.00  0.00    +0.025 C 
ATOM      3  C   UNL     1       2.869   2.023   4.596  0.00  0.00    +0.088 C 
ATOM      4  N   UNL     1       3.228   1.422   5.893  0.00  0.00    -0.298 NA
ATOM      5  C   UNL     1       2.281   0.324   6.182  0.00  0.00    +0.085 C 
ATOM      6  C   UNL     1       4.613   0.934   5.884  0.00  0.00    +0.105 C 
ENDROOT
BRANCH   3   7
ATOM      7  C   UNL     1       2.500   3.472   4.785  0.00  0.00    -0.012 A 
ATOM      8  C   UNL     1       3.483   4.425   4.974  0.00  0.00    +0.115 A 
ATOM      9  N   UNL     1       3.168   5.695   5.140  0.00  0.00    -0.263 NA
ATOM     10  C   UNL     1       1.916   6.105   5.133  0.00  0.00    +0.111 A 
ATOM     11  C   UNL     1       0.879   5.209   4.949  0.00  0.00    +0.020 A 
ATOM     12  C   UNL     1       1.171   3.866   4.766  0.00  0.00    +0.008 A 
ENDBRANCH   3   7
TORSDOF 1
ENDMDL
MODEL 9
REMARK VINA RESULT:    -2.723      1.884      2.921
REMARK INTER + INTRA:          -3.106
REMARK INTER:                  -2.890
REMARK INTRA:                  -0.216
REMARK UNBOUND:                -0.224
REMARK  Name = Nicotine.pdb
REMARK  2 active torsions:
REMARK  status: ('A' for Active; 'I' for Inactive)
REMARK    1  A    between atoms: C_3  and  C_6
REMARK    2  A    between atoms: N_4  and  C_12
REMARK                            x       y       z     vdW  Elec       q    Type
REMARK                         _______ _______ _______ _____ _____    ______ ____
ROOT
ATOM      1  C   UNL     1      -0.108   3.337   5.013  0.00  0.00    +0.017 C 
ATOM      2  C   UNL     1       1.332   3.669   4.543  0.00  0.00    +0.025 C 
ATOM      3  C   UNL     1       2.051   2.306   4.636  0.00  0.00    +0.088 C 
ATOM      4  N   UNL     1       1.292   1.477   5.590  0.00  0.00    -0.298 NA
ATOM      5  C   UNL     1       0.157   2.271   6.106  0.00  0.00    +0.085 C 
ATOM      6  C   UNL     1       0.823   0.239   4.954  0.00  0.00    +0.105 C 
ENDROOT
BRANCH   3   7
ATOM      7  C   UNL     1       3.459   2.502   5.134  0.00  0.00    -0.012 A 
ATOM      8  C   UNL     1       4.112   1.485   5.804  0.00  0.00    +0.115 A 
ATOM      9  N   UNL     1       5.345   1.649   6.243  0.00  0.00    -0.263 NA
ATOM     10  C   UNL     1       6.001   2.778   6.063  0.00  0.00    +0.111 A 
ATOM     11  C   UNL     1       5.413   3.840   5.401  0.00  0.00    +0.020 A 
ATOM     12  C   UNL     1       4.119   3.703   4.921  0.00  0.00    +0.008 A 
ENDBRANCH   3   7
TORSDOF 1
ENDMDL
MODEL 10
REMARK VINA RESULT:    -2.702      1.335      4.271
REMARK INTER + INTRA:          -3.084
REMARK INTER:                  -2.862
REMARK INTRA:                  -0.222
REMARK UNBOUND:                -0.224
REMARK  Name = Nicotine.pdb
REMARK  2 active torsions:
REMARK  status: ('A' for Active; 'I' for Inactive)
REMARK    1  A    between atoms: C_3  and  C_6
REMARK    2  A    between atoms: N_4  and  C_12
REMARK                            x       y       z     vdW  Elec       q    Type
REMARK                         _______ _______ _______ _____ _____    ______ ____
ROOT
ATOM      1  C   UNL     1       4.624   5.695   5.807  0.00  0.00    +0.017 C 
ATOM      2  C   UNL     1       4.765   4.252   5.255  0.00  0.00    +0.025 C 
ATOM      3  C   UNL     1       3.395   3.999   4.591  0.00  0.00    +0.088 C 
ATOM      4  N   UNL     1       2.432   4.928   5.209  0.00  0.00    -0.298 NA
ATOM      5  C   UNL     1       3.137   5.721   6.238  0.00  0.00    +0.085 C 
ATOM      6  C   UNL     1       1.818   5.800   4.200  0.00  0.00    +0.105 C 
ENDROOT
BRANCH   3   7
ATOM      7  C   UNL     1       2.964   2.576   4.832  0.00  0.00    -0.012 A 
ATOM      8  C   UNL     1       1.701   2.301   5.320  0.00  0.00    +0.115 A 
ATOM      9  N   UNL     1       1.315   1.058   5.533  0.00  0.00    -0.263 NA
ATOM     10  C   UNL     1       2.111   0.035   5.293  0.00  0.00    +0.111 A 
ATOM     11  C   UNL     1       3.389   0.232   4.803  0.00  0.00    +0.020 A 
ATOM     12  C   UNL     1       3.827   1.525   4.561  0.00  0.00    +0.008 A 
ENDBRANCH   3   7
TORSDOF 1
ENDMDL
