MODEL 1
REMARK VINA RESULT:    -3.900      0.000      0.000
REMARK INTER + INTRA:          -4.362
REMARK INTER:                  -4.128
REMARK INTRA:                  -0.234
REMARK UNBOUND:                -0.234
REMARK  Name = Nicotine.pdb
REMARK  2 active torsions:
REMARK  status: ('A' for Active; 'I' for Inactive)
REMARK    1  A    between atoms: C_3  and  C_6
REMARK    2  A    between atoms: N_4  and  C_12
REMARK                            x       y       z     vdW  Elec       q    Type
REMARK                         _______ _______ _______ _____ _____    ______ ____
ROOT
ATOM      1  C   UNL     1       6.215   3.658  -7.143  0.00  0.00    +0.017 C 
ATOM      2  C   UNL     1       6.644   2.173  -7.010  0.00  0.00    +0.025 C 
ATOM      3  C   UNL     1       7.500   2.173  -5.726  0.00  0.00    +0.088 C 
ATOM      4  N   UNL     1       7.975   3.553  -5.517  0.00  0.00    -0.298 NA
ATOM      5  C   UNL     1       7.474   4.396  -6.623  0.00  0.00    +0.085 C 
ATOM      6  C   UNL     1       7.532   4.071  -4.216  0.00  0.00    +0.105 C 
ENDROOT
BRANCH   3   7
ATOM      7  C   UNL     1       8.675   1.245  -5.893  0.00  0.00    -0.012 A 
ATOM      8  C   UNL     1       8.965   0.303  -4.924  0.00  0.00    +0.115 A 
ATOM      9  N   UNL     1       9.992  -0.514  -5.062  0.00  0.00    -0.263 NA
ATOM     10  C   UNL     1      10.777  -0.466  -6.120  0.00  0.00    +0.111 A 
ATOM     11  C   UNL     1      10.549   0.449  -7.131  0.00  0.00    +0.020 A 
ATOM     12  C   UNL     1       9.476   1.320  -7.022  0.00  0.00    +0.008 A 
ENDBRANCH   3   7
TORSDOF 1
ENDMDL
MODEL 2
REMARK VINA RESULT:    -3.855      1.565      4.709
REMARK INTER + INTRA:          -4.314
REMARK INTER:                  -4.060
REMARK INTRA:                  -0.254
REMARK UNBOUND:                -0.234
REMARK  Name = Nicotine.pdb
REMARK  2 active torsions:
REMARK  status: ('A' for Active; 'I' for Inactive)
REMARK    1  A    between atoms: C_3  and  C_6
REMARK    2  A    between atoms: N_4  and  C_12
REMARK                            x       y       z     vdW  Elec       q    Type
REMARK                         _______ _______ _______ _____ _____    ______ ____
ROOT
ATOM      1  C   UNL     1       9.372  -0.023  -5.001  0.00  0.00    +0.017 C 
ATOM      2  C   UNL     1       8.123   0.805  -5.403  0.00  0.00    +0.025 C 
ATOM      3  C   UNL     1       8.702   1.862  -6.367  0.00  0.00    +0.088 C 
ATOM      4  N   UNL     1      10.141   1.983  -6.070  0.00  0.00    -0.298 NA
ATOM      5  C   UNL     1      10.469   1.070  -4.954  0.00  0.00    +0.085 C 
ATOM      6  C   UNL     1      10.951   1.678  -7.256  0.00  0.00    +0.105 C 
ENDROOT
BRANCH   3   7
ATOM      7  C   UNL     1       8.019   3.187  -6.145  0.00  0.00    -0.012 A 
ATOM      8  C   UNL     1       7.839   4.065  -7.197  0.00  0.00    +0.115 A 
ATOM      9  N   UNL     1       7.241   5.226  -7.012  0.00  0.00    -0.263 NA
ATOM     10  C   UNL     1       6.795   5.595  -5.828  0.00  0.00    +0.111 A 
ATOM     11  C   UNL     1       6.939   4.769  -4.729  0.00  0.00    +0.020 A 
ATOM     12  C   UNL     1       7.557   3.538  -4.886  0.00  0.00    +0.008 A 
ENDBRANCH   3   7
TORSDOF 1
ENDMDL
MODEL 3
REMARK VINA RESULT:    -3.819      0.980      1.985
REMARK INTER + INTRA:          -4.277
REMARK INTER:                  -4.075
REMARK INTRA:                  -0.201
REMARK UNBOUND:                -0.234
REMARK  Name = Nicotine.pdb
REMARK  2 active torsions:
REMARK  status: ('A' for Active; 'I' for Inactive)
REMARK    1  A    between atoms: C_3  and  C_6
REMARK    2  A    between atoms: N_4  and  C_12
REMARK                            x       y       z     vdW  Elec       q    Type
REMARK                         _______ _______ _______ _____ _____    ______ ____
ROOT
ATOM      1  C   UNL     1       7.377   3.885  -4.157  0.00  0.00    +0.017 C 
ATOM      2  C   UNL     1       8.783   3.254  -4.332  0.00  0.00    +0.025 C 
ATOM      3  C   UNL     1       8.702   2.610  -5.733  0.00  0.00    +0.088 C 
ATOM      4  N   UNL     1       7.276   2.392  -6.032  0.00  0.00    -0.298 NA
ATOM      5  C   UNL     1       6.477   2.847  -4.874  0.00  0.00    +0.085 C 
ATOM      6  C   UNL     1       6.880   3.100  -7.256  0.00  0.00    +0.105 C 
ENDROOT
BRANCH   3   7
ATOM      7  C   UNL     1       9.435   1.293  -5.734  0.00  0.00    -0.012 A 
ATOM      8  C   UNL     1       9.256   0.392  -4.701  0.00  0.00    +0.115 A 
ATOM      9  N   UNL     1       9.893  -0.763  -4.695  0.00  0.00    -0.263 NA
ATOM     10  C   UNL     1      10.719  -1.103  -5.664  0.00  0.00    +0.111 A 
ATOM     11  C   UNL     1      10.948  -0.254  -6.731  0.00  0.00    +0.020 A 
ATOM     12  C   UNL     1      10.292   0.966  -6.774  0.00  0.00    +0.008 A 
ENDBRANCH   3   7
TORSDOF 1
ENDMDL
MODEL 4
REMARK VINA RESULT:    -3.526      1.489      4.296
REMARK INTER + INTRA:          -3.966
REMARK INTER:                  -3.795
REMARK INTRA:                  -0.171
REMARK UNBOUND:                -0.234
REMARK  Name = Nicotine.pdb
REMARK  2 active torsions:
REMARK  status: ('A' for Active; 'I' for Inactive)
REMARK    1  A    between atoms: C_3  and  C_6
REMARK    2  A    between atoms: N_4  and  C_12
REMARK                            x       y       z     vdW  Elec       q    Type
REMARK                         _______ _______ _______ _____ _____    ______ ____
ROOT
ATOM      1  C   UNL     1      10.349  -0.041  -6.553  0.00  0.00    +0.017 C 
ATOM      2  C   UNL     1       9.395   1.018  -7.166  0.00  0.00    +0.025 C 
ATOM      3  C   UNL     1       9.368   2.125  -6.091  0.00  0.00    +0.088 C 
ATOM      4  N   UNL     1       9.762   1.504  -4.814  0.00  0.00    -0.298 NA
ATOM      5  C   UNL     1      10.005   0.064  -5.046  0.00  0.00    +0.085 C 
ATOM      6  C   UNL     1      10.954   2.156  -4.256  0.00  0.00    +0.105 C 
ENDROOT
BRANCH   3   7
ATOM      7  C   UNL     1       7.979   2.696  -5.977  0.00  0.00    -0.012 A 
ATOM      8  C   UNL     1       6.943   1.924  -5.487  0.00  0.00    +0.115 A 
ATOM      9  N   UNL     1       5.724   2.416  -5.384  0.00  0.00    -0.263 NA
ATOM     10  C   UNL     1       5.444   3.654  -5.742  0.00  0.00    +0.111 A 
ATOM     11  C   UNL     1       6.428   4.486  -6.240  0.00  0.00    +0.020 A 
ATOM     12  C   UNL     1       7.723   4.005  -6.358  0.00  0.00    +0.008 A 
ENDBRANCH   3   7
TORSDOF 1
ENDMDL
MODEL 5
REMARK VINA RESULT:    -2.900      1.867      4.938
REMARK INTER + INTRA:          -3.304
REMARK INTER:                  -3.089
REMARK INTRA:                  -0.215
REMARK UNBOUND:                -0.234
REMARK  Name = Nicotine.pdb
REMARK  2 active torsions:
REMARK  status: ('A' for Active; 'I' for Inactive)
REMARK    1  A    between atoms: C_3  and  C_6
REMARK    2  A    between atoms: N_4  and  C_12
REMARK                            x       y       z     vdW  Elec       q    Type
REMARK                         _______ _______ _______ _____ _____    ______ ____
ROOT
ATOM      1  C   UNL     1      10.577   1.617  -4.652  0.00  0.00    +0.017 C 
ATOM      2  C   UNL     1       9.358   2.505  -4.291  0.00  0.00    +0.025 C 
ATOM      3  C   UNL     1       8.456   2.381  -5.537  0.00  0.00    +0.088 C 
ATOM      4  N   UNL     1       9.319   1.978  -6.662  0.00  0.00    -0.298 NA
ATOM      5  C   UNL     1      10.711   1.873  -6.174  0.00  0.00    +0.085 C 
ATOM      6  C   UNL     1       8.868   0.707  -7.244  0.00  0.00    +0.105 C 
ENDROOT
BRANCH   3   7
ATOM      7  C   UNL     1       7.809   3.708  -5.836  0.00  0.00    -0.012 A 
ATOM      8  C   UNL     1       8.144   4.408  -6.980  0.00  0.00    +0.115 A 
ATOM      9  N   UNL     1       7.581   5.570  -7.249  0.00  0.00    -0.263 NA
ATOM     10  C   UNL     1       6.685   6.109  -6.446  0.00  0.00    +0.111 A 
ATOM     11  C   UNL     1       6.300   5.467  -5.284  0.00  0.00    +0.020 A 
ATOM     12  C   UNL     1       6.865   4.241  -4.971  0.00  0.00    +0.008 A 
ENDBRANCH   3   7
TORSDOF 1
ENDMDL
MODEL 6
REMARK VINA RESULT:    -1.706      1.511      2.395
REMARK INTER + INTRA:          -2.040
REMARK INTER:                  -1.784
REMARK INTRA:                  -0.256
REMARK UNBOUND:                -0.234
REMARK  Name = Nicotine.pdb
REMARK  2 active torsions:
REMARK  status: ('A' for Active; 'I' for Inactive)
REMARK    1  A    between atoms: C_3  and  C_6
REMARK    2  A    between atoms: N_4  and  C_12
REMARK                            x       y       z     vdW  Elec       q    Type
REMARK                         _______ _______ _______ _____ _____    ______ ____
ROOT
ATOM      1  C   UNL     1       6.431   5.063  -5.018  0.00  0.00    +0.017 C 
ATOM      2  C   UNL     1       7.874   4.663  -5.424  0.00  0.00    +0.025 C 
ATOM      3  C   UNL     1       7.649   3.453  -6.356  0.00  0.00    +0.088 C 
ATOM      4  N   UNL     1       6.326   2.891  -6.032  0.00  0.00    -0.298 NA
ATOM      5  C   UNL     1       5.737   3.681  -4.929  0.00  0.00    +0.085 C 
ATOM      6  C   UNL     1       5.449   2.894  -7.210  0.00  0.00    +0.105 C 
ENDROOT
BRANCH   3   7
ATOM      7  C   UNL     1       8.719   2.418  -6.120  0.00  0.00    -0.012 A 
ATOM      8  C   UNL     1       9.028   1.495  -7.101  0.00  0.00    +0.115 A 
ATOM      9  N   UNL     1       9.963   0.587  -6.902  0.00  0.00    -0.263 NA
ATOM     10  C   UNL     1      10.635   0.520  -5.770  0.00  0.00    +0.111 A 
ATOM     11  C   UNL     1      10.382   1.410  -4.743  0.00  0.00    +0.020 A 
ATOM     12  C   UNL     1       9.409   2.383  -4.918  0.00  0.00    +0.008 A 
ENDBRANCH   3   7
TORSDOF 1
ENDMDL
