MODEL 1
REMARK VINA RESULT:    -2.410      0.000      0.000
REMARK INTER + INTRA:          -2.771
REMARK INTER:                  -2.551
REMARK INTRA:                  -0.220
REMARK UNBOUND:                -0.220
REMARK  Name = Nicotine.pdb
REMARK  2 active torsions:
REMARK  status: ('A' for Active; 'I' for Inactive)
REMARK    1  A    between atoms: C_3  and  C_6
REMARK    2  A    between atoms: N_4  and  C_12
REMARK                            x       y       z     vdW  Elec       q    Type
REMARK                         _______ _______ _______ _____ _____    ______ ____
ROOT
ATOM      1  C   UNL     1      -2.741  -6.094   3.244  0.00  0.00    +0.017 C 
ATOM      2  C   UNL     1      -2.017  -5.099   4.189  0.00  0.00    +0.025 C 
ATOM      3  C   UNL     1      -3.105  -4.752   5.228  0.00  0.00    +0.088 C 
ATOM      4  N   UNL     1      -4.410  -5.038   4.605  0.00  0.00    -0.298 NA
ATOM      5  C   UNL     1      -4.179  -5.519   3.226  0.00  0.00    +0.085 C 
ATOM      6  C   UNL     1      -5.162  -6.027   5.389  0.00  0.00    +0.105 C 
ENDROOT
BRANCH   3   7
ATOM      7  C   UNL     1      -3.019  -3.293   5.594  0.00  0.00    -0.012 A 
ATOM      8  C   UNL     1      -4.157  -2.511   5.619  0.00  0.00    +0.115 A 
ATOM      9  N   UNL     1      -4.091  -1.233   5.939  0.00  0.00    -0.263 NA
ATOM     10  C   UNL     1      -2.946  -0.653   6.243  0.00  0.00    +0.111 A 
ATOM     11  C   UNL     1      -1.766  -1.373   6.240  0.00  0.00    +0.020 A 
ATOM     12  C   UNL     1      -1.798  -2.720   5.914  0.00  0.00    +0.008 A 
ENDBRANCH   3   7
TORSDOF 1
ENDMDL
MODEL 2
REMARK VINA RESULT:    -2.070      1.415      1.799
REMARK INTER + INTRA:          -2.411
REMARK INTER:                  -2.178
REMARK INTRA:                  -0.233
REMARK UNBOUND:                -0.220
REMARK  Name = Nicotine.pdb
REMARK  2 active torsions:
REMARK  status: ('A' for Active; 'I' for Inactive)
REMARK    1  A    between atoms: C_3  and  C_6
REMARK    2  A    between atoms: N_4  and  C_12
REMARK                            x       y       z     vdW  Elec       q    Type
REMARK                         _______ _______ _______ _____ _____    ______ ____
ROOT
ATOM      1  C   UNL     1      -0.997  -5.135   4.222  0.00  0.00    +0.017 C 
ATOM      2  C   UNL     1      -0.871  -4.101   5.372  0.00  0.00    +0.025 C 
ATOM      3  C   UNL     1      -2.294  -3.510   5.465  0.00  0.00    +0.088 C 
ATOM      4  N   UNL     1      -2.949  -3.742   4.165  0.00  0.00    -0.298 NA
ATOM      5  C   UNL     1      -1.990  -4.424   3.269  0.00  0.00    +0.085 C 
ATOM      6  C   UNL     1      -4.175  -4.535   4.326  0.00  0.00    +0.105 C 
ENDROOT
BRANCH   3   7
ATOM      7  C   UNL     1      -2.218  -2.032   5.745  0.00  0.00    -0.012 A 
ATOM      8  C   UNL     1      -3.367  -1.264   5.764  0.00  0.00    +0.115 A 
ATOM      9  N   UNL     1      -3.310   0.030   6.009  0.00  0.00    -0.263 NA
ATOM     10  C   UNL     1      -2.165   0.641   6.244  0.00  0.00    +0.111 A 
ATOM     11  C   UNL     1      -0.975  -0.062   6.242  0.00  0.00    +0.020 A 
ATOM     12  C   UNL     1      -0.996  -1.425   5.993  0.00  0.00    +0.008 A 
ENDBRANCH   3   7
TORSDOF 1
ENDMDL
MODEL 3
REMARK VINA RESULT:    -1.821      1.452      2.137
REMARK INTER + INTRA:          -2.148
REMARK INTER:                  -1.928
REMARK INTRA:                  -0.219
REMARK UNBOUND:                -0.220
REMARK  Name = Nicotine.pdb
REMARK  2 active torsions:
REMARK  status: ('A' for Active; 'I' for Inactive)
REMARK    1  A    between atoms: C_3  and  C_6
REMARK    2  A    between atoms: N_4  and  C_12
REMARK                            x       y       z     vdW  Elec       q    Type
REMARK                         _______ _______ _______ _____ _____    ______ ____
ROOT
ATOM      1  C   UNL     1      -2.506  -5.854   3.311  0.00  0.00    +0.017 C 
ATOM      2  C   UNL     1      -2.223  -4.329   3.332  0.00  0.00    +0.025 C 
ATOM      3  C   UNL     1      -1.719  -4.090   4.771  0.00  0.00    +0.088 C 
ATOM      4  N   UNL     1      -2.222  -5.199   5.601  0.00  0.00    -0.298 NA
ATOM      5  C   UNL     1      -3.032  -6.095   4.748  0.00  0.00    +0.085 C 
ATOM      6  C   UNL     1      -1.115  -5.930   6.231  0.00  0.00    +0.105 C 
ENDROOT
BRANCH   3   7
ATOM      7  C   UNL     1      -2.250  -2.778   5.289  0.00  0.00    -0.012 A 
ATOM      8  C   UNL     1      -1.381  -1.788   5.708  0.00  0.00    +0.115 A 
ATOM      9  N   UNL     1      -1.838  -0.638   6.163  0.00  0.00    -0.263 NA
ATOM     10  C   UNL     1      -3.130  -0.386   6.237  0.00  0.00    +0.111 A 
ATOM     11  C   UNL     1      -4.059  -1.328   5.836  0.00  0.00    +0.020 A 
ATOM     12  C   UNL     1      -3.616  -2.547   5.347  0.00  0.00    +0.008 A 
ENDBRANCH   3   7
TORSDOF 1
ENDMDL
MODEL 4
REMARK VINA RESULT:    -1.492      1.585      2.359
REMARK INTER + INTRA:          -1.800
REMARK INTER:                  -1.602
REMARK INTRA:                  -0.198
REMARK UNBOUND:                -0.220
REMARK  Name = Nicotine.pdb
REMARK  2 active torsions:
REMARK  status: ('A' for Active; 'I' for Inactive)
REMARK    1  A    between atoms: C_3  and  C_6
REMARK    2  A    between atoms: N_4  and  C_12
REMARK                            x       y       z     vdW  Elec       q    Type
REMARK                         _______ _______ _______ _____ _____    ______ ____
ROOT
ATOM      1  C   UNL     1      -1.106  -5.488   5.285  0.00  0.00    +0.017 C 
ATOM      2  C   UNL     1      -1.042  -4.250   6.218  0.00  0.00    +0.025 C 
ATOM      3  C   UNL     1      -2.389  -3.545   5.951  0.00  0.00    +0.088 C 
ATOM      4  N   UNL     1      -2.862  -3.991   4.629  0.00  0.00    -0.298 NA
ATOM      5  C   UNL     1      -1.860  -4.917   4.058  0.00  0.00    +0.085 C 
ATOM      6  C   UNL     1      -4.178  -4.636   4.729  0.00  0.00    +0.105 C 
ENDROOT
BRANCH   3   7
ATOM      7  C   UNL     1      -2.194  -2.051   5.950  0.00  0.00    -0.012 A 
ATOM      8  C   UNL     1      -0.957  -1.507   6.243  0.00  0.00    +0.115 A 
ATOM      9  N   UNL     1      -0.778  -0.201   6.244  0.00  0.00    -0.263 NA
ATOM     10  C   UNL     1      -1.761   0.634   5.969  0.00  0.00    +0.111 A 
ATOM     11  C   UNL     1      -3.025   0.164   5.667  0.00  0.00    +0.020 A 
ATOM     12  C   UNL     1      -3.250  -1.204   5.651  0.00  0.00    +0.008 A 
ENDBRANCH   3   7
TORSDOF 1
ENDMDL
MODEL 5
REMARK VINA RESULT:    -1.182      1.906      2.862
REMARK INTER + INTRA:          -1.471
REMARK INTER:                  -1.267
REMARK INTRA:                  -0.203
REMARK UNBOUND:                -0.220
REMARK  Name = Nicotine.pdb
REMARK  2 active torsions:
REMARK  status: ('A' for Active; 'I' for Inactive)
REMARK    1  A    between atoms: C_3  and  C_6
REMARK    2  A    between atoms: N_4  and  C_12
REMARK                            x       y       z     vdW  Elec       q    Type
REMARK                         _______ _______ _______ _____ _____    ______ ____
ROOT
ATOM      1  C   UNL     1      -0.190  -5.914   5.930  0.00  0.00    +0.017 C 
ATOM      2  C   UNL     1      -1.673  -5.573   6.233  0.00  0.00    +0.025 C 
ATOM      3  C   UNL     1      -2.092  -4.728   5.012  0.00  0.00    +0.088 C 
ATOM      4  N   UNL     1      -0.860  -4.174   4.421  0.00  0.00    -0.298 NA
ATOM      5  C   UNL     1       0.293  -4.617   5.234  0.00  0.00    +0.085 C 
ATOM      6  C   UNL     1      -0.711  -4.596   3.022  0.00  0.00    +0.105 C 
ENDROOT
BRANCH   3   7
ATOM      7  C   UNL     1      -3.000  -3.609   5.450  0.00  0.00    -0.012 A 
ATOM      8  C   UNL     1      -4.338  -3.850   5.698  0.00  0.00    +0.115 A 
ATOM      9  N   UNL     1      -5.140  -2.876   6.082  0.00  0.00    -0.263 NA
ATOM     10  C   UNL     1      -4.703  -1.643   6.243  0.00  0.00    +0.111 A 
ATOM     11  C   UNL     1      -3.378  -1.325   6.015  0.00  0.00    +0.020 A 
ATOM     12  C   UNL     1      -2.504  -2.324   5.615  0.00  0.00    +0.008 A 
ENDBRANCH   3   7
TORSDOF 1
ENDMDL
MODEL 6
REMARK VINA RESULT:     0.581      2.403      4.119
REMARK INTER + INTRA:           0.394
REMARK INTER:                   0.592
REMARK INTRA:                  -0.198
REMARK UNBOUND:                -0.220
REMARK  Name = Nicotine.pdb
REMARK  2 active torsions:
REMARK  status: ('A' for Active; 'I' for Inactive)
REMARK    1  A    between atoms: C_3  and  C_6
REMARK    2  A    between atoms: N_4  and  C_12
REMARK                            x       y       z     vdW  Elec       q    Type
REMARK                         _______ _______ _______ _____ _____    ______ ____
ROOT
ATOM      1  C   UNL     1      -1.208  -2.686   5.890  0.00  0.00    +0.017 C 
ATOM      2  C   UNL     1      -1.180  -1.176   6.244  0.00  0.00    +0.025 C 
ATOM      3  C   UNL     1      -2.654  -0.751   6.069  0.00  0.00    +0.088 C 
ATOM      4  N   UNL     1      -3.288  -1.732   5.169  0.00  0.00    -0.298 NA
ATOM      5  C   UNL     1      -2.270  -2.724   4.762  0.00  0.00    +0.085 C 
ATOM      6  C   UNL     1      -4.429  -2.385   5.822  0.00  0.00    +0.105 C 
ENDROOT
BRANCH   3   7
ATOM      7  C   UNL     1      -2.722   0.625   5.459  0.00  0.00    -0.012 A 
ATOM      8  C   UNL     1      -3.032   0.782   4.122  0.00  0.00    +0.115 A 
ATOM      9  N   UNL     1      -3.094   1.983   3.580  0.00  0.00    -0.263 NA
ATOM     10  C   UNL     1      -2.864   3.074   4.285  0.00  0.00    +0.111 A 
ATOM     11  C   UNL     1      -2.548   2.995   5.628  0.00  0.00    +0.020 A 
ATOM     12  C   UNL     1      -2.479   1.749   6.233  0.00  0.00    +0.008 A 
ENDBRANCH   3   7
TORSDOF 1
ENDMDL
