MODEL 1
REMARK VINA RESULT:    -3.732      0.000      0.000
REMARK INTER + INTRA:          -4.204
REMARK INTER:                  -3.950
REMARK INTRA:                  -0.253
REMARK UNBOUND:                -0.253
REMARK  Name = Nicotine.pdb
REMARK  2 active torsions:
REMARK  status: ('A' for Active; 'I' for Inactive)
REMARK    1  A    between atoms: C_3  and  C_6
REMARK    2  A    between atoms: N_4  and  C_12
REMARK                            x       y       z     vdW  Elec       q    Type
REMARK                         _______ _______ _______ _____ _____    ______ ____
ROOT
ATOM      1  C   UNL     1      -2.982   3.554  -0.265  0.00  0.00    +0.017 C 
ATOM      2  C   UNL     1      -1.853   2.631   0.264  0.00  0.00    +0.025 C 
ATOM      3  C   UNL     1      -2.627   1.410   0.805  0.00  0.00    +0.088 C 
ATOM      4  N   UNL     1      -4.004   1.855   1.085  0.00  0.00    -0.298 NA
ATOM      5  C   UNL     1      -4.107   3.296   0.768  0.00  0.00    +0.085 C 
ATOM      6  C   UNL     1      -4.978   1.074   0.312  0.00  0.00    +0.105 C 
ENDROOT
BRANCH   3   7
ATOM      7  C   UNL     1      -1.980   0.912   2.071  0.00  0.00    -0.012 A 
ATOM      8  C   UNL     1      -1.965  -0.438   2.364  0.00  0.00    +0.115 A 
ATOM      9  N   UNL     1      -1.401  -0.883   3.470  0.00  0.00    -0.263 NA
ATOM     10  C   UNL     1      -0.833  -0.066   4.335  0.00  0.00    +0.111 A 
ATOM     11  C   UNL     1      -0.809   1.298   4.110  0.00  0.00    +0.020 A 
ATOM     12  C   UNL     1      -1.388   1.802   2.955  0.00  0.00    +0.008 A 
ENDBRANCH   3   7
TORSDOF 1
ENDMDL
MODEL 2
REMARK VINA RESULT:    -3.731      1.829      2.748
REMARK INTER + INTRA:          -4.202
REMARK INTER:                  -3.995
REMARK INTRA:                  -0.207
REMARK UNBOUND:                -0.253
REMARK  Name = Nicotine.pdb
REMARK  2 active torsions:
REMARK  status: ('A' for Active; 'I' for Inactive)
REMARK    1  A    between atoms: C_3  and  C_6
REMARK    2  A    between atoms: N_4  and  C_12
REMARK                            x       y       z     vdW  Elec       q    Type
REMARK                         _______ _______ _______ _____ _____    ______ ____
ROOT
ATOM      1  C   UNL     1      -3.923   1.171   0.951  0.00  0.00    +0.017 C 
ATOM      2  C   UNL     1      -3.608   1.994   2.228  0.00  0.00    +0.025 C 
ATOM      3  C   UNL     1      -2.225   2.604   1.915  0.00  0.00    +0.088 C 
ATOM      4  N   UNL     1      -1.598   1.759   0.883  0.00  0.00    -0.298 NA
ATOM      5  C   UNL     1      -2.518   0.646   0.563  0.00  0.00    +0.085 C 
ATOM      6  C   UNL     1      -1.282   2.542  -0.318  0.00  0.00    +0.105 C 
ENDROOT
BRANCH   3   7
ATOM      7  C   UNL     1      -1.375   2.610   3.159  0.00  0.00    -0.012 A 
ATOM      8  C   UNL     1      -1.392   1.531   4.023  0.00  0.00    +0.115 A 
ATOM      9  N   UNL     1      -0.651   1.529   5.114  0.00  0.00    -0.263 NA
ATOM     10  C   UNL     1       0.130   2.545   5.424  0.00  0.00    +0.111 A 
ATOM     11  C   UNL     1       0.200   3.658   4.607  0.00  0.00    +0.020 A 
ATOM     12  C   UNL     1      -0.561   3.695   3.449  0.00  0.00    +0.008 A 
ENDBRANCH   3   7
TORSDOF 1
ENDMDL
MODEL 3
REMARK VINA RESULT:    -3.618     11.346     12.655
REMARK INTER + INTRA:          -4.083
REMARK INTER:                  -3.873
REMARK INTRA:                  -0.209
REMARK UNBOUND:                -0.253
REMARK  Name = Nicotine.pdb
REMARK  2 active torsions:
REMARK  status: ('A' for Active; 'I' for Inactive)
REMARK    1  A    between atoms: C_3  and  C_6
REMARK    2  A    between atoms: N_4  and  C_12
REMARK                            x       y       z     vdW  Elec       q    Type
REMARK                         _______ _______ _______ _____ _____    ______ ____
ROOT
ATOM      1  C   UNL     1      10.622  -3.805   4.676  0.00  0.00    +0.017 C 
ATOM      2  C   UNL     1      10.177  -4.167   3.235  0.00  0.00    +0.025 C 
ATOM      3  C   UNL     1       8.775  -3.528   3.134  0.00  0.00    +0.088 C 
ATOM      4  N   UNL     1       8.271  -3.363   4.509  0.00  0.00    -0.298 NA
ATOM      5  C   UNL     1       9.283  -3.892   5.449  0.00  0.00    +0.085 C 
ATOM      6  C   UNL     1       7.971  -1.954   4.795  0.00  0.00    +0.105 C 
ENDROOT
BRANCH   3   7
ATOM      7  C   UNL     1       7.855  -4.432   2.354  0.00  0.00    -0.012 A 
ATOM      8  C   UNL     1       6.829  -5.103   2.992  0.00  0.00    +0.115 A 
ATOM      9  N   UNL     1       6.019  -5.895   2.316  0.00  0.00    -0.263 NA
ATOM     10  C   UNL     1       6.154  -6.079   1.018  0.00  0.00    +0.111 A 
ATOM     11  C   UNL     1       7.157  -5.440   0.312  0.00  0.00    +0.020 A 
ATOM     12  C   UNL     1       8.024  -4.595   0.988  0.00  0.00    +0.008 A 
ENDBRANCH   3   7
TORSDOF 1
ENDMDL
MODEL 4
REMARK VINA RESULT:    -3.414      9.576     11.502
REMARK INTER + INTRA:          -3.867
REMARK INTER:                  -3.613
REMARK INTRA:                  -0.254
REMARK UNBOUND:                -0.253
REMARK  Name = Nicotine.pdb
REMARK  2 active torsions:
REMARK  status: ('A' for Active; 'I' for Inactive)
REMARK    1  A    between atoms: C_3  and  C_6
REMARK    2  A    between atoms: N_4  and  C_12
REMARK                            x       y       z     vdW  Elec       q    Type
REMARK                         _______ _______ _______ _____ _____    ______ ____
ROOT
ATOM      1  C   UNL     1       9.935  -3.926   2.826  0.00  0.00    +0.017 C 
ATOM      2  C   UNL     1       9.388  -3.499   4.214  0.00  0.00    +0.025 C 
ATOM      3  C   UNL     1       7.963  -4.093   4.222  0.00  0.00    +0.088 C 
ATOM      4  N   UNL     1       7.565  -4.294   2.818  0.00  0.00    -0.298 NA
ATOM      5  C   UNL     1       8.664  -3.829   1.945  0.00  0.00    +0.085 C 
ATOM      6  C   UNL     1       7.245  -5.704   2.557  0.00  0.00    +0.105 C 
ENDROOT
BRANCH   3   7
ATOM      7  C   UNL     1       7.013  -3.137   4.895  0.00  0.00    -0.012 A 
ATOM      8  C   UNL     1       5.928  -3.613   5.605  0.00  0.00    +0.115 A 
ATOM      9  N   UNL     1       5.091  -2.783   6.197  0.00  0.00    -0.263 NA
ATOM     10  C   UNL     1       5.253  -1.476   6.136  0.00  0.00    +0.111 A 
ATOM     11  C   UNL     1       6.316  -0.926   5.444  0.00  0.00    +0.020 A 
ATOM     12  C   UNL     1       7.219  -1.768   4.813  0.00  0.00    +0.008 A 
ENDBRANCH   3   7
TORSDOF 1
ENDMDL
MODEL 5
REMARK VINA RESULT:    -3.409      1.957      3.515
REMARK INTER + INTRA:          -3.862
REMARK INTER:                  -3.648
REMARK INTRA:                  -0.213
REMARK UNBOUND:                -0.253
REMARK  Name = Nicotine.pdb
REMARK  2 active torsions:
REMARK  status: ('A' for Active; 'I' for Inactive)
REMARK    1  A    between atoms: C_3  and  C_6
REMARK    2  A    between atoms: N_4  and  C_12
REMARK                            x       y       z     vdW  Elec       q    Type
REMARK                         _______ _______ _______ _____ _____    ______ ____
ROOT
ATOM      1  C   UNL     1      -1.013   3.447   3.213  0.00  0.00    +0.017 C 
ATOM      2  C   UNL     1      -1.338   2.650   1.922  0.00  0.00    +0.025 C 
ATOM      3  C   UNL     1      -2.880   2.586   1.933  0.00  0.00    +0.088 C 
ATOM      4  N   UNL     1      -3.316   2.787   3.326  0.00  0.00    -0.298 NA
ATOM      5  C   UNL     1      -2.117   2.946   4.177  0.00  0.00    +0.085 C 
ATOM      6  C   UNL     1      -4.201   3.954   3.439  0.00  0.00    +0.105 C 
ENDROOT
BRANCH   3   7
ATOM      7  C   UNL     1      -3.341   1.240   1.439  0.00  0.00    -0.012 A 
ATOM      8  C   UNL     1      -2.583   0.109   1.681  0.00  0.00    +0.115 A 
ATOM      9  N   UNL     1      -2.979  -1.073   1.252  0.00  0.00    -0.263 NA
ATOM     10  C   UNL     1      -4.103  -1.226   0.581  0.00  0.00    +0.111 A 
ATOM     11  C   UNL     1      -4.914  -0.142   0.301  0.00  0.00    +0.020 A 
ATOM     12  C   UNL     1      -4.533   1.117   0.741  0.00  0.00    +0.008 A 
ENDBRANCH   3   7
TORSDOF 1
ENDMDL
MODEL 6
REMARK VINA RESULT:    -3.403      1.911      4.010
REMARK INTER + INTRA:          -3.855
REMARK INTER:                  -3.620
REMARK INTRA:                  -0.235
REMARK UNBOUND:                -0.253
REMARK  Name = Nicotine.pdb
REMARK  2 active torsions:
REMARK  status: ('A' for Active; 'I' for Inactive)
REMARK    1  A    between atoms: C_3  and  C_6
REMARK    2  A    between atoms: N_4  and  C_12
REMARK                            x       y       z     vdW  Elec       q    Type
REMARK                         _______ _______ _______ _____ _____    ______ ____
ROOT
ATOM      1  C   UNL     1      -1.587   4.313   4.500  0.00  0.00    +0.017 C 
ATOM      2  C   UNL     1      -2.652   3.409   3.825  0.00  0.00    +0.025 C 
ATOM      3  C   UNL     1      -2.078   1.990   4.022  0.00  0.00    +0.088 C 
ATOM      4  N   UNL     1      -0.626   2.131   4.234  0.00  0.00    -0.298 NA
ATOM      5  C   UNL     1      -0.276   3.565   4.151  0.00  0.00    +0.085 C 
ATOM      6  C   UNL     1      -0.224   1.564   5.528  0.00  0.00    +0.105 C 
ENDROOT
BRANCH   3   7
ATOM      7  C   UNL     1      -2.339   1.156   2.795  0.00  0.00    -0.012 A 
ATOM      8  C   UNL     1      -1.860  -0.138   2.713  0.00  0.00    +0.115 A 
ATOM      9  N   UNL     1      -2.084  -0.874   1.643  0.00  0.00    -0.263 NA
ATOM     10  C   UNL     1      -2.769  -0.413   0.615  0.00  0.00    +0.111 A 
ATOM     11  C   UNL     1      -3.280   0.872   0.625  0.00  0.00    +0.020 A 
ATOM     12  C   UNL     1      -3.069   1.674   1.735  0.00  0.00    +0.008 A 
ENDBRANCH   3   7
TORSDOF 1
ENDMDL
MODEL 7
REMARK VINA RESULT:    -3.304     10.797     13.019
REMARK INTER + INTRA:          -3.751
REMARK INTER:                  -3.565
REMARK INTRA:                  -0.185
REMARK UNBOUND:                -0.253
REMARK  Name = Nicotine.pdb
REMARK  2 active torsions:
REMARK  status: ('A' for Active; 'I' for Inactive)
REMARK    1  A    between atoms: C_3  and  C_6
REMARK    2  A    between atoms: N_4  and  C_12
REMARK                            x       y       z     vdW  Elec       q    Type
REMARK                         _______ _______ _______ _____ _____    ______ ____
ROOT
ATOM      1  C   UNL     1       9.455  -4.387   4.407  0.00  0.00    +0.017 C 
ATOM      2  C   UNL     1       8.190  -5.216   4.064  0.00  0.00    +0.025 C 
ATOM      3  C   UNL     1       8.551  -5.854   2.706  0.00  0.00    +0.088 C 
ATOM      4  N   UNL     1       9.607  -5.023   2.099  0.00  0.00    -0.298 NA
ATOM      5  C   UNL     1       9.894  -3.891   3.007  0.00  0.00    +0.085 C 
ATOM      6  C   UNL     1      10.817  -5.813   1.842  0.00  0.00    +0.105 C 
ENDROOT
BRANCH   3   7
ATOM      7  C   UNL     1       7.338  -5.877   1.812  0.00  0.00    -0.012 A 
ATOM      8  C   UNL     1       6.068  -5.819   2.354  0.00  0.00    +0.115 A 
ATOM      9  N   UNL     1       5.002  -5.838   1.579  0.00  0.00    -0.263 NA
ATOM     10  C   UNL     1       5.100  -5.914   0.267  0.00  0.00    +0.111 A 
ATOM     11  C   UNL     1       6.337  -5.974  -0.348  0.00  0.00    +0.020 A 
ATOM     12  C   UNL     1       7.481  -5.951   0.435  0.00  0.00    +0.008 A 
ENDBRANCH   3   7
TORSDOF 1
ENDMDL
MODEL 8
REMARK VINA RESULT:    -3.206      1.453      4.548
REMARK INTER + INTRA:          -3.647
REMARK INTER:                  -3.419
REMARK INTRA:                  -0.229
REMARK UNBOUND:                -0.253
REMARK  Name = Nicotine.pdb
REMARK  2 active torsions:
REMARK  status: ('A' for Active; 'I' for Inactive)
REMARK    1  A    between atoms: C_3  and  C_6
REMARK    2  A    between atoms: N_4  and  C_12
REMARK                            x       y       z     vdW  Elec       q    Type
REMARK                         _______ _______ _______ _____ _____    ______ ____
ROOT
ATOM      1  C   UNL     1      -0.885   0.559   4.508  0.00  0.00    +0.017 C 
ATOM      2  C   UNL     1      -1.445   0.175   3.113  0.00  0.00    +0.025 C 
ATOM      3  C   UNL     1      -1.640   1.544   2.428  0.00  0.00    +0.088 C 
ATOM      4  N   UNL     1      -1.748   2.555   3.495  0.00  0.00    -0.298 NA
ATOM      5  C   UNL     1      -1.653   1.872   4.802  0.00  0.00    +0.085 C 
ATOM      6  C   UNL     1      -0.703   3.578   3.358  0.00  0.00    +0.105 C 
ENDROOT
BRANCH   3   7
ATOM      7  C   UNL     1      -2.902   1.530   1.604  0.00  0.00    -0.012 A 
ATOM      8  C   UNL     1      -3.380   2.696   1.038  0.00  0.00    +0.115 A 
ATOM      9  N   UNL     1      -4.484   2.693   0.316  0.00  0.00    -0.263 NA
ATOM     10  C   UNL     1      -5.170   1.588   0.105  0.00  0.00    +0.111 A 
ATOM     11  C   UNL     1      -4.753   0.382   0.639  0.00  0.00    +0.020 A 
ATOM     12  C   UNL     1      -3.595   0.346   1.400  0.00  0.00    +0.008 A 
ENDBRANCH   3   7
TORSDOF 1
ENDMDL
MODEL 9
REMARK VINA RESULT:    -3.077      2.367      4.401
REMARK INTER + INTRA:          -3.510
REMARK INTER:                  -3.317
REMARK INTRA:                  -0.194
REMARK UNBOUND:                -0.253
REMARK  Name = Nicotine.pdb
REMARK  2 active torsions:
REMARK  status: ('A' for Active; 'I' for Inactive)
REMARK    1  A    between atoms: C_3  and  C_6
REMARK    2  A    between atoms: N_4  and  C_12
REMARK                            x       y       z     vdW  Elec       q    Type
REMARK                         _______ _______ _______ _____ _____    ______ ____
ROOT
ATOM      1  C   UNL     1       0.002   3.698   5.402  0.00  0.00    +0.017 C 
ATOM      2  C   UNL     1      -0.212   3.687   3.865  0.00  0.00    +0.025 C 
ATOM      3  C   UNL     1      -1.740   3.517   3.730  0.00  0.00    +0.088 C 
ATOM      4  N   UNL     1      -2.226   2.916   4.984  0.00  0.00    -0.298 NA
ATOM      5  C   UNL     1      -1.069   2.684   5.875  0.00  0.00    +0.085 C 
ATOM      6  C   UNL     1      -3.224   3.778   5.631  0.00  0.00    +0.105 C 
ENDROOT
BRANCH   3   7
ATOM      7  C   UNL     1      -2.054   2.609   2.569  0.00  0.00    -0.012 A 
ATOM      8  C   UNL     1      -1.332   2.701   1.394  0.00  0.00    +0.115 A 
ATOM      9  N   UNL     1      -1.600   1.910   0.374  0.00  0.00    -0.263 NA
ATOM     10  C   UNL     1      -2.559   1.008   0.430  0.00  0.00    +0.111 A 
ATOM     11  C   UNL     1      -3.324   0.857   1.572  0.00  0.00    +0.020 A 
ATOM     12  C   UNL     1      -3.067   1.668   2.667  0.00  0.00    +0.008 A 
ENDBRANCH   3   7
TORSDOF 1
ENDMDL
MODEL 10
REMARK VINA RESULT:    -3.032      3.039      3.644
REMARK INTER + INTRA:          -3.463
REMARK INTER:                  -3.272
REMARK INTRA:                  -0.190
REMARK UNBOUND:                -0.253
REMARK  Name = Nicotine.pdb
REMARK  2 active torsions:
REMARK  status: ('A' for Active; 'I' for Inactive)
REMARK    1  A    between atoms: C_3  and  C_6
REMARK    2  A    between atoms: N_4  and  C_12
REMARK                            x       y       z     vdW  Elec       q    Type
REMARK                         _______ _______ _______ _____ _____    ______ ____
ROOT
ATOM      1  C   UNL     1      -1.964   2.332   0.294  0.00  0.00    +0.017 C 
ATOM      2  C   UNL     1      -1.440   2.576   1.734  0.00  0.00    +0.025 C 
ATOM      3  C   UNL     1      -2.738   2.659   2.566  0.00  0.00    +0.088 C 
ATOM      4  N   UNL     1      -3.828   3.014   1.641  0.00  0.00    -0.298 NA
ATOM      5  C   UNL     1      -3.261   3.179   0.285  0.00  0.00    +0.085 C 
ATOM      6  C   UNL     1      -4.882   1.991   1.650  0.00  0.00    +0.105 C 
ENDROOT
BRANCH   3   7
ATOM      7  C   UNL     1      -2.599   3.718   3.629  0.00  0.00    -0.012 A 
ATOM      8  C   UNL     1      -1.387   3.918   4.263  0.00  0.00    +0.115 A 
ATOM      9  N   UNL     1      -1.258   4.843   5.194  0.00  0.00    -0.263 NA
ATOM     10  C   UNL     1      -2.268   5.609   5.555  0.00  0.00    +0.111 A 
ATOM     11  C   UNL     1      -3.510   5.467   4.965  0.00  0.00    +0.020 A 
ATOM     12  C   UNL     1      -3.683   4.508   3.979  0.00  0.00    +0.008 A 
ENDBRANCH   3   7
TORSDOF 1
ENDMDL
