MODEL 1
REMARK VINA RESULT:    -5.485      0.000      0.000
REMARK INTER + INTRA:          -6.039
REMARK INTER:                  -5.806
REMARK INTRA:                  -0.233
REMARK UNBOUND:                -0.233
REMARK  Name = Nicotine.pdb
REMARK  2 active torsions:
REMARK  status: ('A' for Active; 'I' for Inactive)
REMARK    1  A    between atoms: C_3  and  C_6
REMARK    2  A    between atoms: N_4  and  C_12
REMARK                            x       y       z     vdW  Elec       q    Type
REMARK                         _______ _______ _______ _____ _____    ______ ____
ROOT
ATOM      1  C   UNL     1      -2.618  -5.560   2.730  0.00  0.00    +0.017 C 
ATOM      2  C   UNL     1      -1.422  -4.809   2.086  0.00  0.00    +0.025 C 
ATOM      3  C   UNL     1      -0.728  -4.156   3.301  0.00  0.00    +0.088 C 
ATOM      4  N   UNL     1      -1.731  -4.057   4.376  0.00  0.00    -0.298 NA
ATOM      5  C   UNL     1      -3.014  -4.594   3.874  0.00  0.00    +0.085 C 
ATOM      6  C   UNL     1      -1.291  -4.781   5.576  0.00  0.00    +0.105 C 
ENDROOT
BRANCH   3   7
ATOM      7  C   UNL     1      -0.234  -2.782   2.931  0.00  0.00    -0.012 A 
ATOM      8  C   UNL     1       0.328  -1.960   3.889  0.00  0.00    +0.115 A 
ATOM      9  N   UNL     1       0.763  -0.755   3.574  0.00  0.00    -0.263 NA
ATOM     10  C   UNL     1       0.681  -0.289   2.344  0.00  0.00    +0.111 A 
ATOM     11  C   UNL     1       0.132  -1.054   1.332  0.00  0.00    +0.020 A 
ATOM     12  C   UNL     1      -0.331  -2.328   1.624  0.00  0.00    +0.008 A 
ENDBRANCH   3   7
TORSDOF 1
ENDMDL
MODEL 2
REMARK VINA RESULT:    -5.051      1.293      4.733
REMARK INTER + INTRA:          -5.580
REMARK INTER:                  -5.333
REMARK INTRA:                  -0.247
REMARK UNBOUND:                -0.233
REMARK  Name = Nicotine.pdb
REMARK  2 active torsions:
REMARK  status: ('A' for Active; 'I' for Inactive)
REMARK    1  A    between atoms: C_3  and  C_6
REMARK    2  A    between atoms: N_4  and  C_12
REMARK                            x       y       z     vdW  Elec       q    Type
REMARK                         _______ _______ _______ _____ _____    ______ ____
ROOT
ATOM      1  C   UNL     1       0.838   0.119   3.278  0.00  0.00    +0.017 C 
ATOM      2  C   UNL     1       0.596  -1.199   4.059  0.00  0.00    +0.025 C 
ATOM      3  C   UNL     1       0.197  -2.194   2.948  0.00  0.00    +0.088 C 
ATOM      4  N   UNL     1      -0.298  -1.400   1.809  0.00  0.00    -0.298 NA
ATOM      5  C   UNL     1      -0.246   0.031   2.175  0.00  0.00    +0.085 C 
ATOM      6  C   UNL     1       0.493  -1.664   0.600  0.00  0.00    +0.105 C 
ENDROOT
BRANCH   3   7
ATOM      7  C   UNL     1      -0.889  -3.111   3.447  0.00  0.00    -0.012 A 
ATOM      8  C   UNL     1      -1.330  -4.162   2.666  0.00  0.00    +0.115 A 
ATOM      9  N   UNL     1      -2.281  -4.969   3.095  0.00  0.00    -0.263 NA
ATOM     10  C   UNL     1      -2.845  -4.809   4.275  0.00  0.00    +0.111 A 
ATOM     11  C   UNL     1      -2.456  -3.780   5.112  0.00  0.00    +0.020 A 
ATOM     12  C   UNL     1      -1.455  -2.915   4.698  0.00  0.00    +0.008 A 
ENDBRANCH   3   7
TORSDOF 1
ENDMDL
MODEL 3
REMARK VINA RESULT:    -4.715      1.491      4.572
REMARK INTER + INTRA:          -5.224
REMARK INTER:                  -5.008
REMARK INTRA:                  -0.216
REMARK UNBOUND:                -0.233
REMARK  Name = Nicotine.pdb
REMARK  2 active torsions:
REMARK  status: ('A' for Active; 'I' for Inactive)
REMARK    1  A    between atoms: C_3  and  C_6
REMARK    2  A    between atoms: N_4  and  C_12
REMARK                            x       y       z     vdW  Elec       q    Type
REMARK                         _______ _______ _______ _____ _____    ______ ____
ROOT
ATOM      1  C   UNL     1       0.531   0.537   2.707  0.00  0.00    +0.017 C 
ATOM      2  C   UNL     1       0.598  -0.515   3.846  0.00  0.00    +0.025 C 
ATOM      3  C   UNL     1       0.438  -1.853   3.093  0.00  0.00    +0.088 C 
ATOM      4  N   UNL     1      -0.225  -1.556   1.811  0.00  0.00    -0.298 NA
ATOM      5  C   UNL     1      -0.504  -0.105   1.749  0.00  0.00    +0.085 C 
ATOM      6  C   UNL     1       0.605  -1.982   0.677  0.00  0.00    +0.105 C 
ENDROOT
BRANCH   3   7
ATOM      7  C   UNL     1      -0.409  -2.799   3.904  0.00  0.00    -0.012 A 
ATOM      8  C   UNL     1      -1.240  -2.317   4.897  0.00  0.00    +0.115 A 
ATOM      9  N   UNL     1      -1.985  -3.138   5.611  0.00  0.00    -0.263 NA
ATOM     10  C   UNL     1      -1.969  -4.441   5.410  0.00  0.00    +0.111 A 
ATOM     11  C   UNL     1      -1.163  -4.996   4.433  0.00  0.00    +0.020 A 
ATOM     12  C   UNL     1      -0.370  -4.163   3.659  0.00  0.00    +0.008 A 
ENDBRANCH   3   7
TORSDOF 1
ENDMDL
MODEL 4
REMARK VINA RESULT:    -4.655      1.547      1.987
REMARK INTER + INTRA:          -5.160
REMARK INTER:                  -4.906
REMARK INTRA:                  -0.255
REMARK UNBOUND:                -0.233
REMARK  Name = Nicotine.pdb
REMARK  2 active torsions:
REMARK  status: ('A' for Active; 'I' for Inactive)
REMARK    1  A    between atoms: C_3  and  C_6
REMARK    2  A    between atoms: N_4  and  C_12
REMARK                            x       y       z     vdW  Elec       q    Type
REMARK                         _______ _______ _______ _____ _____    ______ ____
ROOT
ATOM      1  C   UNL     1      -1.261  -4.488   4.814  0.00  0.00    +0.017 C 
ATOM      2  C   UNL     1      -0.228  -4.046   3.744  0.00  0.00    +0.025 C 
ATOM      3  C   UNL     1       0.059  -2.578   4.125  0.00  0.00    +0.088 C 
ATOM      4  N   UNL     1      -1.091  -2.097   4.912  0.00  0.00    -0.298 NA
ATOM      5  C   UNL     1      -2.083  -3.189   5.011  0.00  0.00    +0.085 C 
ATOM      6  C   UNL     1      -0.668  -1.647   6.244  0.00  0.00    +0.105 C 
ENDROOT
BRANCH   3   7
ATOM      7  C   UNL     1       0.214  -1.745   2.879  0.00  0.00    -0.012 A 
ATOM      8  C   UNL     1       0.758  -0.477   2.949  0.00  0.00    +0.115 A 
ATOM      9  N   UNL     1       0.896   0.258   1.862  0.00  0.00    -0.263 NA
ATOM     10  C   UNL     1       0.526  -0.181   0.676  0.00  0.00    +0.111 A 
ATOM     11  C   UNL     1      -0.026  -1.440   0.528  0.00  0.00    +0.020 A 
ATOM     12  C   UNL     1      -0.183  -2.244   1.647  0.00  0.00    +0.008 A 
ENDBRANCH   3   7
TORSDOF 1
ENDMDL
MODEL 5
REMARK VINA RESULT:    -4.578      1.492      4.592
REMARK INTER + INTRA:          -5.079
REMARK INTER:                  -4.823
REMARK INTRA:                  -0.256
REMARK UNBOUND:                -0.233
REMARK  Name = Nicotine.pdb
REMARK  2 active torsions:
REMARK  status: ('A' for Active; 'I' for Inactive)
REMARK    1  A    between atoms: C_3  and  C_6
REMARK    2  A    between atoms: N_4  and  C_12
REMARK                            x       y       z     vdW  Elec       q    Type
REMARK                         _______ _______ _______ _____ _____    ______ ____
ROOT
ATOM      1  C   UNL     1       0.472   0.459   1.742  0.00  0.00    +0.017 C 
ATOM      2  C   UNL     1      -0.547  -0.674   2.031  0.00  0.00    +0.025 C 
ATOM      3  C   UNL     1      -0.565  -0.739   3.573  0.00  0.00    +0.088 C 
ATOM      4  N   UNL     1       0.700  -0.152   4.050  0.00  0.00    -0.298 NA
ATOM      5  C   UNL     1       1.506   0.248   2.876  0.00  0.00    +0.085 C 
ATOM      6  C   UNL     1       0.449   0.995   4.932  0.00  0.00    +0.105 C 
ENDROOT
BRANCH   3   7
ATOM      7  C   UNL     1      -0.668  -2.173   4.025  0.00  0.00    -0.012 A 
ATOM      8  C   UNL     1      -1.243  -2.483   5.242  0.00  0.00    +0.115 A 
ATOM      9  N   UNL     1      -1.338  -3.735   5.645  0.00  0.00    -0.263 NA
ATOM     10  C   UNL     1      -0.891  -4.735   4.911  0.00  0.00    +0.111 A 
ATOM     11  C   UNL     1      -0.303  -4.502   3.681  0.00  0.00    +0.020 A 
ATOM     12  C   UNL     1      -0.191  -3.199   3.222  0.00  0.00    +0.008 A 
ENDBRANCH   3   7
TORSDOF 1
ENDMDL
MODEL 6
REMARK VINA RESULT:    -4.163      1.566      4.464
REMARK INTER + INTRA:          -4.640
REMARK INTER:                  -4.445
REMARK INTRA:                  -0.195
REMARK UNBOUND:                -0.233
REMARK  Name = Nicotine.pdb
REMARK  2 active torsions:
REMARK  status: ('A' for Active; 'I' for Inactive)
REMARK    1  A    between atoms: C_3  and  C_6
REMARK    2  A    between atoms: N_4  and  C_12
REMARK                            x       y       z     vdW  Elec       q    Type
REMARK                         _______ _______ _______ _____ _____    ______ ____
ROOT
ATOM      1  C   UNL     1       0.430  -0.197   1.460  0.00  0.00    +0.017 C 
ATOM      2  C   UNL     1      -0.462  -1.456   1.303  0.00  0.00    +0.025 C 
ATOM      3  C   UNL     1      -0.738  -1.871   2.764  0.00  0.00    +0.088 C 
ATOM      4  N   UNL     1       0.334  -1.291   3.593  0.00  0.00    -0.298 NA
ATOM      5  C   UNL     1       1.269  -0.562   2.710  0.00  0.00    +0.085 C 
ATOM      6  C   UNL     1      -0.219  -0.403   4.623  0.00  0.00    +0.105 C 
ENDROOT
BRANCH   3   7
ATOM      7  C   UNL     1      -0.724  -3.373   2.882  0.00  0.00    -0.012 A 
ATOM      8  C   UNL     1      -1.308  -4.156   1.905  0.00  0.00    +0.115 A 
ATOM      9  N   UNL     1      -1.300  -5.472   2.000  0.00  0.00    -0.263 NA
ATOM     10  C   UNL     1      -0.741  -6.089   3.022  0.00  0.00    +0.111 A 
ATOM     11  C   UNL     1      -0.137  -5.371   4.038  0.00  0.00    +0.020 A 
ATOM     12  C   UNL     1      -0.121  -3.987   3.969  0.00  0.00    +0.008 A 
ENDBRANCH   3   7
TORSDOF 1
ENDMDL
MODEL 7
REMARK VINA RESULT:    -3.732      1.360      4.706
REMARK INTER + INTRA:          -4.183
REMARK INTER:                  -3.928
REMARK INTRA:                  -0.256
REMARK UNBOUND:                -0.233
REMARK  Name = Nicotine.pdb
REMARK  2 active torsions:
REMARK  status: ('A' for Active; 'I' for Inactive)
REMARK    1  A    between atoms: C_3  and  C_6
REMARK    2  A    between atoms: N_4  and  C_12
REMARK                            x       y       z     vdW  Elec       q    Type
REMARK                         _______ _______ _______ _____ _____    ______ ____
ROOT
ATOM      1  C   UNL     1       0.661  -0.583   5.120  0.00  0.00    +0.017 C 
ATOM      2  C   UNL     1       0.259  -2.073   5.275  0.00  0.00    +0.025 C 
ATOM      3  C   UNL     1      -0.030  -2.507   3.822  0.00  0.00    +0.088 C 
ATOM      4  N   UNL     1      -0.332  -1.286   3.054  0.00  0.00    -0.298 NA
ATOM      5  C   UNL     1      -0.268  -0.126   3.968  0.00  0.00    +0.085 C 
ATOM      6  C   UNL     1       0.601  -1.126   1.931  0.00  0.00    +0.105 C 
ENDROOT
BRANCH   3   7
ATOM      7  C   UNL     1      -1.213  -3.440   3.792  0.00  0.00    -0.012 A 
ATOM      8  C   UNL     1      -1.366  -4.342   2.756  0.00  0.00    +0.115 A 
ATOM      9  N   UNL     1      -2.398  -5.162   2.722  0.00  0.00    -0.263 NA
ATOM     10  C   UNL     1      -3.320  -5.156   3.664  0.00  0.00    +0.111 A 
ATOM     11  C   UNL     1      -3.234  -4.281   4.732  0.00  0.00    +0.020 A 
ATOM     12  C   UNL     1      -2.160  -3.408   4.805  0.00  0.00    +0.008 A 
ENDBRANCH   3   7
TORSDOF 1
ENDMDL
MODEL 8
REMARK VINA RESULT:    -2.684      9.969     11.693
REMARK INTER + INTRA:          -3.074
REMARK INTER:                  -2.818
REMARK INTRA:                  -0.255
REMARK UNBOUND:                -0.233
REMARK  Name = Nicotine.pdb
REMARK  2 active torsions:
REMARK  status: ('A' for Active; 'I' for Inactive)
REMARK    1  A    between atoms: C_3  and  C_6
REMARK    2  A    between atoms: N_4  and  C_12
REMARK                            x       y       z     vdW  Elec       q    Type
REMARK                         _______ _______ _______ _____ _____    ______ ____
ROOT
ATOM      1  C   UNL     1       2.006  -1.964  -5.759  0.00  0.00    +0.017 C 
ATOM      2  C   UNL     1       3.071  -2.941  -5.195  0.00  0.00    +0.025 C 
ATOM      3  C   UNL     1       4.350  -2.537  -5.958  0.00  0.00    +0.088 C 
ATOM      4  N   UNL     1       3.926  -1.853  -7.193  0.00  0.00    -0.298 NA
ATOM      5  C   UNL     1       2.448  -1.838  -7.239  0.00  0.00    +0.085 C 
ATOM      6  C   UNL     1       4.469  -0.490  -7.253  0.00  0.00    +0.105 C 
ENDROOT
BRANCH   3   7
ATOM      7  C   UNL     1       5.152  -3.766  -6.301  0.00  0.00    -0.012 A 
ATOM      8  C   UNL     1       6.524  -3.688  -6.447  0.00  0.00    +0.115 A 
ATOM      9  N   UNL     1       7.233  -4.759  -6.747  0.00  0.00    -0.263 NA
ATOM     10  C   UNL     1       6.668  -5.938  -6.920  0.00  0.00    +0.111 A 
ATOM     11  C   UNL     1       5.301  -6.093  -6.790  0.00  0.00    +0.020 A 
ATOM     12  C   UNL     1       4.523  -4.991  -6.470  0.00  0.00    +0.008 A 
ENDBRANCH   3   7
TORSDOF 1
ENDMDL
