MODEL 1
REMARK VINA RESULT:    -5.493      0.000      0.000
REMARK INTER + INTRA:          -6.037
REMARK INTER:                  -5.815
REMARK INTRA:                  -0.222
REMARK UNBOUND:                -0.222
REMARK  Name = Nicotine.pdb
REMARK  2 active torsions:
REMARK  status: ('A' for Active; 'I' for Inactive)
REMARK    1  A    between atoms: C_3  and  C_6
REMARK    2  A    between atoms: N_4  and  C_12
REMARK                            x       y       z     vdW  Elec       q    Type
REMARK                         _______ _______ _______ _____ _____    ______ ____
ROOT
ATOM      1  C   UNL     1      -2.003   7.028   1.858  0.00  0.00    +0.017 C 
ATOM      2  C   UNL     1      -3.113   6.698   0.826  0.00  0.00    +0.025 C 
ATOM      3  C   UNL     1      -2.537   5.481   0.072  0.00  0.00    +0.088 C 
ATOM      4  N   UNL     1      -1.073   5.511   0.248  0.00  0.00    -0.298 NA
ATOM      5  C   UNL     1      -0.720   6.701   1.052  0.00  0.00    +0.085 C 
ATOM      6  C   UNL     1      -0.594   4.280   0.890  0.00  0.00    +0.105 C 
ENDROOT
BRANCH   3   7
ATOM      7  C   UNL     1      -2.880   5.575  -1.392  0.00  0.00    -0.012 A 
ATOM      8  C   UNL     1      -2.235   4.772  -2.314  0.00  0.00    +0.115 A 
ATOM      9  N   UNL     1      -2.530   4.848  -3.597  0.00  0.00    -0.263 NA
ATOM     10  C   UNL     1      -3.442   5.685  -4.051  0.00  0.00    +0.111 A 
ATOM     11  C   UNL     1      -4.129   6.519  -3.188  0.00  0.00    +0.020 A 
ATOM     12  C   UNL     1      -3.850   6.463  -1.831  0.00  0.00    +0.008 A 
ENDBRANCH   3   7
TORSDOF 1
ENDMDL
MODEL 2
REMARK VINA RESULT:    -4.535      3.229      6.118
REMARK INTER + INTRA:          -5.023
REMARK INTER:                  -4.811
REMARK INTRA:                  -0.212
REMARK UNBOUND:                -0.222
REMARK  Name = Nicotine.pdb
REMARK  2 active torsions:
REMARK  status: ('A' for Active; 'I' for Inactive)
REMARK    1  A    between atoms: C_3  and  C_6
REMARK    2  A    between atoms: N_4  and  C_12
REMARK                            x       y       z     vdW  Elec       q    Type
REMARK                         _______ _______ _______ _____ _____    ______ ____
ROOT
ATOM      1  C   UNL     1      -3.754   0.550  -5.398  0.00  0.00    +0.017 C 
ATOM      2  C   UNL     1      -4.083   1.483  -4.202  0.00  0.00    +0.025 C 
ATOM      3  C   UNL     1      -4.597   2.764  -4.893  0.00  0.00    +0.088 C 
ATOM      4  N   UNL     1      -4.063   2.765  -6.267  0.00  0.00    -0.298 NA
ATOM      5  C   UNL     1      -3.224   1.560  -6.446  0.00  0.00    +0.085 C 
ATOM      6  C   UNL     1      -5.148   2.803  -7.255  0.00  0.00    +0.105 C 
ENDROOT
BRANCH   3   7
ATOM      7  C   UNL     1      -4.107   3.980  -4.150  0.00  0.00    -0.012 A 
ATOM      8  C   UNL     1      -2.851   3.986  -3.572  0.00  0.00    +0.115 A 
ATOM      9  N   UNL     1      -2.414   5.046  -2.920  0.00  0.00    -0.263 NA
ATOM     10  C   UNL     1      -3.149   6.133  -2.793  0.00  0.00    +0.111 A 
ATOM     11  C   UNL     1      -4.415   6.200  -3.345  0.00  0.00    +0.020 A 
ATOM     12  C   UNL     1      -4.906   5.107  -4.042  0.00  0.00    +0.008 A 
ENDBRANCH   3   7
TORSDOF 1
ENDMDL
MODEL 3
REMARK VINA RESULT:    -4.447      4.377      6.840
REMARK INTER + INTRA:          -4.929
REMARK INTER:                  -4.689
REMARK INTRA:                  -0.240
REMARK UNBOUND:                -0.222
REMARK  Name = Nicotine.pdb
REMARK  2 active torsions:
REMARK  status: ('A' for Active; 'I' for Inactive)
REMARK    1  A    between atoms: C_3  and  C_6
REMARK    2  A    between atoms: N_4  and  C_12
REMARK                            x       y       z     vdW  Elec       q    Type
REMARK                         _______ _______ _______ _____ _____    ______ ____
ROOT
ATOM      1  C   UNL     1      -4.601  -0.827  -5.050  0.00  0.00    +0.017 C 
ATOM      2  C   UNL     1      -5.140   0.626  -4.996  0.00  0.00    +0.025 C 
ATOM      3  C   UNL     1      -4.121   1.406  -5.854  0.00  0.00    +0.088 C 
ATOM      4  N   UNL     1      -2.875   0.619  -5.876  0.00  0.00    -0.298 NA
ATOM      5  C   UNL     1      -3.069  -0.594  -5.053  0.00  0.00    +0.085 C 
ATOM      6  C   UNL     1      -2.498   0.267  -7.252  0.00  0.00    +0.105 C 
ENDROOT
BRANCH   3   7
ATOM      7  C   UNL     1      -3.863   2.758  -5.242  0.00  0.00    -0.012 A 
ATOM      8  C   UNL     1      -3.859   3.893  -6.031  0.00  0.00    +0.115 A 
ATOM      9  N   UNL     1      -3.635   5.081  -5.504  0.00  0.00    -0.263 NA
ATOM     10  C   UNL     1      -3.407   5.235  -4.214  0.00  0.00    +0.111 A 
ATOM     11  C   UNL     1      -3.396   4.146  -3.363  0.00  0.00    +0.020 A 
ATOM     12  C   UNL     1      -3.633   2.882  -3.881  0.00  0.00    +0.008 A 
ENDBRANCH   3   7
TORSDOF 1
ENDMDL
MODEL 4
REMARK VINA RESULT:    -4.279      1.266      2.232
REMARK INTER + INTRA:          -4.751
REMARK INTER:                  -4.495
REMARK INTRA:                  -0.256
REMARK UNBOUND:                -0.222
REMARK  Name = Nicotine.pdb
REMARK  2 active torsions:
REMARK  status: ('A' for Active; 'I' for Inactive)
REMARK    1  A    between atoms: C_3  and  C_6
REMARK    2  A    between atoms: N_4  and  C_12
REMARK                            x       y       z     vdW  Elec       q    Type
REMARK                         _______ _______ _______ _____ _____    ______ ____
ROOT
ATOM      1  C   UNL     1      -0.359   5.782   1.431  0.00  0.00    +0.017 C 
ATOM      2  C   UNL     1      -0.608   6.111  -0.064  0.00  0.00    +0.025 C 
ATOM      3  C   UNL     1      -2.125   6.394  -0.109  0.00  0.00    +0.088 C 
ATOM      4  N   UNL     1      -2.728   5.730   1.060  0.00  0.00    -0.298 NA
ATOM      5  C   UNL     1      -1.661   5.031   1.807  0.00  0.00    +0.085 C 
ATOM      6  C   UNL     1      -3.423   6.699   1.917  0.00  0.00    +0.105 C 
ENDROOT
BRANCH   3   7
ATOM      7  C   UNL     1      -2.714   5.835  -1.378  0.00  0.00    -0.012 A 
ATOM      8  C   UNL     1      -3.849   6.399  -1.929  0.00  0.00    +0.115 A 
ATOM      9  N   UNL     1      -4.371   5.916  -3.040  0.00  0.00    -0.263 NA
ATOM     10  C   UNL     1      -3.837   4.885  -3.666  0.00  0.00    +0.111 A 
ATOM     11  C   UNL     1      -2.701   4.270  -3.174  0.00  0.00    +0.020 A 
ATOM     12  C   UNL     1      -2.121   4.754  -2.011  0.00  0.00    +0.008 A 
ENDBRANCH   3   7
TORSDOF 1
ENDMDL
MODEL 5
REMARK VINA RESULT:    -4.208      2.019      5.026
REMARK INTER + INTRA:          -4.676
REMARK INTER:                  -4.469
REMARK INTRA:                  -0.206
REMARK UNBOUND:                -0.222
REMARK  Name = Nicotine.pdb
REMARK  2 active torsions:
REMARK  status: ('A' for Active; 'I' for Inactive)
REMARK    1  A    between atoms: C_3  and  C_6
REMARK    2  A    between atoms: N_4  and  C_12
REMARK                            x       y       z     vdW  Elec       q    Type
REMARK                         _______ _______ _______ _____ _____    ______ ____
ROOT
ATOM      1  C   UNL     1      -2.862   7.027   1.552  0.00  0.00    +0.017 C 
ATOM      2  C   UNL     1      -1.333   6.964   1.808  0.00  0.00    +0.025 C 
ATOM      3  C   UNL     1      -0.842   5.969   0.735  0.00  0.00    +0.088 C 
ATOM      4  N   UNL     1      -1.998   5.145   0.341  0.00  0.00    -0.298 NA
ATOM      5  C   UNL     1      -3.170   5.566   1.138  0.00  0.00    +0.085 C 
ATOM      6  C   UNL     1      -2.267   5.267  -1.097  0.00  0.00    +0.105 C 
ENDROOT
BRANCH   3   7
ATOM      7  C   UNL     1       0.243   5.094   1.306  0.00  0.00    -0.012 A 
ATOM      8  C   UNL     1      -0.007   3.764   1.587  0.00  0.00    +0.115 A 
ATOM      9  N   UNL     1       0.938   2.990   2.086  0.00  0.00    -0.263 NA
ATOM     10  C   UNL     1       2.148   3.449   2.337  0.00  0.00    +0.111 A 
ATOM     11  C   UNL     1       2.472   4.768   2.082  0.00  0.00    +0.020 A 
ATOM     12  C   UNL     1       1.507   5.610   1.551  0.00  0.00    +0.008 A 
ENDBRANCH   3   7
TORSDOF 1
ENDMDL
MODEL 6
REMARK VINA RESULT:    -4.197      1.763      3.039
REMARK INTER + INTRA:          -4.664
REMARK INTER:                  -4.411
REMARK INTRA:                  -0.254
REMARK UNBOUND:                -0.222
REMARK  Name = Nicotine.pdb
REMARK  2 active torsions:
REMARK  status: ('A' for Active; 'I' for Inactive)
REMARK    1  A    between atoms: C_3  and  C_6
REMARK    2  A    between atoms: N_4  and  C_12
REMARK                            x       y       z     vdW  Elec       q    Type
REMARK                         _______ _______ _______ _____ _____    ______ ____
ROOT
ATOM      1  C   UNL     1       1.579   4.754   1.648  0.00  0.00    +0.017 C 
ATOM      2  C   UNL     1       0.880   5.638   0.582  0.00  0.00    +0.025 C 
ATOM      3  C   UNL     1      -0.514   5.887   1.196  0.00  0.00    +0.088 C 
ATOM      4  N   UNL     1      -0.763   4.806   2.167  0.00  0.00    -0.298 NA
ATOM      5  C   UNL     1       0.398   3.891   2.161  0.00  0.00    +0.085 C 
ATOM      6  C   UNL     1      -1.000   5.349   3.511  0.00  0.00    +0.105 C 
ENDROOT
BRANCH   3   7
ATOM      7  C   UNL     1      -1.563   5.859   0.115  0.00  0.00    -0.012 A 
ATOM      8  C   UNL     1      -2.678   6.670   0.202  0.00  0.00    +0.115 A 
ATOM      9  N   UNL     1      -3.601   6.652  -0.740  0.00  0.00    -0.263 NA
ATOM     10  C   UNL     1      -3.500   5.867  -1.794  0.00  0.00    +0.111 A 
ATOM     11  C   UNL     1      -2.412   5.029  -1.950  0.00  0.00    +0.020 A 
ATOM     12  C   UNL     1      -1.419   5.024  -0.983  0.00  0.00    +0.008 A 
ENDBRANCH   3   7
TORSDOF 1
ENDMDL
MODEL 7
REMARK VINA RESULT:    -4.085      1.721      2.944
REMARK INTER + INTRA:          -4.545
REMARK INTER:                  -4.330
REMARK INTRA:                  -0.215
REMARK UNBOUND:                -0.222
REMARK  Name = Nicotine.pdb
REMARK  2 active torsions:
REMARK  status: ('A' for Active; 'I' for Inactive)
REMARK    1  A    between atoms: C_3  and  C_6
REMARK    2  A    between atoms: N_4  and  C_12
REMARK                            x       y       z     vdW  Elec       q    Type
REMARK                         _______ _______ _______ _____ _____    ______ ____
ROOT
ATOM      1  C   UNL     1       1.403   4.893   1.327  0.00  0.00    +0.017 C 
ATOM      2  C   UNL     1       0.567   5.937   0.541  0.00  0.00    +0.025 C 
ATOM      3  C   UNL     1      -0.686   6.114   1.424  0.00  0.00    +0.088 C 
ATOM      4  N   UNL     1      -0.807   4.906   2.259  0.00  0.00    -0.298 NA
ATOM      5  C   UNL     1       0.296   3.983   1.914  0.00  0.00    +0.085 C 
ATOM      6  C   UNL     1      -0.781   5.247   3.687  0.00  0.00    +0.105 C 
ENDROOT
BRANCH   3   7
ATOM      7  C   UNL     1      -1.908   6.264   0.556  0.00  0.00    -0.012 A 
ATOM      8  C   UNL     1      -1.920   5.754  -0.728  0.00  0.00    +0.115 A 
ATOM      9  N   UNL     1      -2.986   5.880  -1.494  0.00  0.00    -0.263 NA
ATOM     10  C   UNL     1      -4.074   6.493  -1.072  0.00  0.00    +0.111 A 
ATOM     11  C   UNL     1      -4.137   7.028   0.201  0.00  0.00    +0.020 A 
ATOM     12  C   UNL     1      -3.037   6.910   1.037  0.00  0.00    +0.008 A 
ENDBRANCH   3   7
TORSDOF 1
ENDMDL
MODEL 8
REMARK VINA RESULT:    -4.007      1.221      2.112
REMARK INTER + INTRA:          -4.463
REMARK INTER:                  -4.268
REMARK INTRA:                  -0.195
REMARK UNBOUND:                -0.222
REMARK  Name = Nicotine.pdb
REMARK  2 active torsions:
REMARK  status: ('A' for Active; 'I' for Inactive)
REMARK    1  A    between atoms: C_3  and  C_6
REMARK    2  A    between atoms: N_4  and  C_12
REMARK                            x       y       z     vdW  Elec       q    Type
REMARK                         _______ _______ _______ _____ _____    ______ ____
ROOT
ATOM      1  C   UNL     1      -0.205   4.595   2.544  0.00  0.00    +0.017 C 
ATOM      2  C   UNL     1      -0.720   4.025   1.196  0.00  0.00    +0.025 C 
ATOM      3  C   UNL     1      -0.404   5.158   0.197  0.00  0.00    +0.088 C 
ATOM      4  N   UNL     1      -0.288   6.406   0.973  0.00  0.00    -0.298 NA
ATOM      5  C   UNL     1      -0.543   6.100   2.397  0.00  0.00    +0.085 C 
ATOM      6  C   UNL     1       1.035   7.018   0.794  0.00  0.00    +0.105 C 
ENDROOT
BRANCH   3   7
ATOM      7  C   UNL     1      -1.518   5.280  -0.810  0.00  0.00    -0.012 A 
ATOM      8  C   UNL     1      -1.491   4.538  -1.976  0.00  0.00    +0.115 A 
ATOM      9  N   UNL     1      -2.463   4.639  -2.862  0.00  0.00    -0.263 NA
ATOM     10  C   UNL     1      -3.490   5.443  -2.675  0.00  0.00    +0.111 A 
ATOM     11  C   UNL     1      -3.586   6.215  -1.533  0.00  0.00    +0.020 A 
ATOM     12  C   UNL     1      -2.586   6.132  -0.576  0.00  0.00    +0.008 A 
ENDBRANCH   3   7
TORSDOF 1
ENDMDL
MODEL 9
REMARK VINA RESULT:    -3.912      8.658     10.477
REMARK INTER + INTRA:          -4.363
REMARK INTER:                  -4.168
REMARK INTRA:                  -0.195
REMARK UNBOUND:                -0.222
REMARK  Name = Nicotine.pdb
REMARK  2 active torsions:
REMARK  status: ('A' for Active; 'I' for Inactive)
REMARK    1  A    between atoms: C_3  and  C_6
REMARK    2  A    between atoms: N_4  and  C_12
REMARK                            x       y       z     vdW  Elec       q    Type
REMARK                         _______ _______ _______ _____ _____    ______ ____
ROOT
ATOM      1  C   UNL     1       3.024   0.546   2.484  0.00  0.00    +0.017 C 
ATOM      2  C   UNL     1       3.801   1.809   2.027  0.00  0.00    +0.025 C 
ATOM      3  C   UNL     1       5.087   1.221   1.409  0.00  0.00    +0.088 C 
ATOM      4  N   UNL     1       5.272  -0.124   1.983  0.00  0.00    -0.298 NA
ATOM      5  C   UNL     1       4.177  -0.381   2.943  0.00  0.00    +0.085 C 
ATOM      6  C   UNL     1       5.302  -1.148   0.931  0.00  0.00    +0.105 C 
ENDROOT
BRANCH   3   7
ATOM      7  C   UNL     1       6.267   2.093   1.753  0.00  0.00    -0.012 A 
ATOM      8  C   UNL     1       6.152   3.470   1.716  0.00  0.00    +0.115 A 
ATOM      9  N   UNL     1       7.179   4.241   2.015  0.00  0.00    -0.263 NA
ATOM     10  C   UNL     1       8.347   3.736   2.358  0.00  0.00    +0.111 A 
ATOM     11  C   UNL     1       8.538   2.368   2.418  0.00  0.00    +0.020 A 
ATOM     12  C   UNL     1       7.479   1.526   2.115  0.00  0.00    +0.008 A 
ENDBRANCH   3   7
TORSDOF 1
ENDMDL
MODEL 10
REMARK VINA RESULT:    -3.871      2.422      3.983
REMARK INTER + INTRA:          -4.319
REMARK INTER:                  -4.139
REMARK INTRA:                  -0.181
REMARK UNBOUND:                -0.222
REMARK  Name = Nicotine.pdb
REMARK  2 active torsions:
REMARK  status: ('A' for Active; 'I' for Inactive)
REMARK    1  A    between atoms: C_3  and  C_6
REMARK    2  A    between atoms: N_4  and  C_12
REMARK                            x       y       z     vdW  Elec       q    Type
REMARK                         _______ _______ _______ _____ _____    ______ ____
ROOT
ATOM      1  C   UNL     1       2.950   6.480   2.481  0.00  0.00    +0.017 C 
ATOM      2  C   UNL     1       1.843   7.026   1.542  0.00  0.00    +0.025 C 
ATOM      3  C   UNL     1       0.542   6.653   2.286  0.00  0.00    +0.088 C 
ATOM      4  N   UNL     1       0.863   5.538   3.194  0.00  0.00    -0.298 NA
ATOM      5  C   UNL     1       2.290   5.189   3.027  0.00  0.00    +0.085 C 
ATOM      6  C   UNL     1       0.567   5.891   4.588  0.00  0.00    +0.105 C 
ENDROOT
BRANCH   3   7
ATOM      7  C   UNL     1      -0.510   6.225   1.296  0.00  0.00    -0.012 A 
ATOM      8  C   UNL     1      -0.284   5.149   0.458  0.00  0.00    +0.115 A 
ATOM      9  N   UNL     1      -1.200   4.767  -0.411  0.00  0.00    -0.263 NA
ATOM     10  C   UNL     1      -2.357   5.389  -0.516  0.00  0.00    +0.111 A 
ATOM     11  C   UNL     1      -2.654   6.473   0.289  0.00  0.00    +0.020 A 
ATOM     12  C   UNL     1      -1.718   6.900   1.218  0.00  0.00    +0.008 A 
ENDBRANCH   3   7
TORSDOF 1
ENDMDL
