MODEL 1
REMARK VINA RESULT:     8.904      0.000      0.000
REMARK INTER + INTRA:           9.255
REMARK INTER:                   9.424
REMARK INTRA:                  -0.169
REMARK UNBOUND:                -0.169
REMARK  Name = Nicotine.pdb
REMARK  2 active torsions:
REMARK  status: ('A' for Active; 'I' for Inactive)
REMARK    1  A    between atoms: C_3  and  C_6
REMARK    2  A    between atoms: N_4  and  C_12
REMARK                            x       y       z     vdW  Elec       q    Type
REMARK                         _______ _______ _______ _____ _____    ______ ____
ROOT
ATOM      1  C   UNL     1       0.131  -1.220   4.168  0.00  0.00    +0.017 C 
ATOM      2  C   UNL     1       1.305  -1.740   3.297  0.00  0.00    +0.025 C 
ATOM      3  C   UNL     1       2.515  -0.952   3.840  0.00  0.00    +0.088 C 
ATOM      4  N   UNL     1       1.990   0.260   4.494  0.00  0.00    -0.298 NA
ATOM      5  C   UNL     1       0.518   0.268   4.358  0.00  0.00    +0.085 C 
ATOM      6  C   UNL     1       2.389   0.311   5.907  0.00  0.00    +0.105 C 
ENDROOT
BRANCH   3   7
ATOM      7  C   UNL     1       3.428  -0.568   2.704  0.00  0.00    -0.012 A 
ATOM      8  C   UNL     1       3.119   0.507   1.892  0.00  0.00    +0.115 A 
ATOM      9  N   UNL     1       3.913   0.850   0.896  0.00  0.00    -0.263 NA
ATOM     10  C   UNL     1       5.023   0.188   0.635  0.00  0.00    +0.111 A 
ATOM     11  C   UNL     1       5.398  -0.897   1.405  0.00  0.00    +0.020 A 
ATOM     12  C   UNL     1       4.591  -1.284   2.464  0.00  0.00    +0.008 A 
ENDBRANCH   3   7
TORSDOF 1
ENDMDL
MODEL 2
REMARK VINA RESULT:    10.118      1.051      4.619
REMARK INTER + INTRA:          10.540
REMARK INTER:                  10.714
REMARK INTRA:                  -0.174
REMARK UNBOUND:                -0.169
REMARK  Name = Nicotine.pdb
REMARK  2 active torsions:
REMARK  status: ('A' for Active; 'I' for Inactive)
REMARK    1  A    between atoms: C_3  and  C_6
REMARK    2  A    between atoms: N_4  and  C_12
REMARK                            x       y       z     vdW  Elec       q    Type
REMARK                         _______ _______ _______ _____ _____    ______ ____
ROOT
ATOM      1  C   UNL     1       6.457  -0.171   1.188  0.00  0.00    +0.017 C 
ATOM      2  C   UNL     1       5.585  -0.837   2.285  0.00  0.00    +0.025 C 
ATOM      3  C   UNL     1       4.179  -0.854   1.647  0.00  0.00    +0.088 C 
ATOM      4  N   UNL     1       4.158   0.191   0.608  0.00  0.00    -0.298 NA
ATOM      5  C   UNL     1       5.473   0.867   0.592  0.00  0.00    +0.085 C 
ATOM      6  C   UNL     1       3.843  -0.381  -0.708  0.00  0.00    +0.105 C 
ENDROOT
BRANCH   3   7
ATOM      7  C   UNL     1       3.138  -0.559   2.695  0.00  0.00    -0.012 A 
ATOM      8  C   UNL     1       2.796   0.747   2.992  0.00  0.00    +0.115 A 
ATOM      9  N   UNL     1       1.885   1.015   3.908  0.00  0.00    -0.263 NA
ATOM     10  C   UNL     1       1.269   0.057   4.572  0.00  0.00    +0.111 A 
ATOM     11  C   UNL     1       1.558  -1.272   4.329  0.00  0.00    +0.020 A 
ATOM     12  C   UNL     1       2.506  -1.592   3.369  0.00  0.00    +0.008 A 
ENDBRANCH   3   7
TORSDOF 1
ENDMDL
MODEL 3
REMARK VINA RESULT:    10.779      1.206      4.487
REMARK INTER + INTRA:          11.240
REMARK INTER:                  11.449
REMARK INTRA:                  -0.210
REMARK UNBOUND:                -0.169
REMARK  Name = Nicotine.pdb
REMARK  2 active torsions:
REMARK  status: ('A' for Active; 'I' for Inactive)
REMARK    1  A    between atoms: C_3  and  C_6
REMARK    2  A    between atoms: N_4  and  C_12
REMARK                            x       y       z     vdW  Elec       q    Type
REMARK                         _______ _______ _______ _____ _____    ______ ____
ROOT
ATOM      1  C   UNL     1       4.636   0.711   0.133  0.00  0.00    +0.017 C 
ATOM      2  C   UNL     1       3.780   1.156   1.348  0.00  0.00    +0.025 C 
ATOM      3  C   UNL     1       4.057   0.052   2.391  0.00  0.00    +0.088 C 
ATOM      4  N   UNL     1       4.514  -1.140   1.654  0.00  0.00    -0.298 NA
ATOM      5  C   UNL     1       4.507  -0.831   0.208  0.00  0.00    +0.085 C 
ATOM      6  C   UNL     1       5.851  -1.554   2.098  0.00  0.00    +0.105 C 
ENDROOT
BRANCH   3   7
ATOM      7  C   UNL     1       2.794  -0.265   3.149  0.00  0.00    -0.012 A 
ATOM      8  C   UNL     1       2.283   0.637   4.063  0.00  0.00    +0.115 A 
ATOM      9  N   UNL     1       1.178   0.368   4.731  0.00  0.00    -0.263 NA
ATOM     10  C   UNL     1       0.522  -0.762   4.558  0.00  0.00    +0.111 A 
ATOM     11  C   UNL     1       0.973  -1.712   3.660  0.00  0.00    +0.020 A 
ATOM     12  C   UNL     1       2.128  -1.461   2.935  0.00  0.00    +0.008 A 
ENDBRANCH   3   7
TORSDOF 1
ENDMDL
MODEL 4
REMARK VINA RESULT:    11.127      0.934      1.930
REMARK INTER + INTRA:          11.608
REMARK INTER:                  11.800
REMARK INTRA:                  -0.193
REMARK UNBOUND:                -0.169
REMARK  Name = Nicotine.pdb
REMARK  2 active torsions:
REMARK  status: ('A' for Active; 'I' for Inactive)
REMARK    1  A    between atoms: C_3  and  C_6
REMARK    2  A    between atoms: N_4  and  C_12
REMARK                            x       y       z     vdW  Elec       q    Type
REMARK                         _______ _______ _______ _____ _____    ______ ____
ROOT
ATOM      1  C   UNL     1       1.978   0.419   6.199  0.00  0.00    +0.017 C 
ATOM      2  C   UNL     1       2.707   1.047   4.982  0.00  0.00    +0.025 C 
ATOM      3  C   UNL     1       2.098   0.289   3.784  0.00  0.00    +0.088 C 
ATOM      4  N   UNL     1       1.560  -0.983   4.298  0.00  0.00    -0.298 NA
ATOM      5  C   UNL     1       1.832  -1.056   5.750  0.00  0.00    +0.085 C 
ATOM      6  C   UNL     1       0.122  -1.097   4.025  0.00  0.00    +0.105 C 
ENDROOT
BRANCH   3   7
ATOM      7  C   UNL     1       3.163   0.017   2.753  0.00  0.00    -0.012 A 
ATOM      8  C   UNL     1       3.292   0.838   1.648  0.00  0.00    +0.115 A 
ATOM      9  N   UNL     1       4.222   0.607   0.742  0.00  0.00    -0.263 NA
ATOM     10  C   UNL     1       5.059  -0.406   0.850  0.00  0.00    +0.111 A 
ATOM     11  C   UNL     1       4.991  -1.269   1.928  0.00  0.00    +0.020 A 
ATOM     12  C   UNL     1       4.029  -1.055   2.904  0.00  0.00    +0.008 A 
ENDBRANCH   3   7
TORSDOF 1
ENDMDL
