MODEL 1
REMARK VINA RESULT:     3.104      0.000      0.000
REMARK INTER + INTRA:           3.093
REMARK INTER:                   3.285
REMARK INTRA:                  -0.192
REMARK UNBOUND:                -0.192
REMARK  Name = Nicotine.pdb
REMARK  2 active torsions:
REMARK  status: ('A' for Active; 'I' for Inactive)
REMARK    1  A    between atoms: C_3  and  C_6
REMARK    2  A    between atoms: N_4  and  C_12
REMARK                            x       y       z     vdW  Elec       q    Type
REMARK                         _______ _______ _______ _____ _____    ______ ____
ROOT
ATOM      1  C   UNL     1       4.178   1.769   5.268  0.00  0.00    +0.017 C 
ATOM      2  C   UNL     1       3.233   2.640   6.138  0.00  0.00    +0.025 C 
ATOM      3  C   UNL     1       1.960   1.774   6.241  0.00  0.00    +0.088 C 
ATOM      4  N   UNL     1       1.972   0.841   5.100  0.00  0.00    -0.298 NA
ATOM      5  C   UNL     1       3.178   1.108   4.287  0.00  0.00    +0.085 C 
ATOM      6  C   UNL     1       1.945  -0.554   5.560  0.00  0.00    +0.105 C 
ENDROOT
BRANCH   3   7
ATOM      7  C   UNL     1       0.736   2.651   6.174  0.00  0.00    -0.012 A 
ATOM      8  C   UNL     1       0.857   4.026   6.243  0.00  0.00    +0.115 A 
ATOM      9  N   UNL     1      -0.208   4.801   6.185  0.00  0.00    -0.263 NA
ATOM     10  C   UNL     1      -1.422   4.302   6.061  0.00  0.00    +0.111 A 
ATOM     11  C   UNL     1      -1.621   2.936   5.985  0.00  0.00    +0.020 A 
ATOM     12  C   UNL     1      -0.524   2.090   6.038  0.00  0.00    +0.008 A 
ENDBRANCH   3   7
TORSDOF 1
ENDMDL
MODEL 2
REMARK VINA RESULT:     3.818      1.325      4.460
REMARK INTER + INTRA:           3.849
REMARK INTER:                   4.078
REMARK INTRA:                  -0.229
REMARK UNBOUND:                -0.192
REMARK  Name = Nicotine.pdb
REMARK  2 active torsions:
REMARK  status: ('A' for Active; 'I' for Inactive)
REMARK    1  A    between atoms: C_3  and  C_6
REMARK    2  A    between atoms: N_4  and  C_12
REMARK                            x       y       z     vdW  Elec       q    Type
REMARK                         _______ _______ _______ _____ _____    ______ ____
ROOT
ATOM      1  C   UNL     1      -1.711   2.558   5.105  0.00  0.00    +0.017 C 
ATOM      2  C   UNL     1      -0.683   1.663   5.845  0.00  0.00    +0.025 C 
ATOM      3  C   UNL     1       0.424   2.661   6.243  0.00  0.00    +0.088 C 
ATOM      4  N   UNL     1       0.318   3.817   5.335  0.00  0.00    -0.298 NA
ATOM      5  C   UNL     1      -0.784   3.566   4.381  0.00  0.00    +0.085 C 
ATOM      6  C   UNL     1       0.093   5.059   6.085  0.00  0.00    +0.105 C 
ENDROOT
BRANCH   3   7
ATOM      7  C   UNL     1       1.776   2.014   6.095  0.00  0.00    -0.012 A 
ATOM      8  C   UNL     1       2.929   2.765   6.226  0.00  0.00    +0.115 A 
ATOM      9  N   UNL     1       4.117   2.206   6.098  0.00  0.00    -0.263 NA
ATOM     10  C   UNL     1       4.253   0.920   5.842  0.00  0.00    +0.111 A 
ATOM     11  C   UNL     1       3.146   0.105   5.699  0.00  0.00    +0.020 A 
ATOM     12  C   UNL     1       1.881   0.656   5.832  0.00  0.00    +0.008 A 
ENDBRANCH   3   7
TORSDOF 1
ENDMDL
MODEL 3
REMARK VINA RESULT:     4.444      1.397      4.493
REMARK INTER + INTRA:           4.512
REMARK INTER:                   4.736
REMARK INTRA:                  -0.224
REMARK UNBOUND:                -0.192
REMARK  Name = Nicotine.pdb
REMARK  2 active torsions:
REMARK  status: ('A' for Active; 'I' for Inactive)
REMARK    1  A    between atoms: C_3  and  C_6
REMARK    2  A    between atoms: N_4  and  C_12
REMARK                            x       y       z     vdW  Elec       q    Type
REMARK                         _______ _______ _______ _____ _____    ______ ____
ROOT
ATOM      1  C   UNL     1      -1.186   3.690   6.244  0.00  0.00    +0.017 C 
ATOM      2  C   UNL     1       0.364   3.715   6.185  0.00  0.00    +0.025 C 
ATOM      3  C   UNL     1       0.688   2.650   5.115  0.00  0.00    +0.088 C 
ATOM      4  N   UNL     1      -0.473   1.745   5.034  0.00  0.00    -0.298 NA
ATOM      5  C   UNL     1      -1.484   2.186   6.019  0.00  0.00    +0.085 C 
ATOM      6  C   UNL     1      -1.033   1.726   3.677  0.00  0.00    +0.105 C 
ENDROOT
BRANCH   3   7
ATOM      7  C   UNL     1       1.916   1.876   5.518  0.00  0.00    -0.012 A 
ATOM      8  C   UNL     1       1.872   0.499   5.623  0.00  0.00    +0.115 A 
ATOM      9  N   UNL     1       2.942  -0.186   5.975  0.00  0.00    -0.263 NA
ATOM     10  C   UNL     1       4.089   0.408   6.240  0.00  0.00    +0.111 A 
ATOM     11  C   UNL     1       4.210   1.783   6.156  0.00  0.00    +0.020 A 
ATOM     12  C   UNL     1       3.107   2.536   5.784  0.00  0.00    +0.008 A 
ENDBRANCH   3   7
TORSDOF 1
ENDMDL
MODEL 4
REMARK VINA RESULT:     4.742      1.310      4.631
REMARK INTER + INTRA:           4.827
REMARK INTER:                   5.011
REMARK INTRA:                  -0.184
REMARK UNBOUND:                -0.192
REMARK  Name = Nicotine.pdb
REMARK  2 active torsions:
REMARK  status: ('A' for Active; 'I' for Inactive)
REMARK    1  A    between atoms: C_3  and  C_6
REMARK    2  A    between atoms: N_4  and  C_12
REMARK                            x       y       z     vdW  Elec       q    Type
REMARK                         _______ _______ _______ _____ _____    ______ ____
ROOT
ATOM      1  C   UNL     1      -1.410   2.333   4.796  0.00  0.00    +0.017 C 
ATOM      2  C   UNL     1      -0.416   1.453   5.600  0.00  0.00    +0.025 C 
ATOM      3  C   UNL     1       0.526   2.493   6.242  0.00  0.00    +0.088 C 
ATOM      4  N   UNL     1       0.440   3.721   5.430  0.00  0.00    -0.298 NA
ATOM      5  C   UNL     1      -0.490   3.478   4.307  0.00  0.00    +0.085 C 
ATOM      6  C   UNL     1      -0.002   4.861   6.244  0.00  0.00    +0.105 C 
ENDROOT
BRANCH   3   7
ATOM      7  C   UNL     1       1.941   1.974   6.240  0.00  0.00    -0.012 A 
ATOM      8  C   UNL     1       2.186   0.614   6.231  0.00  0.00    +0.115 A 
ATOM      9  N   UNL     1       3.421   0.151   6.229  0.00  0.00    -0.263 NA
ATOM     10  C   UNL     1       4.463   0.957   6.235  0.00  0.00    +0.111 A 
ATOM     11  C   UNL     1       4.296   2.330   6.243  0.00  0.00    +0.020 A 
ATOM     12  C   UNL     1       3.013   2.853   6.240  0.00  0.00    +0.008 A 
ENDBRANCH   3   7
TORSDOF 1
ENDMDL
MODEL 5
REMARK VINA RESULT:     5.614      1.776      4.389
REMARK INTER + INTRA:           5.750
REMARK INTER:                   5.925
REMARK INTRA:                  -0.175
REMARK UNBOUND:                -0.192
REMARK  Name = Nicotine.pdb
REMARK  2 active torsions:
REMARK  status: ('A' for Active; 'I' for Inactive)
REMARK    1  A    between atoms: C_3  and  C_6
REMARK    2  A    between atoms: N_4  and  C_12
REMARK                            x       y       z     vdW  Elec       q    Type
REMARK                         _______ _______ _______ _____ _____    ______ ____
ROOT
ATOM      1  C   UNL     1      -0.978   2.972   3.161  0.00  0.00    +0.017 C 
ATOM      2  C   UNL     1      -0.003   1.773   3.301  0.00  0.00    +0.025 C 
ATOM      3  C   UNL     1      -0.068   1.447   4.808  0.00  0.00    +0.088 C 
ATOM      4  N   UNL     1      -0.538   2.662   5.498  0.00  0.00    -0.298 NA
ATOM      5  C   UNL     1      -0.739   3.727   4.493  0.00  0.00    +0.085 C 
ATOM      6  C   UNL     1      -1.776   2.399   6.244  0.00  0.00    +0.105 C 
ENDROOT
BRANCH   3   7
ATOM      7  C   UNL     1       1.300   1.067   5.311  0.00  0.00    -0.012 A 
ATOM      8  C   UNL     1       2.330   1.988   5.300  0.00  0.00    +0.115 A 
ATOM      9  N   UNL     1       3.531   1.664   5.738  0.00  0.00    -0.263 NA
ATOM     10  C   UNL     1       3.797   0.458   6.200  0.00  0.00    +0.111 A 
ATOM     11  C   UNL     1       2.817  -0.516   6.242  0.00  0.00    +0.020 A 
ATOM     12  C   UNL     1       1.541  -0.210   5.795  0.00  0.00    +0.008 A 
ENDBRANCH   3   7
TORSDOF 1
ENDMDL
