MODEL 1
REMARK VINA RESULT:    -3.636      0.000      0.000
REMARK INTER + INTRA:          -4.038
REMARK INTER:                  -3.849
REMARK INTRA:                  -0.189
REMARK UNBOUND:                -0.189
REMARK  Name = Nicotine.pdb
REMARK  2 active torsions:
REMARK  status: ('A' for Active; 'I' for Inactive)
REMARK    1  A    between atoms: C_3  and  C_6
REMARK    2  A    between atoms: N_4  and  C_12
REMARK                            x       y       z     vdW  Elec       q    Type
REMARK                         _______ _______ _______ _____ _____    ______ ____
ROOT
ATOM      1  C   UNL     1       1.633  -4.143  -2.192  0.00  0.00    +0.017 C 
ATOM      2  C   UNL     1       1.970  -3.099  -1.095  0.00  0.00    +0.025 C 
ATOM      3  C   UNL     1       2.833  -3.906  -0.102  0.00  0.00    +0.088 C 
ATOM      4  N   UNL     1       2.516  -5.331  -0.305  0.00  0.00    -0.298 NA
ATOM      5  C   UNL     1       1.482  -5.438  -1.356  0.00  0.00    +0.085 C 
ATOM      6  C   UNL     1       3.718  -6.093  -0.668  0.00  0.00    +0.105 C 
ENDROOT
BRANCH   3   7
ATOM      7  C   UNL     1       2.502  -3.502   1.311  0.00  0.00    -0.012 A 
ATOM      8  C   UNL     1       1.194  -3.532   1.759  0.00  0.00    +0.115 A 
ATOM      9  N   UNL     1       0.896  -3.180   2.994  0.00  0.00    -0.263 NA
ATOM     10  C   UNL     1       1.822  -2.788   3.846  0.00  0.00    +0.111 A 
ATOM     11  C   UNL     1       3.152  -2.734   3.471  0.00  0.00    +0.020 A 
ATOM     12  C   UNL     1       3.504  -3.101   2.181  0.00  0.00    +0.008 A 
ENDBRANCH   3   7
TORSDOF 1
ENDMDL
MODEL 2
REMARK VINA RESULT:    -3.571      1.413      4.321
REMARK INTER + INTRA:          -3.968
REMARK INTER:                  -3.762
REMARK INTRA:                  -0.206
REMARK UNBOUND:                -0.189
REMARK  Name = Nicotine.pdb
REMARK  2 active torsions:
REMARK  status: ('A' for Active; 'I' for Inactive)
REMARK    1  A    between atoms: C_3  and  C_6
REMARK    2  A    between atoms: N_4  and  C_12
REMARK                            x       y       z     vdW  Elec       q    Type
REMARK                         _______ _______ _______ _____ _____    ______ ____
ROOT
ATOM      1  C   UNL     1       1.623  -2.828   3.714  0.00  0.00    +0.017 C 
ATOM      2  C   UNL     1       0.801  -3.414   2.535  0.00  0.00    +0.025 C 
ATOM      3  C   UNL     1       1.787  -4.408   1.885  0.00  0.00    +0.088 C 
ATOM      4  N   UNL     1       3.147  -3.990   2.271  0.00  0.00    -0.298 NA
ATOM      5  C   UNL     1       3.046  -2.774   3.106  0.00  0.00    +0.085 C 
ATOM      6  C   UNL     1       3.844  -5.065   2.988  0.00  0.00    +0.105 C 
ENDROOT
BRANCH   3   7
ATOM      7  C   UNL     1       1.643  -4.366   0.386  0.00  0.00    -0.012 A 
ATOM      8  C   UNL     1       1.174  -5.470  -0.302  0.00  0.00    +0.115 A 
ATOM      9  N   UNL     1       1.045  -5.442  -1.614  0.00  0.00    -0.263 NA
ATOM     10  C   UNL     1       1.354  -4.371  -2.318  0.00  0.00    +0.111 A 
ATOM     11  C   UNL     1       1.829  -3.230  -1.699  0.00  0.00    +0.020 A 
ATOM     12  C   UNL     1       1.973  -3.220  -0.321  0.00  0.00    +0.008 A 
ENDBRANCH   3   7
TORSDOF 1
ENDMDL
MODEL 3
REMARK VINA RESULT:    -3.565      1.975      3.068
REMARK INTER + INTRA:          -3.962
REMARK INTER:                  -3.740
REMARK INTRA:                  -0.222
REMARK UNBOUND:                -0.189
REMARK  Name = Nicotine.pdb
REMARK  2 active torsions:
REMARK  status: ('A' for Active; 'I' for Inactive)
REMARK    1  A    between atoms: C_3  and  C_6
REMARK    2  A    between atoms: N_4  and  C_12
REMARK                            x       y       z     vdW  Elec       q    Type
REMARK                         _______ _______ _______ _____ _____    ______ ____
ROOT
ATOM      1  C   UNL     1       0.443  -4.957   1.437  0.00  0.00    +0.017 C 
ATOM      2  C   UNL     1       1.059  -4.138   2.602  0.00  0.00    +0.025 C 
ATOM      3  C   UNL     1       2.164  -3.317   1.902  0.00  0.00    +0.088 C 
ATOM      4  N   UNL     1       2.509  -4.023   0.655  0.00  0.00    -0.298 NA
ATOM      5  C   UNL     1       1.690  -5.251   0.566  0.00  0.00    +0.085 C 
ATOM      6  C   UNL     1       2.296  -3.161  -0.515  0.00  0.00    +0.105 C 
ENDROOT
BRANCH   3   7
ATOM      7  C   UNL     1       3.375  -3.224   2.793  0.00  0.00    -0.012 A 
ATOM      8  C   UNL     1       4.624  -3.574   2.314  0.00  0.00    +0.115 A 
ATOM      9  N   UNL     1       5.689  -3.495   3.087  0.00  0.00    -0.263 NA
ATOM     10  C   UNL     1       5.610  -3.084   4.337  0.00  0.00    +0.111 A 
ATOM     11  C   UNL     1       4.395  -2.716   4.885  0.00  0.00    +0.020 A 
ATOM     12  C   UNL     1       3.254  -2.781   4.101  0.00  0.00    +0.008 A 
ENDBRANCH   3   7
TORSDOF 1
ENDMDL
MODEL 4
REMARK VINA RESULT:    -3.538      1.754      5.123
REMARK INTER + INTRA:          -3.934
REMARK INTER:                  -3.719
REMARK INTRA:                  -0.215
REMARK UNBOUND:                -0.189
REMARK  Name = Nicotine.pdb
REMARK  2 active torsions:
REMARK  status: ('A' for Active; 'I' for Inactive)
REMARK    1  A    between atoms: C_3  and  C_6
REMARK    2  A    between atoms: N_4  and  C_12
REMARK                            x       y       z     vdW  Elec       q    Type
REMARK                         _______ _______ _______ _____ _____    ______ ____
ROOT
ATOM      1  C   UNL     1       3.966  -2.758   5.766  0.00  0.00    +0.017 C 
ATOM      2  C   UNL     1       4.024  -2.733   4.216  0.00  0.00    +0.025 C 
ATOM      3  C   UNL     1       2.580  -2.358   3.820  0.00  0.00    +0.088 C 
ATOM      4  N   UNL     1       1.709  -2.716   4.954  0.00  0.00    -0.298 NA
ATOM      5  C   UNL     1       2.543  -3.317   6.017  0.00  0.00    +0.085 C 
ATOM      6  C   UNL     1       0.984  -1.541   5.454  0.00  0.00    +0.105 C 
ENDROOT
BRANCH   3   7
ATOM      7  C   UNL     1       2.169  -3.127   2.592  0.00  0.00    -0.012 A 
ATOM      8  C   UNL     1       0.847  -3.479   2.398  0.00  0.00    +0.115 A 
ATOM      9  N   UNL     1       0.478  -4.152   1.325  0.00  0.00    -0.263 NA
ATOM     10  C   UNL     1       1.347  -4.515   0.402  0.00  0.00    +0.111 A 
ATOM     11  C   UNL     1       2.687  -4.199   0.528  0.00  0.00    +0.020 A 
ATOM     12  C   UNL     1       3.111  -3.487   1.640  0.00  0.00    +0.008 A 
ENDBRANCH   3   7
TORSDOF 1
ENDMDL
MODEL 5
REMARK VINA RESULT:    -3.505      2.079      4.453
REMARK INTER + INTRA:          -3.898
REMARK INTER:                  -3.684
REMARK INTRA:                  -0.215
REMARK UNBOUND:                -0.189
REMARK  Name = Nicotine.pdb
REMARK  2 active torsions:
REMARK  status: ('A' for Active; 'I' for Inactive)
REMARK    1  A    between atoms: C_3  and  C_6
REMARK    2  A    between atoms: N_4  and  C_12
REMARK                            x       y       z     vdW  Elec       q    Type
REMARK                         _______ _______ _______ _____ _____    ______ ____
ROOT
ATOM      1  C   UNL     1       4.821  -2.783   5.042  0.00  0.00    +0.017 C 
ATOM      2  C   UNL     1       3.454  -2.704   4.314  0.00  0.00    +0.025 C 
ATOM      3  C   UNL     1       3.482  -3.939   3.388  0.00  0.00    +0.088 C 
ATOM      4  N   UNL     1       4.896  -4.303   3.188  0.00  0.00    -0.298 NA
ATOM      5  C   UNL     1       5.740  -3.338   3.925  0.00  0.00    +0.085 C 
ATOM      6  C   UNL     1       5.154  -5.678   3.636  0.00  0.00    +0.105 C 
ENDROOT
BRANCH   3   7
ATOM      7  C   UNL     1       2.846  -3.602   2.064  0.00  0.00    -0.012 A 
ATOM      8  C   UNL     1       1.512  -3.245   2.000  0.00  0.00    +0.115 A 
ATOM      9  N   UNL     1       0.948  -2.949   0.846  0.00  0.00    -0.263 NA
ATOM     10  C   UNL     1       1.625  -2.980  -0.285  0.00  0.00    +0.111 A 
ATOM     11  C   UNL     1       2.963  -3.327  -0.299  0.00  0.00    +0.020 A 
ATOM     12  C   UNL     1       3.592  -3.640   0.896  0.00  0.00    +0.008 A 
ENDBRANCH   3   7
TORSDOF 1
ENDMDL
MODEL 6
REMARK VINA RESULT:    -3.406      1.945      5.143
REMARK INTER + INTRA:          -3.794
REMARK INTER:                  -3.620
REMARK INTRA:                  -0.174
REMARK UNBOUND:                -0.189
REMARK  Name = Nicotine.pdb
REMARK  2 active torsions:
REMARK  status: ('A' for Active; 'I' for Inactive)
REMARK    1  A    between atoms: C_3  and  C_6
REMARK    2  A    between atoms: N_4  and  C_12
REMARK                            x       y       z     vdW  Elec       q    Type
REMARK                         _______ _______ _______ _____ _____    ______ ____
ROOT
ATOM      1  C   UNL     1       2.485  -2.216   6.218  0.00  0.00    +0.017 C 
ATOM      2  C   UNL     1       2.077  -1.804   4.779  0.00  0.00    +0.025 C 
ATOM      3  C   UNL     1       1.656  -3.145   4.140  0.00  0.00    +0.088 C 
ATOM      4  N   UNL     1       2.307  -4.219   4.911  0.00  0.00    -0.298 NA
ATOM      5  C   UNL     1       3.129  -3.604   5.975  0.00  0.00    +0.085 C 
ATOM      6  C   UNL     1       1.313  -5.140   5.477  0.00  0.00    +0.105 C 
ENDROOT
BRANCH   3   7
ATOM      7  C   UNL     1       2.109  -3.194   2.704  0.00  0.00    -0.012 A 
ATOM      8  C   UNL     1       3.456  -3.207   2.397  0.00  0.00    +0.115 A 
ATOM      9  N   UNL     1       3.862  -3.250   1.143  0.00  0.00    -0.263 NA
ATOM     10  C   UNL     1       3.008  -3.281   0.139  0.00  0.00    +0.111 A 
ATOM     11  C   UNL     1       1.645  -3.270   0.369  0.00  0.00    +0.020 A 
ATOM     12  C   UNL     1       1.181  -3.231   1.675  0.00  0.00    +0.008 A 
ENDBRANCH   3   7
TORSDOF 1
ENDMDL
MODEL 7
REMARK VINA RESULT:    -3.382      8.447     10.178
REMARK INTER + INTRA:          -3.769
REMARK INTER:                  -3.519
REMARK INTRA:                  -0.250
REMARK UNBOUND:                -0.189
REMARK  Name = Nicotine.pdb
REMARK  2 active torsions:
REMARK  status: ('A' for Active; 'I' for Inactive)
REMARK    1  A    between atoms: C_3  and  C_6
REMARK    2  A    between atoms: N_4  and  C_12
REMARK                            x       y       z     vdW  Elec       q    Type
REMARK                         _______ _______ _______ _____ _____    ______ ____
ROOT
ATOM      1  C   UNL     1      -4.780   2.543  -5.152  0.00  0.00    +0.017 C 
ATOM      2  C   UNL     1      -3.794   2.053  -6.245  0.00  0.00    +0.025 C 
ATOM      3  C   UNL     1      -2.795   1.188  -5.448  0.00  0.00    +0.088 C 
ATOM      4  N   UNL     1      -2.862   1.625  -4.042  0.00  0.00    -0.298 NA
ATOM      5  C   UNL     1      -3.835   2.734  -3.940  0.00  0.00    +0.085 C 
ATOM      6  C   UNL     1      -3.238   0.512  -3.161  0.00  0.00    +0.105 C 
ENDROOT
BRANCH   3   7
ATOM      7  C   UNL     1      -1.401   1.390  -5.983  0.00  0.00    -0.012 A 
ATOM      8  C   UNL     1      -0.531   0.321  -6.089  0.00  0.00    +0.115 A 
ATOM      9  N   UNL     1       0.691   0.490  -6.556  0.00  0.00    -0.263 NA
ATOM     10  C   UNL     1       1.130   1.673  -6.938  0.00  0.00    +0.111 A 
ATOM     11  C   UNL     1       0.316   2.788  -6.862  0.00  0.00    +0.020 A 
ATOM     12  C   UNL     1      -0.976   2.649  -6.381  0.00  0.00    +0.008 A 
ENDBRANCH   3   7
TORSDOF 1
ENDMDL
MODEL 8
REMARK VINA RESULT:    -3.329      1.463      2.392
REMARK INTER + INTRA:          -3.713
REMARK INTER:                  -3.500
REMARK INTRA:                  -0.213
REMARK UNBOUND:                -0.189
REMARK  Name = Nicotine.pdb
REMARK  2 active torsions:
REMARK  status: ('A' for Active; 'I' for Inactive)
REMARK    1  A    between atoms: C_3  and  C_6
REMARK    2  A    between atoms: N_4  and  C_12
REMARK                            x       y       z     vdW  Elec       q    Type
REMARK                         _______ _______ _______ _____ _____    ______ ____
ROOT
ATOM      1  C   UNL     1       0.685  -5.597   0.621  0.00  0.00    +0.017 C 
ATOM      2  C   UNL     1       0.461  -4.738   1.893  0.00  0.00    +0.025 C 
ATOM      3  C   UNL     1       1.386  -3.525   1.660  0.00  0.00    +0.088 C 
ATOM      4  N   UNL     1       2.420  -3.943   0.696  0.00  0.00    -0.298 NA
ATOM      5  C   UNL     1       2.190  -5.360   0.344  0.00  0.00    +0.085 C 
ATOM      6  C   UNL     1       2.399  -3.093  -0.501  0.00  0.00    +0.105 C 
ENDROOT
BRANCH   3   7
ATOM      7  C   UNL     1       2.031  -3.114   2.959  0.00  0.00    -0.012 A 
ATOM      8  C   UNL     1       1.252  -2.736   4.036  0.00  0.00    +0.115 A 
ATOM      9  N   UNL     1       1.808  -2.375   5.177  0.00  0.00    -0.263 NA
ATOM     10  C   UNL     1       3.117  -2.361   5.336  0.00  0.00    +0.111 A 
ATOM     11  C   UNL     1       3.959  -2.727   4.303  0.00  0.00    +0.020 A 
ATOM     12  C   UNL     1       3.411  -3.117   3.091  0.00  0.00    +0.008 A 
ENDBRANCH   3   7
TORSDOF 1
ENDMDL
MODEL 9
REMARK VINA RESULT:    -3.269      2.395      3.582
REMARK INTER + INTRA:          -3.649
REMARK INTER:                  -3.434
REMARK INTRA:                  -0.215
REMARK UNBOUND:                -0.189
REMARK  Name = Nicotine.pdb
REMARK  2 active torsions:
REMARK  status: ('A' for Active; 'I' for Inactive)
REMARK    1  A    between atoms: C_3  and  C_6
REMARK    2  A    between atoms: N_4  and  C_12
REMARK                            x       y       z     vdW  Elec       q    Type
REMARK                         _______ _______ _______ _____ _____    ______ ____
ROOT
ATOM      1  C   UNL     1       1.974  -4.381  -1.569  0.00  0.00    +0.017 C 
ATOM      2  C   UNL     1       3.000  -5.301  -0.857  0.00  0.00    +0.025 C 
ATOM      3  C   UNL     1       3.010  -4.757   0.588  0.00  0.00    +0.088 C 
ATOM      4  N   UNL     1       2.521  -3.368   0.535  0.00  0.00    -0.298 NA
ATOM      5  C   UNL     1       2.236  -3.022  -0.874  0.00  0.00    +0.085 C 
ATOM      6  C   UNL     1       1.327  -3.197   1.372  0.00  0.00    +0.105 C 
ENDROOT
BRANCH   3   7
ATOM      7  C   UNL     1       4.412  -4.789   1.138  0.00  0.00    -0.012 A 
ATOM      8  C   UNL     1       4.798  -3.895   2.119  0.00  0.00    +0.115 A 
ATOM      9  N   UNL     1       6.023  -3.916   2.607  0.00  0.00    -0.263 NA
ATOM     10  C   UNL     1       6.923  -4.781   2.183  0.00  0.00    +0.111 A 
ATOM     11  C   UNL     1       6.609  -5.706   1.204  0.00  0.00    +0.020 A 
ATOM     12  C   UNL     1       5.329  -5.718   0.672  0.00  0.00    +0.008 A 
ENDBRANCH   3   7
TORSDOF 1
ENDMDL
MODEL 10
REMARK VINA RESULT:    -3.191      3.271      5.749
REMARK INTER + INTRA:          -3.567
REMARK INTER:                  -3.348
REMARK INTRA:                  -0.218
REMARK UNBOUND:                -0.189
REMARK  Name = Nicotine.pdb
REMARK  2 active torsions:
REMARK  status: ('A' for Active; 'I' for Inactive)
REMARK    1  A    between atoms: C_3  and  C_6
REMARK    2  A    between atoms: N_4  and  C_12
REMARK                            x       y       z     vdW  Elec       q    Type
REMARK                         _______ _______ _______ _____ _____    ______ ____
ROOT
ATOM      1  C   UNL     1       6.553  -1.957   5.999  0.00  0.00    +0.017 C 
ATOM      2  C   UNL     1       5.136  -2.361   5.515  0.00  0.00    +0.025 C 
ATOM      3  C   UNL     1       5.418  -3.544   4.564  0.00  0.00    +0.088 C 
ATOM      4  N   UNL     1       6.817  -3.422   4.118  0.00  0.00    -0.298 NA
ATOM      5  C   UNL     1       7.402  -2.208   4.728  0.00  0.00    +0.085 C 
ATOM      6  C   UNL     1       7.591  -4.617   4.478  0.00  0.00    +0.105 C 
ENDROOT
BRANCH   3   7
ATOM      7  C   UNL     1       4.493  -3.479   3.377  0.00  0.00    -0.012 A 
ATOM      8  C   UNL     1       4.969  -3.735   2.105  0.00  0.00    +0.115 A 
ATOM      9  N   UNL     1       4.165  -3.681   1.060  0.00  0.00    -0.263 NA
ATOM     10  C   UNL     1       2.887  -3.383   1.184  0.00  0.00    +0.111 A 
ATOM     11  C   UNL     1       2.339  -3.116   2.425  0.00  0.00    +0.020 A 
ATOM     12  C   UNL     1       3.152  -3.168   3.547  0.00  0.00    +0.008 A 
ENDBRANCH   3   7
TORSDOF 1
ENDMDL
