MODEL 1
REMARK VINA RESULT:    -4.094      0.000      0.000
REMARK INTER + INTRA:          -4.571
REMARK INTER:                  -4.334
REMARK INTRA:                  -0.238
REMARK UNBOUND:                -0.238
REMARK  Name = Nicotine.pdb
REMARK  2 active torsions:
REMARK  status: ('A' for Active; 'I' for Inactive)
REMARK    1  A    between atoms: C_3  and  C_6
REMARK    2  A    between atoms: N_4  and  C_12
REMARK                            x       y       z     vdW  Elec       q    Type
REMARK                         _______ _______ _______ _____ _____    ______ ____
ROOT
ATOM      1  C   UNL     1      -2.522   1.658   4.740  0.00  0.00    +0.017 C 
ATOM      2  C   UNL     1      -3.027   3.057   4.299  0.00  0.00    +0.025 C 
ATOM      3  C   UNL     1      -3.783   2.755   2.988  0.00  0.00    +0.088 C 
ATOM      4  N   UNL     1      -3.259   1.481   2.464  0.00  0.00    -0.298 NA
ATOM      5  C   UNL     1      -2.201   0.997   3.376  0.00  0.00    +0.085 C 
ATOM      6  C   UNL     1      -4.331   0.487   2.327  0.00  0.00    +0.105 C 
ENDROOT
BRANCH   3   7
ATOM      7  C   UNL     1      -3.541   3.859   1.991  0.00  0.00    -0.012 A 
ATOM      8  C   UNL     1      -4.101   3.797   0.729  0.00  0.00    +0.115 A 
ATOM      9  N   UNL     1      -3.894   4.758  -0.149  0.00  0.00    -0.263 NA
ATOM     10  C   UNL     1      -3.151   5.809   0.136  0.00  0.00    +0.111 A 
ATOM     11  C   UNL     1      -2.558   5.941   1.378  0.00  0.00    +0.020 A 
ATOM     12  C   UNL     1      -2.758   4.952   2.329  0.00  0.00    +0.008 A 
ENDBRANCH   3   7
TORSDOF 1
ENDMDL
MODEL 2
REMARK VINA RESULT:    -3.833      1.462      4.533
REMARK INTER + INTRA:          -4.295
REMARK INTER:                  -4.095
REMARK INTRA:                  -0.200
REMARK UNBOUND:                -0.238
REMARK  Name = Nicotine.pdb
REMARK  2 active torsions:
REMARK  status: ('A' for Active; 'I' for Inactive)
REMARK    1  A    between atoms: C_3  and  C_6
REMARK    2  A    between atoms: N_4  and  C_12
REMARK                            x       y       z     vdW  Elec       q    Type
REMARK                         _______ _______ _______ _____ _____    ______ ____
ROOT
ATOM      1  C   UNL     1      -3.024   6.469  -0.068  0.00  0.00    +0.017 C 
ATOM      2  C   UNL     1      -3.632   5.042  -0.044  0.00  0.00    +0.025 C 
ATOM      3  C   UNL     1      -4.187   4.926   1.392  0.00  0.00    +0.088 C 
ATOM      4  N   UNL     1      -3.461   5.904   2.222  0.00  0.00    -0.298 NA
ATOM      5  C   UNL     1      -2.469   6.598   1.373  0.00  0.00    +0.085 C 
ATOM      6  C   UNL     1      -4.387   6.861   2.841  0.00  0.00    +0.105 C 
ENDROOT
BRANCH   3   7
ATOM      7  C   UNL     1      -3.957   3.533   1.919  0.00  0.00    -0.012 A 
ATOM      8  C   UNL     1      -4.825   2.509   1.590  0.00  0.00    +0.115 A 
ATOM      9  N   UNL     1      -4.631   1.287   2.047  0.00  0.00    -0.263 NA
ATOM     10  C   UNL     1      -3.611   0.994   2.829  0.00  0.00    +0.111 A 
ATOM     11  C   UNL     1      -2.701   1.966   3.200  0.00  0.00    +0.020 A 
ATOM     12  C   UNL     1      -2.870   3.261   2.735  0.00  0.00    +0.008 A 
ENDBRANCH   3   7
TORSDOF 1
ENDMDL
MODEL 3
REMARK VINA RESULT:    -3.532      1.698      4.581
REMARK INTER + INTRA:          -3.977
REMARK INTER:                  -3.763
REMARK INTRA:                  -0.214
REMARK UNBOUND:                -0.238
REMARK  Name = Nicotine.pdb
REMARK  2 active torsions:
REMARK  status: ('A' for Active; 'I' for Inactive)
REMARK    1  A    between atoms: C_3  and  C_6
REMARK    2  A    between atoms: N_4  and  C_12
REMARK                            x       y       z     vdW  Elec       q    Type
REMARK                         _______ _______ _______ _____ _____    ______ ____
ROOT
ATOM      1  C   UNL     1      -3.316   6.973   0.337  0.00  0.00    +0.017 C 
ATOM      2  C   UNL     1      -2.462   6.230   1.397  0.00  0.00    +0.025 C 
ATOM      3  C   UNL     1      -3.010   4.788   1.336  0.00  0.00    +0.088 C 
ATOM      4  N   UNL     1      -4.368   4.861   0.768  0.00  0.00    -0.298 NA
ATOM      5  C   UNL     1      -4.691   6.279   0.501  0.00  0.00    +0.085 C 
ATOM      6  C   UNL     1      -4.472   4.057  -0.456  0.00  0.00    +0.105 C 
ENDROOT
BRANCH   3   7
ATOM      7  C   UNL     1      -3.063   4.201   2.722  0.00  0.00    -0.012 A 
ATOM      8  C   UNL     1      -3.260   5.018   3.820  0.00  0.00    +0.115 A 
ATOM      9  N   UNL     1      -3.308   4.512   5.037  0.00  0.00    -0.263 NA
ATOM     10  C   UNL     1      -3.171   3.219   5.256  0.00  0.00    +0.111 A 
ATOM     11  C   UNL     1      -2.972   2.341   4.207  0.00  0.00    +0.020 A 
ATOM     12  C   UNL     1      -2.921   2.835   2.913  0.00  0.00    +0.008 A 
ENDBRANCH   3   7
TORSDOF 1
ENDMDL
MODEL 4
REMARK VINA RESULT:    -3.419      1.362      4.622
REMARK INTER + INTRA:          -3.857
REMARK INTER:                  -3.682
REMARK INTRA:                  -0.175
REMARK UNBOUND:                -0.238
REMARK  Name = Nicotine.pdb
REMARK  2 active torsions:
REMARK  status: ('A' for Active; 'I' for Inactive)
REMARK    1  A    between atoms: C_3  and  C_6
REMARK    2  A    between atoms: N_4  and  C_12
REMARK                            x       y       z     vdW  Elec       q    Type
REMARK                         _______ _______ _______ _____ _____    ______ ____
ROOT
ATOM      1  C   UNL     1      -3.258   5.861   0.202  0.00  0.00    +0.017 C 
ATOM      2  C   UNL     1      -3.868   4.437   0.289  0.00  0.00    +0.025 C 
ATOM      3  C   UNL     1      -4.184   4.287   1.793  0.00  0.00    +0.088 C 
ATOM      4  N   UNL     1      -3.323   5.239   2.518  0.00  0.00    -0.298 NA
ATOM      5  C   UNL     1      -2.476   5.949   1.536  0.00  0.00    +0.085 C 
ATOM      6  C   UNL     1      -4.127   6.185   3.302  0.00  0.00    +0.105 C 
ENDROOT
BRANCH   3   7
ATOM      7  C   UNL     1      -3.885   2.879   2.241  0.00  0.00    -0.012 A 
ATOM      8  C   UNL     1      -2.625   2.545   2.700  0.00  0.00    +0.115 A 
ATOM      9  N   UNL     1      -2.355   1.315   3.094  0.00  0.00    -0.263 NA
ATOM     10  C   UNL     1      -3.267   0.363   3.067  0.00  0.00    +0.111 A 
ATOM     11  C   UNL     1      -4.549   0.624   2.622  0.00  0.00    +0.020 A 
ATOM     12  C   UNL     1      -4.871   1.906   2.204  0.00  0.00    +0.008 A 
ENDBRANCH   3   7
TORSDOF 1
ENDMDL
MODEL 5
REMARK VINA RESULT:    -3.294      1.585      2.567
REMARK INTER + INTRA:          -3.724
REMARK INTER:                  -3.469
REMARK INTRA:                  -0.256
REMARK UNBOUND:                -0.238
REMARK  Name = Nicotine.pdb
REMARK  2 active torsions:
REMARK  status: ('A' for Active; 'I' for Inactive)
REMARK    1  A    between atoms: C_3  and  C_6
REMARK    2  A    between atoms: N_4  and  C_12
REMARK                            x       y       z     vdW  Elec       q    Type
REMARK                         _______ _______ _______ _____ _____    ______ ____
ROOT
ATOM      1  C   UNL     1      -3.914   1.619   4.043  0.00  0.00    +0.017 C 
ATOM      2  C   UNL     1      -3.096   2.195   2.857  0.00  0.00    +0.025 C 
ATOM      3  C   UNL     1      -2.920   3.678   3.246  0.00  0.00    +0.088 C 
ATOM      4  N   UNL     1      -3.993   4.011   4.199  0.00  0.00    -0.298 NA
ATOM      5  C   UNL     1      -4.836   2.812   4.397  0.00  0.00    +0.085 C 
ATOM      6  C   UNL     1      -3.437   4.480   5.475  0.00  0.00    +0.105 C 
ENDROOT
BRANCH   3   7
ATOM      7  C   UNL     1      -3.034   4.546   2.020  0.00  0.00    -0.012 A 
ATOM      8  C   UNL     1      -2.453   5.800   1.994  0.00  0.00    +0.115 A 
ATOM      9  N   UNL     1      -2.549   6.566   0.925  0.00  0.00    -0.263 NA
ATOM     10  C   UNL     1      -3.196   6.173  -0.154  0.00  0.00    +0.111 A 
ATOM     11  C   UNL     1      -3.801   4.931  -0.203  0.00  0.00    +0.020 A 
ATOM     12  C   UNL     1      -3.718   4.096   0.901  0.00  0.00    +0.008 A 
ENDBRANCH   3   7
TORSDOF 1
ENDMDL
MODEL 6
REMARK VINA RESULT:    -3.172      2.668      4.266
REMARK INTER + INTRA:          -3.595
REMARK INTER:                  -3.417
REMARK INTRA:                  -0.178
REMARK UNBOUND:                -0.238
REMARK  Name = Nicotine.pdb
REMARK  2 active torsions:
REMARK  status: ('A' for Active; 'I' for Inactive)
REMARK    1  A    between atoms: C_3  and  C_6
REMARK    2  A    between atoms: N_4  and  C_12
REMARK                            x       y       z     vdW  Elec       q    Type
REMARK                         _______ _______ _______ _____ _____    ______ ____
ROOT
ATOM      1  C   UNL     1      -0.716  -2.400   5.424  0.00  0.00    +0.017 C 
ATOM      2  C   UNL     1      -0.860  -0.861   5.556  0.00  0.00    +0.025 C 
ATOM      3  C   UNL     1      -2.377  -0.637   5.381  0.00  0.00    +0.088 C 
ATOM      4  N   UNL     1      -2.910  -1.806   4.657  0.00  0.00    -0.298 NA
ATOM      5  C   UNL     1      -1.791  -2.724   4.356  0.00  0.00    +0.085 C 
ATOM      6  C   UNL     1      -3.951  -2.482   5.442  0.00  0.00    +0.105 C 
ENDROOT
BRANCH   3   7
ATOM      7  C   UNL     1      -2.622   0.617   4.583  0.00  0.00    -0.012 A 
ATOM      8  C   UNL     1      -2.724   0.561   3.206  0.00  0.00    +0.115 A 
ATOM      9  N   UNL     1      -2.939   1.654   2.500  0.00  0.00    -0.263 NA
ATOM     10  C   UNL     1      -3.063   2.835   3.072  0.00  0.00    +0.111 A 
ATOM     11  C   UNL     1      -2.972   2.969   4.445  0.00  0.00    +0.020 A 
ATOM     12  C   UNL     1      -2.753   1.841   5.220  0.00  0.00    +0.008 A 
ENDBRANCH   3   7
TORSDOF 1
ENDMDL
MODEL 7
REMARK VINA RESULT:    -3.092      3.666      6.580
REMARK INTER + INTRA:          -3.511
REMARK INTER:                  -3.277
REMARK INTRA:                  -0.234
REMARK UNBOUND:                -0.238
REMARK  Name = Nicotine.pdb
REMARK  2 active torsions:
REMARK  status: ('A' for Active; 'I' for Inactive)
REMARK    1  A    between atoms: C_3  and  C_6
REMARK    2  A    between atoms: N_4  and  C_12
REMARK                            x       y       z     vdW  Elec       q    Type
REMARK                         _______ _______ _______ _____ _____    ______ ____
ROOT
ATOM      1  C   UNL     1      -3.569   1.289   3.401  0.00  0.00    +0.017 C 
ATOM      2  C   UNL     1      -4.329  -0.047   3.190  0.00  0.00    +0.025 C 
ATOM      3  C   UNL     1      -3.408  -1.081   3.871  0.00  0.00    +0.088 C 
ATOM      4  N   UNL     1      -2.055  -0.498   3.918  0.00  0.00    -0.298 NA
ATOM      5  C   UNL     1      -2.093   0.833   3.276  0.00  0.00    +0.085 C 
ATOM      6  C   UNL     1      -1.570  -0.403   5.301  0.00  0.00    +0.105 C 
ENDROOT
BRANCH   3   7
ATOM      7  C   UNL     1      -3.390  -2.358   3.071  0.00  0.00    -0.012 A 
ATOM      8  C   UNL     1      -2.560  -3.400   3.436  0.00  0.00    +0.115 A 
ATOM      9  N   UNL     1      -2.539  -4.521   2.741  0.00  0.00    -0.263 NA
ATOM     10  C   UNL     1      -3.300  -4.692   1.678  0.00  0.00    +0.111 A 
ATOM     11  C   UNL     1      -4.156  -3.694   1.253  0.00  0.00    +0.020 A 
ATOM     12  C   UNL     1      -4.210  -2.503   1.962  0.00  0.00    +0.008 A 
ENDBRANCH   3   7
TORSDOF 1
ENDMDL
MODEL 8
REMARK VINA RESULT:    -2.993      1.468      4.241
REMARK INTER + INTRA:          -3.406
REMARK INTER:                  -3.198
REMARK INTRA:                  -0.208
REMARK UNBOUND:                -0.238
REMARK  Name = Nicotine.pdb
REMARK  2 active torsions:
REMARK  status: ('A' for Active; 'I' for Inactive)
REMARK    1  A    between atoms: C_3  and  C_6
REMARK    2  A    between atoms: N_4  and  C_12
REMARK                            x       y       z     vdW  Elec       q    Type
REMARK                         _______ _______ _______ _____ _____    ______ ____
ROOT
ATOM      1  C   UNL     1      -4.047   5.843   3.961  0.00  0.00    +0.017 C 
ATOM      2  C   UNL     1      -3.323   4.499   4.238  0.00  0.00    +0.025 C 
ATOM      3  C   UNL     1      -3.119   3.916   2.823  0.00  0.00    +0.088 C 
ATOM      4  N   UNL     1      -4.116   4.550   1.942  0.00  0.00    -0.298 NA
ATOM      5  C   UNL     1      -4.940   5.474   2.750  0.00  0.00    +0.085 C 
ATOM      6  C   UNL     1      -3.464   5.258   0.833  0.00  0.00    +0.105 C 
ENDROOT
BRANCH   3   7
ATOM      7  C   UNL     1      -3.328   2.424   2.848  0.00  0.00    -0.012 A 
ATOM      8  C   UNL     1      -4.448   1.866   2.260  0.00  0.00    +0.115 A 
ATOM      9  N   UNL     1      -4.639   0.561   2.277  0.00  0.00    -0.263 NA
ATOM     10  C   UNL     1      -3.779  -0.258   2.849  0.00  0.00    +0.111 A 
ATOM     11  C   UNL     1      -2.636   0.228   3.456  0.00  0.00    +0.020 A 
ATOM     12  C   UNL     1      -2.398   1.594   3.454  0.00  0.00    +0.008 A 
ENDBRANCH   3   7
TORSDOF 1
ENDMDL
MODEL 9
REMARK VINA RESULT:    -2.993      3.086      6.124
REMARK INTER + INTRA:          -3.405
REMARK INTER:                  -3.150
REMARK INTRA:                  -0.255
REMARK UNBOUND:                -0.238
REMARK  Name = Nicotine.pdb
REMARK  2 active torsions:
REMARK  status: ('A' for Active; 'I' for Inactive)
REMARK    1  A    between atoms: C_3  and  C_6
REMARK    2  A    between atoms: N_4  and  C_12
REMARK                            x       y       z     vdW  Elec       q    Type
REMARK                         _______ _______ _______ _____ _____    ______ ____
ROOT
ATOM      1  C   UNL     1      -3.340   2.192   3.359  0.00  0.00    +0.017 C 
ATOM      2  C   UNL     1      -2.136   1.214   3.402  0.00  0.00    +0.025 C 
ATOM      3  C   UNL     1      -2.808  -0.169   3.263  0.00  0.00    +0.088 C 
ATOM      4  N   UNL     1      -4.211  -0.018   3.691  0.00  0.00    -0.298 NA
ATOM      5  C   UNL     1      -4.427   1.383   4.109  0.00  0.00    +0.085 C 
ATOM      6  C   UNL     1      -5.134  -0.395   2.612  0.00  0.00    +0.105 C 
ENDROOT
BRANCH   3   7
ATOM      7  C   UNL     1      -2.107  -1.170   4.145  0.00  0.00    -0.012 A 
ATOM      8  C   UNL     1      -2.309  -2.525   3.961  0.00  0.00    +0.115 A 
ATOM      9  N   UNL     1      -1.699  -3.408   4.728  0.00  0.00    -0.263 NA
ATOM     10  C   UNL     1      -0.880  -3.039   5.693  0.00  0.00    +0.111 A 
ATOM     11  C   UNL     1      -0.629  -1.702   5.935  0.00  0.00    +0.020 A 
ATOM     12  C   UNL     1      -1.248  -0.745   5.146  0.00  0.00    +0.008 A 
ENDBRANCH   3   7
TORSDOF 1
ENDMDL
MODEL 10
REMARK VINA RESULT:    -2.948      3.596      5.780
REMARK INTER + INTRA:          -3.358
REMARK INTER:                  -3.103
REMARK INTRA:                  -0.255
REMARK UNBOUND:                -0.238
REMARK  Name = Nicotine.pdb
REMARK  2 active torsions:
REMARK  status: ('A' for Active; 'I' for Inactive)
REMARK    1  A    between atoms: C_3  and  C_6
REMARK    2  A    between atoms: N_4  and  C_12
REMARK                            x       y       z     vdW  Elec       q    Type
REMARK                         _______ _______ _______ _____ _____    ______ ____
ROOT
ATOM      1  C   UNL     1      -3.886  -5.062   3.803  0.00  0.00    +0.017 C 
ATOM      2  C   UNL     1      -4.045  -3.626   4.368  0.00  0.00    +0.025 C 
ATOM      3  C   UNL     1      -4.294  -2.780   3.101  0.00  0.00    +0.088 C 
ATOM      4  N   UNL     1      -3.750  -3.535   1.958  0.00  0.00    -0.298 NA
ATOM      5  C   UNL     1      -3.157  -4.792   2.463  0.00  0.00    +0.085 C 
ATOM      6  C   UNL     1      -4.795  -3.807   0.962  0.00  0.00    +0.105 C 
ENDROOT
BRANCH   3   7
ATOM      7  C   UNL     1      -3.588  -1.454   3.223  0.00  0.00    -0.012 A 
ATOM      8  C   UNL     1      -4.062  -0.345   2.548  0.00  0.00    +0.115 A 
ATOM      9  N   UNL     1      -3.451   0.819   2.650  0.00  0.00    -0.263 NA
ATOM     10  C   UNL     1      -2.372   0.973   3.392  0.00  0.00    +0.111 A 
ATOM     11  C   UNL     1      -1.841  -0.091   4.097  0.00  0.00    +0.020 A 
ATOM     12  C   UNL     1      -2.459  -1.329   4.019  0.00  0.00    +0.008 A 
ENDBRANCH   3   7
TORSDOF 1
ENDMDL
