MODEL 1
REMARK VINA RESULT:    -2.857      0.000      0.000
REMARK INTER + INTRA:          -3.242
REMARK INTER:                  -3.024
REMARK INTRA:                  -0.219
REMARK UNBOUND:                -0.219
REMARK  Name = Nicotine.pdb
REMARK  2 active torsions:
REMARK  status: ('A' for Active; 'I' for Inactive)
REMARK    1  A    between atoms: C_3  and  C_6
REMARK    2  A    between atoms: N_4  and  C_12
REMARK                            x       y       z     vdW  Elec       q    Type
REMARK                         _______ _______ _______ _____ _____    ______ ____
ROOT
ATOM      1  C   UNL     1       7.089   6.011  -5.559  0.00  0.00    +0.017 C 
ATOM      2  C   UNL     1       7.417   4.808  -4.635  0.00  0.00    +0.025 C 
ATOM      3  C   UNL     1       8.825   4.385  -5.104  0.00  0.00    +0.088 C 
ATOM      4  N   UNL     1       8.997   4.887  -6.479  0.00  0.00    -0.298 NA
ATOM      5  C   UNL     1       7.755   5.576  -6.888  0.00  0.00    +0.085 C 
ATOM      6  C   UNL     1      10.154   5.787  -6.570  0.00  0.00    +0.105 C 
ENDROOT
BRANCH   3   7
ATOM      7  C   UNL     1       8.941   2.883  -5.087  0.00  0.00    -0.012 A 
ATOM      8  C   UNL     1       9.946   2.251  -5.796  0.00  0.00    +0.115 A 
ATOM      9  N   UNL     1      10.054   0.937  -5.786  0.00  0.00    -0.263 NA
ATOM     10  C   UNL     1       9.218   0.177  -5.107  0.00  0.00    +0.111 A 
ATOM     11  C   UNL     1       8.188   0.738  -4.374  0.00  0.00    +0.020 A 
ATOM     12  C   UNL     1       8.046   2.117  -4.356  0.00  0.00    +0.008 A 
ENDBRANCH   3   7
TORSDOF 1
ENDMDL
MODEL 2
REMARK VINA RESULT:    -2.765      2.860      4.597
REMARK INTER + INTRA:          -3.145
REMARK INTER:                  -2.948
REMARK INTRA:                  -0.197
REMARK UNBOUND:                -0.219
REMARK  Name = Nicotine.pdb
REMARK  2 active torsions:
REMARK  status: ('A' for Active; 'I' for Inactive)
REMARK    1  A    between atoms: C_3  and  C_6
REMARK    2  A    between atoms: N_4  and  C_12
REMARK                            x       y       z     vdW  Elec       q    Type
REMARK                         _______ _______ _______ _____ _____    ______ ____
ROOT
ATOM      1  C   UNL     1       7.097  -0.186  -2.596  0.00  0.00    +0.017 C 
ATOM      2  C   UNL     1       8.457  -0.786  -3.042  0.00  0.00    +0.025 C 
ATOM      3  C   UNL     1       9.013   0.289  -3.999  0.00  0.00    +0.088 C 
ATOM      4  N   UNL     1       7.867   1.080  -4.483  0.00  0.00    -0.298 NA
ATOM      5  C   UNL     1       6.630   0.527  -3.889  0.00  0.00    +0.085 C 
ATOM      6  C   UNL     1       8.025   2.500  -4.144  0.00  0.00    +0.105 C 
ENDROOT
BRANCH   3   7
ATOM      7  C   UNL     1       9.710  -0.370  -5.161  0.00  0.00    -0.012 A 
ATOM      8  C   UNL     1       9.855  -1.744  -5.201  0.00  0.00    +0.115 A 
ATOM      9  N   UNL     1      10.463  -2.329  -6.215  0.00  0.00    -0.263 NA
ATOM     10  C   UNL     1      10.954  -1.635  -7.223  0.00  0.00    +0.111 A 
ATOM     11  C   UNL     1      10.846  -0.257  -7.252  0.00  0.00    +0.020 A 
ATOM     12  C   UNL     1      10.208   0.393  -6.207  0.00  0.00    +0.008 A 
ENDBRANCH   3   7
TORSDOF 1
ENDMDL
MODEL 3
REMARK VINA RESULT:    -2.662      1.358      4.757
REMARK INTER + INTRA:          -3.036
REMARK INTER:                  -2.849
REMARK INTRA:                  -0.186
REMARK UNBOUND:                -0.219
REMARK  Name = Nicotine.pdb
REMARK  2 active torsions:
REMARK  status: ('A' for Active; 'I' for Inactive)
REMARK    1  A    between atoms: C_3  and  C_6
REMARK    2  A    between atoms: N_4  and  C_12
REMARK                            x       y       z     vdW  Elec       q    Type
REMARK                         _______ _______ _______ _____ _____    ______ ____
ROOT
ATOM      1  C   UNL     1       9.527  -1.200  -5.866  0.00  0.00    +0.017 C 
ATOM      2  C   UNL     1      10.243   0.169  -6.008  0.00  0.00    +0.025 C 
ATOM      3  C   UNL     1       9.651   0.993  -4.845  0.00  0.00    +0.088 C 
ATOM      4  N   UNL     1       8.360   0.378  -4.488  0.00  0.00    -0.298 NA
ATOM      5  C   UNL     1       8.118  -0.768  -5.390  0.00  0.00    +0.085 C 
ATOM      6  C   UNL     1       8.350  -0.046  -3.082  0.00  0.00    +0.105 C 
ENDROOT
BRANCH   3   7
ATOM      7  C   UNL     1       9.437   2.419  -5.284  0.00  0.00    -0.012 A 
ATOM      8  C   UNL     1      10.278   2.996  -6.217  0.00  0.00    +0.115 A 
ATOM      9  N   UNL     1      10.097   4.243  -6.607  0.00  0.00    -0.263 NA
ATOM     10  C   UNL     1       9.118   4.985  -6.127  0.00  0.00    +0.111 A 
ATOM     11  C   UNL     1       8.237   4.475  -5.192  0.00  0.00    +0.020 A 
ATOM     12  C   UNL     1       8.392   3.166  -4.762  0.00  0.00    +0.008 A 
ENDBRANCH   3   7
TORSDOF 1
ENDMDL
MODEL 4
REMARK VINA RESULT:    -2.056      1.136      2.188
REMARK INTER + INTRA:          -2.395
REMARK INTER:                  -2.211
REMARK INTRA:                  -0.184
REMARK UNBOUND:                -0.219
REMARK  Name = Nicotine.pdb
REMARK  2 active torsions:
REMARK  status: ('A' for Active; 'I' for Inactive)
REMARK    1  A    between atoms: C_3  and  C_6
REMARK    2  A    between atoms: N_4  and  C_12
REMARK                            x       y       z     vdW  Elec       q    Type
REMARK                         _______ _______ _______ _____ _____    ______ ____
ROOT
ATOM      1  C   UNL     1      10.623   6.954  -6.078  0.00  0.00    +0.017 C 
ATOM      2  C   UNL     1      10.532   5.490  -6.583  0.00  0.00    +0.025 C 
ATOM      3  C   UNL     1       9.124   5.053  -6.125  0.00  0.00    +0.088 C 
ATOM      4  N   UNL     1       8.734   5.933  -5.009  0.00  0.00    -0.298 NA
ATOM      5  C   UNL     1       9.843   6.874  -4.742  0.00  0.00    +0.085 C 
ATOM      6  C   UNL     1       7.493   6.655  -5.316  0.00  0.00    +0.105 C 
ENDROOT
BRANCH   3   7
ATOM      7  C   UNL     1       9.159   3.619  -5.662  0.00  0.00    -0.012 A 
ATOM      8  C   UNL     1      10.134   2.757  -6.128  0.00  0.00    +0.115 A 
ATOM      9  N   UNL     1      10.171   1.501  -5.727  0.00  0.00    -0.263 NA
ATOM     10  C   UNL     1       9.289   1.020  -4.874  0.00  0.00    +0.111 A 
ATOM     11  C   UNL     1       8.285   1.822  -4.365  0.00  0.00    +0.020 A 
ATOM     12  C   UNL     1       8.217   3.150  -4.759  0.00  0.00    +0.008 A 
ENDBRANCH   3   7
TORSDOF 1
ENDMDL
MODEL 5
REMARK VINA RESULT:    -1.828      1.409      4.545
REMARK INTER + INTRA:          -2.153
REMARK INTER:                  -1.931
REMARK INTRA:                  -0.222
REMARK UNBOUND:                -0.219
REMARK  Name = Nicotine.pdb
REMARK  2 active torsions:
REMARK  status: ('A' for Active; 'I' for Inactive)
REMARK    1  A    between atoms: C_3  and  C_6
REMARK    2  A    between atoms: N_4  and  C_12
REMARK                            x       y       z     vdW  Elec       q    Type
REMARK                         _______ _______ _______ _____ _____    ______ ____
ROOT
ATOM      1  C   UNL     1       7.923  -0.088  -2.941  0.00  0.00    +0.017 C 
ATOM      2  C   UNL     1       7.591   1.118  -3.859  0.00  0.00    +0.025 C 
ATOM      3  C   UNL     1       8.647   1.002  -4.979  0.00  0.00    +0.088 C 
ATOM      4  N   UNL     1       9.770   0.213  -4.441  0.00  0.00    -0.298 NA
ATOM      5  C   UNL     1       9.468  -0.140  -3.037  0.00  0.00    +0.085 C 
ATOM      6  C   UNL     1      10.003  -0.991  -5.248  0.00  0.00    +0.105 C 
ENDROOT
BRANCH   3   7
ATOM      7  C   UNL     1       9.127   2.374  -5.376  0.00  0.00    -0.012 A 
ATOM      8  C   UNL     1      10.269   2.521  -6.140  0.00  0.00    +0.115 A 
ATOM      9  N   UNL     1      10.695   3.719  -6.492  0.00  0.00    -0.263 NA
ATOM     10  C   UNL     1      10.057   4.815  -6.133  0.00  0.00    +0.111 A 
ATOM     11  C   UNL     1       8.907   4.746  -5.369  0.00  0.00    +0.020 A 
ATOM     12  C   UNL     1       8.425   3.504  -4.984  0.00  0.00    +0.008 A 
ENDBRANCH   3   7
TORSDOF 1
ENDMDL
MODEL 6
REMARK VINA RESULT:    -1.668      1.247      2.438
REMARK INTER + INTRA:          -1.984
REMARK INTER:                  -1.768
REMARK INTRA:                  -0.217
REMARK UNBOUND:                -0.219
REMARK  Name = Nicotine.pdb
REMARK  2 active torsions:
REMARK  status: ('A' for Active; 'I' for Inactive)
REMARK    1  A    between atoms: C_3  and  C_6
REMARK    2  A    between atoms: N_4  and  C_12
REMARK                            x       y       z     vdW  Elec       q    Type
REMARK                         _______ _______ _______ _____ _____    ______ ____
ROOT
ATOM      1  C   UNL     1      10.420   6.577  -6.086  0.00  0.00    +0.017 C 
ATOM      2  C   UNL     1      10.363   5.097  -6.550  0.00  0.00    +0.025 C 
ATOM      3  C   UNL     1       8.994   4.620  -6.018  0.00  0.00    +0.088 C 
ATOM      4  N   UNL     1       8.621   5.515  -4.908  0.00  0.00    -0.298 NA
ATOM      5  C   UNL     1       9.703   6.503  -4.715  0.00  0.00    +0.085 C 
ATOM      6  C   UNL     1       7.340   6.182  -5.177  0.00  0.00    +0.105 C 
ENDROOT
BRANCH   3   7
ATOM      7  C   UNL     1       9.104   3.202  -5.520  0.00  0.00    -0.012 A 
ATOM      8  C   UNL     1       8.176   2.701  -4.627  0.00  0.00    +0.115 A 
ATOM      9  N   UNL     1       8.265   1.461  -4.186  0.00  0.00    -0.263 NA
ATOM     10  C   UNL     1       9.233   0.655  -4.575  0.00  0.00    +0.111 A 
ATOM     11  C   UNL     1      10.197   1.086  -5.467  0.00  0.00    +0.020 A 
ATOM     12  C   UNL     1      10.133   2.382  -5.956  0.00  0.00    +0.008 A 
ENDBRANCH   3   7
TORSDOF 1
ENDMDL
MODEL 7
REMARK VINA RESULT:    -1.625      4.225      5.480
REMARK INTER + INTRA:          -1.938
REMARK INTER:                  -1.771
REMARK INTRA:                  -0.168
REMARK UNBOUND:                -0.219
REMARK  Name = Nicotine.pdb
REMARK  2 active torsions:
REMARK  status: ('A' for Active; 'I' for Inactive)
REMARK    1  A    between atoms: C_3  and  C_6
REMARK    2  A    between atoms: N_4  and  C_12
REMARK                            x       y       z     vdW  Elec       q    Type
REMARK                         _______ _______ _______ _____ _____    ______ ____
ROOT
ATOM      1  C   UNL     1      10.900  -0.167  -7.151  0.00  0.00    +0.017 C 
ATOM      2  C   UNL     1      10.195   0.529  -5.956  0.00  0.00    +0.025 C 
ATOM      3  C   UNL     1       9.926  -0.639  -4.984  0.00  0.00    +0.088 C 
ATOM      4  N   UNL     1       9.931  -1.880  -5.780  0.00  0.00    -0.298 NA
ATOM      5  C   UNL     1      10.165  -1.530  -7.197  0.00  0.00    +0.085 C 
ATOM      6  C   UNL     1      10.954  -2.814  -5.292  0.00  0.00    +0.105 C 
ENDROOT
BRANCH   3   7
ATOM      7  C   UNL     1       8.584  -0.457  -4.324  0.00  0.00    -0.012 A 
ATOM      8  C   UNL     1       7.420  -0.696  -5.030  0.00  0.00    +0.115 A 
ATOM      9  N   UNL     1       6.241  -0.539  -4.459  0.00  0.00    -0.263 NA
ATOM     10  C   UNL     1       6.124  -0.152  -3.204  0.00  0.00    +0.111 A 
ATOM     11  C   UNL     1       7.244   0.104  -2.436  0.00  0.00    +0.020 A 
ATOM     12  C   UNL     1       8.501  -0.055  -3.000  0.00  0.00    +0.008 A 
ENDBRANCH   3   7
TORSDOF 1
ENDMDL
MODEL 8
REMARK VINA RESULT:    -1.504      3.281      4.810
REMARK INTER + INTRA:          -1.810
REMARK INTER:                  -1.633
REMARK INTRA:                  -0.177
REMARK UNBOUND:                -0.219
REMARK  Name = Nicotine.pdb
REMARK  2 active torsions:
REMARK  status: ('A' for Active; 'I' for Inactive)
REMARK    1  A    between atoms: C_3  and  C_6
REMARK    2  A    between atoms: N_4  and  C_12
REMARK                            x       y       z     vdW  Elec       q    Type
REMARK                         _______ _______ _______ _____ _____    ______ ____
ROOT
ATOM      1  C   UNL     1       6.133   0.012  -3.407  0.00  0.00    +0.017 C 
ATOM      2  C   UNL     1       6.910  -0.515  -4.642  0.00  0.00    +0.025 C 
ATOM      3  C   UNL     1       8.372  -0.538  -4.147  0.00  0.00    +0.088 C 
ATOM      4  N   UNL     1       8.467   0.405  -3.019  0.00  0.00    -0.298 NA
ATOM      5  C   UNL     1       7.141   1.026  -2.812  0.00  0.00    +0.085 C 
ATOM      6  C   UNL     1       8.927  -0.274  -1.801  0.00  0.00    +0.105 C 
ENDROOT
BRANCH   3   7
ATOM      7  C   UNL     1       9.296  -0.107  -5.257  0.00  0.00    -0.012 A 
ATOM      8  C   UNL     1       9.616   1.227  -5.421  0.00  0.00    +0.115 A 
ATOM      9  N   UNL     1      10.423   1.613  -6.390  0.00  0.00    -0.263 NA
ATOM     10  C   UNL     1      10.954   0.751  -7.234  0.00  0.00    +0.111 A 
ATOM     11  C   UNL     1      10.680  -0.600  -7.132  0.00  0.00    +0.020 A 
ATOM     12  C   UNL     1       9.840  -1.044  -6.123  0.00  0.00    +0.008 A 
ENDBRANCH   3   7
TORSDOF 1
ENDMDL
MODEL 9
REMARK VINA RESULT:    -0.869      1.312      4.448
REMARK INTER + INTRA:          -1.139
REMARK INTER:                  -0.915
REMARK INTRA:                  -0.224
REMARK UNBOUND:                -0.219
REMARK  Name = Nicotine.pdb
REMARK  2 active torsions:
REMARK  status: ('A' for Active; 'I' for Inactive)
REMARK    1  A    between atoms: C_3  and  C_6
REMARK    2  A    between atoms: N_4  and  C_12
REMARK                            x       y       z     vdW  Elec       q    Type
REMARK                         _______ _______ _______ _____ _____    ______ ____
ROOT
ATOM      1  C   UNL     1       8.605   0.221  -3.560  0.00  0.00    +0.017 C 
ATOM      2  C   UNL     1       8.133   1.513  -4.279  0.00  0.00    +0.025 C 
ATOM      3  C   UNL     1       9.122   1.635  -5.458  0.00  0.00    +0.088 C 
ATOM      4  N   UNL     1      10.329   0.869  -5.097  0.00  0.00    -0.298 NA
ATOM      5  C   UNL     1      10.141   0.304  -3.744  0.00  0.00    +0.085 C 
ATOM      6  C   UNL     1      10.594  -0.190  -6.078  0.00  0.00    +0.105 C 
ENDROOT
BRANCH   3   7
ATOM      7  C   UNL     1       9.479   3.082  -5.680  0.00  0.00    -0.012 A 
ATOM      8  C   UNL     1      10.540   3.422  -6.498  0.00  0.00    +0.115 A 
ATOM      9  N   UNL     1      10.858   4.686  -6.698  0.00  0.00    -0.263 NA
ATOM     10  C   UNL     1      10.186   5.669  -6.132  0.00  0.00    +0.111 A 
ATOM     11  C   UNL     1       9.112   5.405  -5.302  0.00  0.00    +0.020 A 
ATOM     12  C   UNL     1       8.744   4.088  -5.072  0.00  0.00    +0.008 A 
ENDBRANCH   3   7
TORSDOF 1
ENDMDL
