MODEL 1
REMARK VINA RESULT:    -3.169      0.000      0.000
REMARK INTER + INTRA:          -3.608
REMARK INTER:                  -3.354
REMARK INTRA:                  -0.254
REMARK UNBOUND:                -0.254
REMARK  Name = Nicotine.pdb
REMARK  2 active torsions:
REMARK  status: ('A' for Active; 'I' for Inactive)
REMARK    1  A    between atoms: C_3  and  C_6
REMARK    2  A    between atoms: N_4  and  C_12
REMARK                            x       y       z     vdW  Elec       q    Type
REMARK                         _______ _______ _______ _____ _____    ______ ____
ROOT
ATOM      1  C   UNL     1      10.130   1.021  -1.909  0.00  0.00    +0.017 C 
ATOM      2  C   UNL     1      10.688   2.363  -1.368  0.00  0.00    +0.025 C 
ATOM      3  C   UNL     1      10.554   2.204   0.161  0.00  0.00    +0.088 C 
ATOM      4  N   UNL     1       9.520   1.182   0.405  0.00  0.00    -0.298 NA
ATOM      5  C   UNL     1       8.994   0.724  -0.899  0.00  0.00    +0.085 C 
ATOM      6  C   UNL     1      10.061   0.058   1.179  0.00  0.00    +0.105 C 
ENDROOT
BRANCH   3   7
ATOM      7  C   UNL     1      10.139   3.514   0.779  0.00  0.00    -0.012 A 
ATOM      8  C   UNL     1      10.545   3.843   2.058  0.00  0.00    +0.115 A 
ATOM      9  N   UNL     1      10.185   4.988   2.606  0.00  0.00    -0.263 NA
ATOM     10  C   UNL     1       9.431   5.857   1.963  0.00  0.00    +0.111 A 
ATOM     11  C   UNL     1       8.987   5.597   0.680  0.00  0.00    +0.020 A 
ATOM     12  C   UNL     1       9.349   4.406   0.070  0.00  0.00    +0.008 A 
ENDBRANCH   3   7
TORSDOF 1
ENDMDL
MODEL 2
REMARK VINA RESULT:    -3.116      2.132      3.068
REMARK INTER + INTRA:          -3.553
REMARK INTER:                  -3.329
REMARK INTRA:                  -0.224
REMARK UNBOUND:                -0.254
REMARK  Name = Nicotine.pdb
REMARK  2 active torsions:
REMARK  status: ('A' for Active; 'I' for Inactive)
REMARK    1  A    between atoms: C_3  and  C_6
REMARK    2  A    between atoms: N_4  and  C_12
REMARK                            x       y       z     vdW  Elec       q    Type
REMARK                         _______ _______ _______ _____ _____    ______ ____
ROOT
ATOM      1  C   UNL     1      10.742   0.603   1.441  0.00  0.00    +0.017 C 
ATOM      2  C   UNL     1      10.418   2.106   1.232  0.00  0.00    +0.025 C 
ATOM      3  C   UNL     1       9.571   2.102  -0.058  0.00  0.00    +0.088 C 
ATOM      4  N   UNL     1       9.890   0.861  -0.786  0.00  0.00    -0.298 NA
ATOM      5  C   UNL     1      10.910   0.114  -0.019  0.00  0.00    +0.085 C 
ATOM      6  C   UNL     1       8.685   0.047  -0.994  0.00  0.00    +0.105 C 
ENDROOT
BRANCH   3   7
ATOM      7  C   UNL     1       9.922   3.299  -0.904  0.00  0.00    -0.012 A 
ATOM      8  C   UNL     1      10.356   3.132  -2.206  0.00  0.00    +0.115 A 
ATOM      9  N   UNL     1      10.665   4.174  -2.953  0.00  0.00    -0.263 NA
ATOM     10  C   UNL     1      10.573   5.407  -2.495  0.00  0.00    +0.111 A 
ATOM     11  C   UNL     1      10.145   5.652  -1.203  0.00  0.00    +0.020 A 
ATOM     12  C   UNL     1       9.807   4.581  -0.390  0.00  0.00    +0.008 A 
ENDBRANCH   3   7
TORSDOF 1
ENDMDL
MODEL 3
REMARK VINA RESULT:    -3.032      1.501      4.114
REMARK INTER + INTRA:          -3.464
REMARK INTER:                  -3.240
REMARK INTRA:                  -0.224
REMARK UNBOUND:                -0.254
REMARK  Name = Nicotine.pdb
REMARK  2 active torsions:
REMARK  status: ('A' for Active; 'I' for Inactive)
REMARK    1  A    between atoms: C_3  and  C_6
REMARK    2  A    between atoms: N_4  and  C_12
REMARK                            x       y       z     vdW  Elec       q    Type
REMARK                         _______ _______ _______ _____ _____    ______ ____
ROOT
ATOM      1  C   UNL     1      10.671   5.331  -1.931  0.00  0.00    +0.017 C 
ATOM      2  C   UNL     1      10.229   3.846  -1.996  0.00  0.00    +0.025 C 
ATOM      3  C   UNL     1       9.453   3.656  -0.675  0.00  0.00    +0.088 C 
ATOM      4  N   UNL     1       9.915   4.701   0.257  0.00  0.00    -0.298 NA
ATOM      5  C   UNL     1      10.954   5.508  -0.418  0.00  0.00    +0.085 C 
ATOM      6  C   UNL     1       8.797   5.545   0.698  0.00  0.00    +0.105 C 
ENDROOT
BRANCH   3   7
ATOM      7  C   UNL     1       9.742   2.293  -0.102  0.00  0.00    -0.012 A 
ATOM      8  C   UNL     1      10.237   2.165   1.182  0.00  0.00    +0.115 A 
ATOM      9  N   UNL     1      10.492   0.975   1.691  0.00  0.00    -0.263 NA
ATOM     10  C   UNL     1      10.288  -0.131   1.004  0.00  0.00    +0.111 A 
ATOM     11  C   UNL     1       9.794  -0.082  -0.286  0.00  0.00    +0.020 A 
ATOM     12  C   UNL     1       9.509   1.151  -0.853  0.00  0.00    +0.008 A 
ENDBRANCH   3   7
TORSDOF 1
ENDMDL
MODEL 4
REMARK VINA RESULT:    -3.017      0.797      1.370
REMARK INTER + INTRA:          -3.447
REMARK INTER:                  -3.235
REMARK INTRA:                  -0.213
REMARK UNBOUND:                -0.254
REMARK  Name = Nicotine.pdb
REMARK  2 active torsions:
REMARK  status: ('A' for Active; 'I' for Inactive)
REMARK    1  A    between atoms: C_3  and  C_6
REMARK    2  A    between atoms: N_4  and  C_12
REMARK                            x       y       z     vdW  Elec       q    Type
REMARK                         _______ _______ _______ _____ _____    ______ ____
ROOT
ATOM      1  C   UNL     1      10.119   1.032  -1.874  0.00  0.00    +0.017 C 
ATOM      2  C   UNL     1      10.660   2.390  -1.354  0.00  0.00    +0.025 C 
ATOM      3  C   UNL     1      10.533   2.251   0.178  0.00  0.00    +0.088 C 
ATOM      4  N   UNL     1       9.515   1.218   0.440  0.00  0.00    -0.298 NA
ATOM      5  C   UNL     1       8.991   0.734  -0.855  0.00  0.00    +0.085 C 
ATOM      6  C   UNL     1      10.075   0.113   1.228  0.00  0.00    +0.105 C 
ENDROOT
BRANCH   3   7
ATOM      7  C   UNL     1      10.101   3.564   0.778  0.00  0.00    -0.012 A 
ATOM      8  C   UNL     1       9.249   4.403   0.085  0.00  0.00    +0.115 A 
ATOM      9  N   UNL     1       8.866   5.553   0.603  0.00  0.00    -0.263 NA
ATOM     10  C   UNL     1       9.274   5.948   1.792  0.00  0.00    +0.111 A 
ATOM     11  C   UNL     1      10.126   5.161   2.545  0.00  0.00    +0.020 A 
ATOM     12  C   UNL     1      10.547   3.943   2.035  0.00  0.00    +0.008 A 
ENDBRANCH   3   7
TORSDOF 1
ENDMDL
MODEL 5
REMARK VINA RESULT:    -2.986      1.240      4.482
REMARK INTER + INTRA:          -3.415
REMARK INTER:                  -3.217
REMARK INTRA:                  -0.198
REMARK UNBOUND:                -0.254
REMARK  Name = Nicotine.pdb
REMARK  2 active torsions:
REMARK  status: ('A' for Active; 'I' for Inactive)
REMARK    1  A    between atoms: C_3  and  C_6
REMARK    2  A    between atoms: N_4  and  C_12
REMARK                            x       y       z     vdW  Elec       q    Type
REMARK                         _______ _______ _______ _____ _____    ______ ____
ROOT
ATOM      1  C   UNL     1      10.035   5.625   2.092  0.00  0.00    +0.017 C 
ATOM      2  C   UNL     1      10.592   4.182   1.968  0.00  0.00    +0.025 C 
ATOM      3  C   UNL     1      10.570   3.932   0.445  0.00  0.00    +0.088 C 
ATOM      4  N   UNL     1       9.585   4.862  -0.136  0.00  0.00    -0.298 NA
ATOM      5  C   UNL     1       8.982   5.653   0.957  0.00  0.00    +0.085 C 
ATOM      6  C   UNL     1      10.212   5.736  -1.136  0.00  0.00    +0.105 C 
ENDROOT
BRANCH   3   7
ATOM      7  C   UNL     1      10.162   2.509   0.165  0.00  0.00    -0.012 A 
ATOM      8  C   UNL     1       9.944   1.626   1.206  0.00  0.00    +0.115 A 
ATOM      9  N   UNL     1       9.586   0.379   0.969  0.00  0.00    -0.263 NA
ATOM     10  C   UNL     1       9.423  -0.074  -0.258  0.00  0.00    +0.111 A 
ATOM     11  C   UNL     1       9.621   0.751  -1.349  0.00  0.00    +0.020 A 
ATOM     12  C   UNL     1       9.993   2.070  -1.139  0.00  0.00    +0.008 A 
ENDBRANCH   3   7
TORSDOF 1
ENDMDL
MODEL 6
REMARK VINA RESULT:    -2.543      1.619      4.778
REMARK INTER + INTRA:          -2.946
REMARK INTER:                  -2.722
REMARK INTRA:                  -0.224
REMARK UNBOUND:                -0.254
REMARK  Name = Nicotine.pdb
REMARK  2 active torsions:
REMARK  status: ('A' for Active; 'I' for Inactive)
REMARK    1  A    between atoms: C_3  and  C_6
REMARK    2  A    between atoms: N_4  and  C_12
REMARK                            x       y       z     vdW  Elec       q    Type
REMARK                         _______ _______ _______ _____ _____    ______ ____
ROOT
ATOM      1  C   UNL     1       8.975   6.869   1.546  0.00  0.00    +0.017 C 
ATOM      2  C   UNL     1       9.516   5.462   1.913  0.00  0.00    +0.025 C 
ATOM      3  C   UNL     1      10.260   5.031   0.631  0.00  0.00    +0.088 C 
ATOM      4  N   UNL     1       9.700   5.817  -0.484  0.00  0.00    -0.298 NA
ATOM      5  C   UNL     1       8.632   6.691   0.046  0.00  0.00    +0.085 C 
ATOM      6  C   UNL     1      10.745   6.606  -1.149  0.00  0.00    +0.105 C 
ENDROOT
BRANCH   3   7
ATOM      7  C   UNL     1      10.044   3.561   0.382  0.00  0.00    -0.012 A 
ATOM      8  C   UNL     1       9.514   3.125  -0.818  0.00  0.00    +0.115 A 
ATOM      9  N   UNL     1       9.323   1.840  -1.044  0.00  0.00    -0.263 NA
ATOM     10  C   UNL     1       9.624   0.926  -0.143  0.00  0.00    +0.111 A 
ATOM     11  C   UNL     1      10.158   1.286   1.080  0.00  0.00    +0.020 A 
ATOM     12  C   UNL     1      10.379   2.628   1.351  0.00  0.00    +0.008 A 
ENDBRANCH   3   7
TORSDOF 1
ENDMDL
MODEL 7
REMARK VINA RESULT:    -2.532      1.825      2.180
REMARK INTER + INTRA:          -2.935
REMARK INTER:                  -2.718
REMARK INTRA:                  -0.217
REMARK UNBOUND:                -0.254
REMARK  Name = Nicotine.pdb
REMARK  2 active torsions:
REMARK  status: ('A' for Active; 'I' for Inactive)
REMARK    1  A    between atoms: C_3  and  C_6
REMARK    2  A    between atoms: N_4  and  C_12
REMARK                            x       y       z     vdW  Elec       q    Type
REMARK                         _______ _______ _______ _____ _____    ______ ____
ROOT
ATOM      1  C   UNL     1      10.406   0.466  -1.393  0.00  0.00    +0.017 C 
ATOM      2  C   UNL     1      10.944   1.846  -1.854  0.00  0.00    +0.025 C 
ATOM      3  C   UNL     1      10.834   2.706  -0.577  0.00  0.00    +0.088 C 
ATOM      4  N   UNL     1       9.824   2.073   0.290  0.00  0.00    -0.298 NA
ATOM      5  C   UNL     1       9.290   0.880  -0.402  0.00  0.00    +0.085 C 
ATOM      6  C   UNL     1      10.399   1.713   1.593  0.00  0.00    +0.105 C 
ENDROOT
BRANCH   3   7
ATOM      7  C   UNL     1      10.400   4.103  -0.936  0.00  0.00    -0.012 A 
ATOM      8  C   UNL     1       9.808   4.916   0.012  0.00  0.00    +0.115 A 
ATOM      9  N   UNL     1       9.426   6.141  -0.294  0.00  0.00    -0.263 NA
ATOM     10  C   UNL     1       9.590   6.636  -1.505  0.00  0.00    +0.111 A 
ATOM     11  C   UNL     1      10.175   5.882  -2.505  0.00  0.00    +0.020 A 
ATOM     12  C   UNL     1      10.595   4.592  -2.219  0.00  0.00    +0.008 A 
ENDBRANCH   3   7
TORSDOF 1
ENDMDL
MODEL 8
REMARK VINA RESULT:    -2.340      1.315      4.506
REMARK INTER + INTRA:          -2.731
REMARK INTER:                  -2.476
REMARK INTRA:                  -0.255
REMARK UNBOUND:                -0.254
REMARK  Name = Nicotine.pdb
REMARK  2 active torsions:
REMARK  status: ('A' for Active; 'I' for Inactive)
REMARK    1  A    between atoms: C_3  and  C_6
REMARK    2  A    between atoms: N_4  and  C_12
REMARK                            x       y       z     vdW  Elec       q    Type
REMARK                         _______ _______ _______ _____ _____    ______ ____
ROOT
ATOM      1  C   UNL     1       9.542   7.009   1.396  0.00  0.00    +0.017 C 
ATOM      2  C   UNL     1       8.934   5.914   0.480  0.00  0.00    +0.025 C 
ATOM      3  C   UNL     1       9.526   4.611   1.056  0.00  0.00    +0.088 C 
ATOM      4  N   UNL     1      10.751   4.975   1.792  0.00  0.00    -0.298 NA
ATOM      5  C   UNL     1      10.954   6.434   1.675  0.00  0.00    +0.085 C 
ATOM      6  C   UNL     1      10.661   4.566   3.199  0.00  0.00    +0.105 C 
ENDROOT
BRANCH   3   7
ATOM      7  C   UNL     1       9.863   3.662  -0.065  0.00  0.00    -0.012 A 
ATOM      8  C   UNL     1       9.837   2.296   0.145  0.00  0.00    +0.115 A 
ATOM      9  N   UNL     1      10.130   1.458  -0.831  0.00  0.00    -0.263 NA
ATOM     10  C   UNL     1      10.457   1.884  -2.035  0.00  0.00    +0.111 A 
ATOM     11  C   UNL     1      10.504   3.236  -2.319  0.00  0.00    +0.020 A 
ATOM     12  C   UNL     1      10.197   4.146  -1.320  0.00  0.00    +0.008 A 
ENDBRANCH   3   7
TORSDOF 1
ENDMDL
MODEL 9
REMARK VINA RESULT:    -1.964      1.982      4.804
REMARK INTER + INTRA:          -2.333
REMARK INTER:                  -2.146
REMARK INTRA:                  -0.187
REMARK UNBOUND:                -0.254
REMARK  Name = Nicotine.pdb
REMARK  2 active torsions:
REMARK  status: ('A' for Active; 'I' for Inactive)
REMARK    1  A    between atoms: C_3  and  C_6
REMARK    2  A    between atoms: N_4  and  C_12
REMARK                            x       y       z     vdW  Elec       q    Type
REMARK                         _______ _______ _______ _____ _____    ______ ____
ROOT
ATOM      1  C   UNL     1      10.344   3.551   5.645  0.00  0.00    +0.017 C 
ATOM      2  C   UNL     1      10.796   2.855   4.335  0.00  0.00    +0.025 C 
ATOM      3  C   UNL     1      10.954   4.035   3.352  0.00  0.00    +0.088 C 
ATOM      4  N   UNL     1      10.130   5.144   3.865  0.00  0.00    -0.298 NA
ATOM      5  C   UNL     1       9.453   4.696   5.101  0.00  0.00    +0.085 C 
ATOM      6  C   UNL     1      10.949   6.337   4.116  0.00  0.00    +0.105 C 
ENDROOT
BRANCH   3   7
ATOM      7  C   UNL     1      10.475   3.630   1.983  0.00  0.00    -0.012 A 
ATOM      8  C   UNL     1      10.591   2.319   1.561  0.00  0.00    +0.115 A 
ATOM      9  N   UNL     1      10.174   1.955   0.364  0.00  0.00    -0.263 NA
ATOM     10  C   UNL     1       9.634   2.819  -0.473  0.00  0.00    +0.111 A 
ATOM     11  C   UNL     1       9.484   4.147  -0.121  0.00  0.00    +0.020 A 
ATOM     12  C   UNL     1       9.906   4.565   1.131  0.00  0.00    +0.008 A 
ENDBRANCH   3   7
TORSDOF 1
ENDMDL
MODEL 10
REMARK VINA RESULT:    -0.902      2.087      3.073
REMARK INTER + INTRA:          -1.209
REMARK INTER:                  -1.017
REMARK INTRA:                  -0.192
REMARK UNBOUND:                -0.254
REMARK  Name = Nicotine.pdb
REMARK  2 active torsions:
REMARK  status: ('A' for Active; 'I' for Inactive)
REMARK    1  A    between atoms: C_3  and  C_6
REMARK    2  A    between atoms: N_4  and  C_12
REMARK                            x       y       z     vdW  Elec       q    Type
REMARK                         _______ _______ _______ _____ _____    ______ ____
ROOT
ATOM      1  C   UNL     1      10.158   2.713  -0.797  0.00  0.00    +0.017 C 
ATOM      2  C   UNL     1      10.954   3.031   0.497  0.00  0.00    +0.025 C 
ATOM      3  C   UNL     1      10.851   1.716   1.299  0.00  0.00    +0.088 C 
ATOM      4  N   UNL     1       9.669   0.991   0.800  0.00  0.00    -0.298 NA
ATOM      5  C   UNL     1       9.026   1.806  -0.253  0.00  0.00    +0.085 C 
ATOM      6  C   UNL     1      10.042  -0.334   0.287  0.00  0.00    +0.105 C 
ENDROOT
BRANCH   3   7
ATOM      7  C   UNL     1      10.685   2.023   2.765  0.00  0.00    -0.012 A 
ATOM      8  C   UNL     1      10.835   3.315   3.231  0.00  0.00    +0.115 A 
ATOM      9  N   UNL     1      10.691   3.592   4.512  0.00  0.00    -0.263 NA
ATOM     10  C   UNL     1      10.401   2.656   5.395  0.00  0.00    +0.111 A 
ATOM     11  C   UNL     1      10.235   1.341   5.003  0.00  0.00    +0.020 A 
ATOM     12  C   UNL     1      10.373   1.013   3.663  0.00  0.00    +0.008 A 
ENDBRANCH   3   7
TORSDOF 1
ENDMDL
