MODEL 1
REMARK VINA RESULT:    -3.446      0.000      0.000
REMARK INTER + INTRA:          -3.852
REMARK INTER:                  -3.647
REMARK INTRA:                  -0.205
REMARK UNBOUND:                -0.205
REMARK  Name = Nicotine.pdb
REMARK  2 active torsions:
REMARK  status: ('A' for Active; 'I' for Inactive)
REMARK    1  A    between atoms: C_3  and  C_6
REMARK    2  A    between atoms: N_4  and  C_12
REMARK                            x       y       z     vdW  Elec       q    Type
REMARK                         _______ _______ _______ _____ _____    ______ ____
ROOT
ATOM      1  C   UNL     1      -5.171   3.953   0.605  0.00  0.00    +0.017 C 
ATOM      2  C   UNL     1      -4.965   3.735   2.127  0.00  0.00    +0.025 C 
ATOM      3  C   UNL     1      -4.284   5.045   2.577  0.00  0.00    +0.088 C 
ATOM      4  N   UNL     1      -3.658   5.644   1.384  0.00  0.00    -0.298 NA
ATOM      5  C   UNL     1      -3.899   4.753   0.229  0.00  0.00    +0.085 C 
ATOM      6  C   UNL     1      -4.187   6.990   1.132  0.00  0.00    +0.105 C 
ENDROOT
BRANCH   3   7
ATOM      7  C   UNL     1      -3.232   4.747   3.614  0.00  0.00    -0.012 A 
ATOM      8  C   UNL     1      -2.965   3.442   3.984  0.00  0.00    +0.115 A 
ATOM      9  N   UNL     1      -2.047   3.172   4.891  0.00  0.00    -0.263 NA
ATOM     10  C   UNL     1      -1.351   4.126   5.478  0.00  0.00    +0.111 A 
ATOM     11  C   UNL     1      -1.563   5.454   5.159  0.00  0.00    +0.020 A 
ATOM     12  C   UNL     1      -2.517   5.776   4.206  0.00  0.00    +0.008 A 
ENDBRANCH   3   7
TORSDOF 1
ENDMDL
MODEL 2
REMARK VINA RESULT:    -3.188      1.405      4.598
REMARK INTER + INTRA:          -3.579
REMARK INTER:                  -3.411
REMARK INTRA:                  -0.169
REMARK UNBOUND:                -0.205
REMARK  Name = Nicotine.pdb
REMARK  2 active torsions:
REMARK  status: ('A' for Active; 'I' for Inactive)
REMARK    1  A    between atoms: C_3  and  C_6
REMARK    2  A    between atoms: N_4  and  C_12
REMARK                            x       y       z     vdW  Elec       q    Type
REMARK                         _______ _______ _______ _____ _____    ______ ____
ROOT
ATOM      1  C   UNL     1      -3.680   6.281   5.932  0.00  0.00    +0.017 C 
ATOM      2  C   UNL     1      -4.480   5.604   4.788  0.00  0.00    +0.025 C 
ATOM      3  C   UNL     1      -3.373   4.982   3.911  0.00  0.00    +0.088 C 
ATOM      4  N   UNL     1      -2.127   5.717   4.193  0.00  0.00    -0.298 NA
ATOM      5  C   UNL     1      -2.420   6.778   5.181  0.00  0.00    +0.085 C 
ATOM      6  C   UNL     1      -1.081   4.813   4.686  0.00  0.00    +0.105 C 
ENDROOT
BRANCH   3   7
ATOM      7  C   UNL     1      -3.734   5.120   2.455  0.00  0.00    -0.012 A 
ATOM      8  C   UNL     1      -3.691   6.357   1.839  0.00  0.00    +0.115 A 
ATOM      9  N   UNL     1      -4.005   6.486   0.565  0.00  0.00    -0.263 NA
ATOM     10  C   UNL     1      -4.370   5.453  -0.168  0.00  0.00    +0.111 A 
ATOM     11  C   UNL     1      -4.435   4.185   0.379  0.00  0.00    +0.020 A 
ATOM     12  C   UNL     1      -4.107   4.009   1.715  0.00  0.00    +0.008 A 
ENDBRANCH   3   7
TORSDOF 1
ENDMDL
MODEL 3
REMARK VINA RESULT:    -3.188      1.588      2.312
REMARK INTER + INTRA:          -3.579
REMARK INTER:                  -3.361
REMARK INTRA:                  -0.218
REMARK UNBOUND:                -0.205
REMARK  Name = Nicotine.pdb
REMARK  2 active torsions:
REMARK  status: ('A' for Active; 'I' for Inactive)
REMARK    1  A    between atoms: C_3  and  C_6
REMARK    2  A    between atoms: N_4  and  C_12
REMARK                            x       y       z     vdW  Elec       q    Type
REMARK                         _______ _______ _______ _____ _____    ______ ____
ROOT
ATOM      1  C   UNL     1      -4.545   3.669   2.519  0.00  0.00    +0.017 C 
ATOM      2  C   UNL     1      -3.878   3.447   3.902  0.00  0.00    +0.025 C 
ATOM      3  C   UNL     1      -3.453   4.872   4.315  0.00  0.00    +0.088 C 
ATOM      4  N   UNL     1      -3.353   5.673   3.082  0.00  0.00    -0.298 NA
ATOM      5  C   UNL     1      -3.671   4.804   1.929  0.00  0.00    +0.085 C 
ATOM      6  C   UNL     1      -4.253   6.832   3.132  0.00  0.00    +0.105 C 
ENDROOT
BRANCH   3   7
ATOM      7  C   UNL     1      -2.116   4.827   5.008  0.00  0.00    -0.012 A 
ATOM      8  C   UNL     1      -1.341   5.967   5.107  0.00  0.00    +0.115 A 
ATOM      9  N   UNL     1      -0.170   5.937   5.713  0.00  0.00    -0.263 NA
ATOM     10  C   UNL     1       0.307   4.828   6.244  0.00  0.00    +0.111 A 
ATOM     11  C   UNL     1      -0.412   3.649   6.184  0.00  0.00    +0.020 A 
ATOM     12  C   UNL     1      -1.650   3.643   5.560  0.00  0.00    +0.008 A 
ENDBRANCH   3   7
TORSDOF 1
ENDMDL
MODEL 4
REMARK VINA RESULT:    -3.113      1.194      4.663
REMARK INTER + INTRA:          -3.499
REMARK INTER:                  -3.294
REMARK INTRA:                  -0.206
REMARK UNBOUND:                -0.205
REMARK  Name = Nicotine.pdb
REMARK  2 active torsions:
REMARK  status: ('A' for Active; 'I' for Inactive)
REMARK    1  A    between atoms: C_3  and  C_6
REMARK    2  A    between atoms: N_4  and  C_12
REMARK                            x       y       z     vdW  Elec       q    Type
REMARK                         _______ _______ _______ _____ _____    ______ ____
ROOT
ATOM      1  C   UNL     1      -2.121   4.719   5.299  0.00  0.00    +0.017 C 
ATOM      2  C   UNL     1      -2.577   5.653   4.147  0.00  0.00    +0.025 C 
ATOM      3  C   UNL     1      -3.895   5.003   3.674  0.00  0.00    +0.088 C 
ATOM      4  N   UNL     1      -3.859   3.590   4.092  0.00  0.00    -0.298 NA
ATOM      5  C   UNL     1      -2.574   3.333   4.776  0.00  0.00    +0.085 C 
ATOM      6  C   UNL     1      -4.995   3.270   4.966  0.00  0.00    +0.105 C 
ENDROOT
BRANCH   3   7
ATOM      7  C   UNL     1      -4.001   5.093   2.174  0.00  0.00    -0.012 A 
ATOM      8  C   UNL     1      -3.823   6.304   1.532  0.00  0.00    +0.115 A 
ATOM      9  N   UNL     1      -3.914   6.392   0.219  0.00  0.00    -0.263 NA
ATOM     10  C   UNL     1      -4.176   5.339  -0.529  0.00  0.00    +0.111 A 
ATOM     11  C   UNL     1      -4.366   4.094   0.042  0.00  0.00    +0.020 A 
ATOM     12  C   UNL     1      -4.273   3.962   1.419  0.00  0.00    +0.008 A 
ENDBRANCH   3   7
TORSDOF 1
ENDMDL
MODEL 5
REMARK VINA RESULT:    -2.817      2.427      3.703
REMARK INTER + INTRA:          -3.187
REMARK INTER:                  -2.945
REMARK INTRA:                  -0.241
REMARK UNBOUND:                -0.205
REMARK  Name = Nicotine.pdb
REMARK  2 active torsions:
REMARK  status: ('A' for Active; 'I' for Inactive)
REMARK    1  A    between atoms: C_3  and  C_6
REMARK    2  A    between atoms: N_4  and  C_12
REMARK                            x       y       z     vdW  Elec       q    Type
REMARK                         _______ _______ _______ _____ _____    ______ ____
ROOT
ATOM      1  C   UNL     1      -3.809   4.049   3.770  0.00  0.00    +0.017 C 
ATOM      2  C   UNL     1      -2.486   3.819   4.547  0.00  0.00    +0.025 C 
ATOM      3  C   UNL     1      -2.347   5.108   5.385  0.00  0.00    +0.088 C 
ATOM      4  N   UNL     1      -3.148   6.151   4.718  0.00  0.00    -0.298 NA
ATOM      5  C   UNL     1      -3.751   5.573   3.499  0.00  0.00    +0.085 C 
ATOM      6  C   UNL     1      -4.181   6.678   5.619  0.00  0.00    +0.105 C 
ENDROOT
BRANCH   3   7
ATOM      7  C   UNL     1      -0.901   5.529   5.442  0.00  0.00    -0.012 A 
ATOM      8  C   UNL     1      -0.528   6.652   6.155  0.00  0.00    +0.115 A 
ATOM      9  N   UNL     1       0.735   7.028   6.211  0.00  0.00    -0.263 NA
ATOM     10  C   UNL     1       1.686   6.354   5.595  0.00  0.00    +0.111 A 
ATOM     11  C   UNL     1       1.389   5.219   4.863  0.00  0.00    +0.020 A 
ATOM     12  C   UNL     1       0.072   4.791   4.786  0.00  0.00    +0.008 A 
ENDBRANCH   3   7
TORSDOF 1
ENDMDL
MODEL 6
REMARK VINA RESULT:    -2.335      1.985      2.614
REMARK INTER + INTRA:          -2.676
REMARK INTER:                  -2.421
REMARK INTRA:                  -0.256
REMARK UNBOUND:                -0.205
REMARK  Name = Nicotine.pdb
REMARK  2 active torsions:
REMARK  status: ('A' for Active; 'I' for Inactive)
REMARK    1  A    between atoms: C_3  and  C_6
REMARK    2  A    between atoms: N_4  and  C_12
REMARK                            x       y       z     vdW  Elec       q    Type
REMARK                         _______ _______ _______ _____ _____    ______ ____
ROOT
ATOM      1  C   UNL     1      -3.827   6.962   0.533  0.00  0.00    +0.017 C 
ATOM      2  C   UNL     1      -3.337   6.427   1.905  0.00  0.00    +0.025 C 
ATOM      3  C   UNL     1      -3.812   4.958   1.895  0.00  0.00    +0.088 C 
ATOM      4  N   UNL     1      -4.923   4.866   0.931  0.00  0.00    -0.298 NA
ATOM      5  C   UNL     1      -5.171   6.210   0.366  0.00  0.00    +0.085 C 
ATOM      6  C   UNL     1      -4.621   3.896  -0.130  0.00  0.00    +0.105 C 
ENDROOT
BRANCH   3   7
ATOM      7  C   UNL     1      -4.289   4.565   3.269  0.00  0.00    -0.012 A 
ATOM      8  C   UNL     1      -4.282   3.239   3.658  0.00  0.00    +0.115 A 
ATOM      9  N   UNL     1      -4.697   2.885   4.859  0.00  0.00    -0.263 NA
ATOM     10  C   UNL     1      -5.134   3.773   5.730  0.00  0.00    +0.111 A 
ATOM     11  C   UNL     1      -5.171   5.118   5.411  0.00  0.00    +0.020 A 
ATOM     12  C   UNL     1      -4.737   5.528   4.160  0.00  0.00    +0.008 A 
ENDBRANCH   3   7
TORSDOF 1
ENDMDL
MODEL 7
REMARK VINA RESULT:    -1.574      2.127      4.471
REMARK INTER + INTRA:          -1.871
REMARK INTER:                  -1.691
REMARK INTRA:                  -0.180
REMARK UNBOUND:                -0.205
REMARK  Name = Nicotine.pdb
REMARK  2 active torsions:
REMARK  status: ('A' for Active; 'I' for Inactive)
REMARK    1  A    between atoms: C_3  and  C_6
REMARK    2  A    between atoms: N_4  and  C_12
REMARK                            x       y       z     vdW  Elec       q    Type
REMARK                         _______ _______ _______ _____ _____    ______ ____
ROOT
ATOM      1  C   UNL     1       0.534   5.100   4.967  0.00  0.00    +0.017 C 
ATOM      2  C   UNL     1      -0.492   4.696   3.876  0.00  0.00    +0.025 C 
ATOM      3  C   UNL     1      -1.794   5.369   4.358  0.00  0.00    +0.088 C 
ATOM      4  N   UNL     1      -1.656   5.601   5.807  0.00  0.00    -0.298 NA
ATOM      5  C   UNL     1      -0.343   5.081   6.244  0.00  0.00    +0.085 C 
ATOM      6  C   UNL     1      -1.791   7.028   6.128  0.00  0.00    +0.105 C 
ENDROOT
BRANCH   3   7
ATOM      7  C   UNL     1      -2.968   4.463   4.092  0.00  0.00    -0.012 A 
ATOM      8  C   UNL     1      -3.405   3.582   5.063  0.00  0.00    +0.115 A 
ATOM      9  N   UNL     1      -4.432   2.785   4.838  0.00  0.00    -0.263 NA
ATOM     10  C   UNL     1      -5.079   2.796   3.690  0.00  0.00    +0.111 A 
ATOM     11  C   UNL     1      -4.700   3.651   2.672  0.00  0.00    +0.020 A 
ATOM     12  C   UNL     1      -3.628   4.507   2.873  0.00  0.00    +0.008 A 
ENDBRANCH   3   7
TORSDOF 1
ENDMDL
