MODEL 1
REMARK VINA RESULT:    -3.842      0.000      0.000
REMARK INTER + INTRA:          -4.258
REMARK INTER:                  -4.066
REMARK INTRA:                  -0.191
REMARK UNBOUND:                -0.191
REMARK  Name = Nicotine.pdb
REMARK  2 active torsions:
REMARK  status: ('A' for Active; 'I' for Inactive)
REMARK    1  A    between atoms: C_3  and  C_6
REMARK    2  A    between atoms: N_4  and  C_12
REMARK                            x       y       z     vdW  Elec       q    Type
REMARK                         _______ _______ _______ _____ _____    ______ ____
ROOT
ATOM      1  C   UNL     1      -5.091   1.463  -1.614  0.00  0.00    +0.017 C 
ATOM      2  C   UNL     1      -5.122   1.004  -0.133  0.00  0.00    +0.025 C 
ATOM      3  C   UNL     1      -4.310   2.100   0.588  0.00  0.00    +0.088 C 
ATOM      4  N   UNL     1      -3.447   2.740  -0.421  0.00  0.00    -0.298 NA
ATOM      5  C   UNL     1      -3.671   2.074  -1.722  0.00  0.00    +0.085 C 
ATOM      6  C   UNL     1      -3.722   4.180  -0.512  0.00  0.00    +0.105 C 
ENDROOT
BRANCH   3   7
ATOM      7  C   UNL     1      -3.462   1.482   1.670  0.00  0.00    -0.012 A 
ATOM      8  C   UNL     1      -3.649   0.163   2.037  0.00  0.00    +0.115 A 
ATOM      9  N   UNL     1      -2.912  -0.385   2.983  0.00  0.00    -0.263 NA
ATOM     10  C   UNL     1      -1.975   0.295   3.613  0.00  0.00    +0.111 A 
ATOM     11  C   UNL     1      -1.730   1.619   3.300  0.00  0.00    +0.020 A 
ATOM     12  C   UNL     1      -2.482   2.228   2.307  0.00  0.00    +0.008 A 
ENDBRANCH   3   7
TORSDOF 1
ENDMDL
MODEL 2
REMARK VINA RESULT:    -3.766     10.191     11.669
REMARK INTER + INTRA:          -4.177
REMARK INTER:                  -3.962
REMARK INTRA:                  -0.215
REMARK UNBOUND:                -0.191
REMARK  Name = Nicotine.pdb
REMARK  2 active torsions:
REMARK  status: ('A' for Active; 'I' for Inactive)
REMARK    1  A    between atoms: C_3  and  C_6
REMARK    2  A    between atoms: N_4  and  C_12
REMARK                            x       y       z     vdW  Elec       q    Type
REMARK                         _______ _______ _______ _____ _____    ______ ____
ROOT
ATOM      1  C   UNL     1       4.859   3.907   2.533  0.00  0.00    +0.017 C 
ATOM      2  C   UNL     1       5.797   2.889   3.234  0.00  0.00    +0.025 C 
ATOM      3  C   UNL     1       7.185   3.551   3.104  0.00  0.00    +0.088 C 
ATOM      4  N   UNL     1       7.116   4.493   1.973  0.00  0.00    -0.298 NA
ATOM      5  C   UNL     1       5.761   4.425   1.386  0.00  0.00    +0.085 C 
ATOM      6  C   UNL     1       7.435   5.860   2.406  0.00  0.00    +0.105 C 
ENDROOT
BRANCH   3   7
ATOM      7  C   UNL     1       8.231   2.500   2.834  0.00  0.00    -0.012 A 
ATOM      8  C   UNL     1       9.363   2.811   2.106  0.00  0.00    +0.115 A 
ATOM      9  N   UNL     1      10.283   1.897   1.865  0.00  0.00    -0.263 NA
ATOM     10  C   UNL     1      10.162   0.660   2.304  0.00  0.00    +0.111 A 
ATOM     11  C   UNL     1       9.057   0.275   3.039  0.00  0.00    +0.020 A 
ATOM     12  C   UNL     1       8.072   1.210   3.317  0.00  0.00    +0.008 A 
ENDBRANCH   3   7
TORSDOF 1
ENDMDL
MODEL 3
REMARK VINA RESULT:    -3.730      9.978     12.104
REMARK INTER + INTRA:          -4.140
REMARK INTER:                  -3.935
REMARK INTRA:                  -0.205
REMARK UNBOUND:                -0.191
REMARK  Name = Nicotine.pdb
REMARK  2 active torsions:
REMARK  status: ('A' for Active; 'I' for Inactive)
REMARK    1  A    between atoms: C_3  and  C_6
REMARK    2  A    between atoms: N_4  and  C_12
REMARK                            x       y       z     vdW  Elec       q    Type
REMARK                         _______ _______ _______ _____ _____    ______ ____
ROOT
ATOM      1  C   UNL     1      10.207   1.086   2.177  0.00  0.00    +0.017 C 
ATOM      2  C   UNL     1       9.530   2.466   1.965  0.00  0.00    +0.025 C 
ATOM      3  C   UNL     1       8.653   2.620   3.226  0.00  0.00    +0.088 C 
ATOM      4  N   UNL     1       8.412   1.267   3.759  0.00  0.00    -0.298 NA
ATOM      5  C   UNL     1       9.077   0.287   2.873  0.00  0.00    +0.085 C 
ATOM      6  C   UNL     1       8.903   1.148   5.138  0.00  0.00    +0.105 C 
ENDROOT
BRANCH   3   7
ATOM      7  C   UNL     1       7.343   3.270   2.863  0.00  0.00    -0.012 A 
ATOM      8  C   UNL     1       7.323   4.437   2.124  0.00  0.00    +0.115 A 
ATOM      9  N   UNL     1       6.181   5.013   1.802  0.00  0.00    -0.263 NA
ATOM     10  C   UNL     1       5.021   4.505   2.169  0.00  0.00    +0.111 A 
ATOM     11  C   UNL     1       4.962   3.339   2.910  0.00  0.00    +0.020 A 
ATOM     12  C   UNL     1       6.143   2.703   3.263  0.00  0.00    +0.008 A 
ENDBRANCH   3   7
TORSDOF 1
ENDMDL
MODEL 4
REMARK VINA RESULT:    -3.591      9.180     10.449
REMARK INTER + INTRA:          -3.992
REMARK INTER:                  -3.805
REMARK INTRA:                  -0.187
REMARK UNBOUND:                -0.191
REMARK  Name = Nicotine.pdb
REMARK  2 active torsions:
REMARK  status: ('A' for Active; 'I' for Inactive)
REMARK    1  A    between atoms: C_3  and  C_6
REMARK    2  A    between atoms: N_4  and  C_12
REMARK                            x       y       z     vdW  Elec       q    Type
REMARK                         _______ _______ _______ _____ _____    ______ ____
ROOT
ATOM      1  C   UNL     1       3.769   3.919   1.269  0.00  0.00    +0.017 C 
ATOM      2  C   UNL     1       4.561   3.262   2.430  0.00  0.00    +0.025 C 
ATOM      3  C   UNL     1       5.846   4.114   2.500  0.00  0.00    +0.088 C 
ATOM      4  N   UNL     1       6.014   4.760   1.186  0.00  0.00    -0.298 NA
ATOM      5  C   UNL     1       4.910   4.326   0.303  0.00  0.00    +0.085 C 
ATOM      6  C   UNL     1       6.041   6.222   1.316  0.00  0.00    +0.105 C 
ENDROOT
BRANCH   3   7
ATOM      7  C   UNL     1       7.031   3.232   2.794  0.00  0.00    -0.012 A 
ATOM      8  C   UNL     1       6.886   2.107   3.584  0.00  0.00    +0.115 A 
ATOM      9  N   UNL     1       7.918   1.329   3.847  0.00  0.00    -0.263 NA
ATOM     10  C   UNL     1       9.120   1.589   3.372  0.00  0.00    +0.111 A 
ATOM     11  C   UNL     1       9.342   2.696   2.575  0.00  0.00    +0.020 A 
ATOM     12  C   UNL     1       8.279   3.534   2.273  0.00  0.00    +0.008 A 
ENDBRANCH   3   7
TORSDOF 1
ENDMDL
MODEL 5
REMARK VINA RESULT:    -3.451      9.497     11.417
REMARK INTER + INTRA:          -3.844
REMARK INTER:                  -3.588
REMARK INTRA:                  -0.256
REMARK UNBOUND:                -0.191
REMARK  Name = Nicotine.pdb
REMARK  2 active torsions:
REMARK  status: ('A' for Active; 'I' for Inactive)
REMARK    1  A    between atoms: C_3  and  C_6
REMARK    2  A    between atoms: N_4  and  C_12
REMARK                            x       y       z     vdW  Elec       q    Type
REMARK                         _______ _______ _______ _____ _____    ______ ____
ROOT
ATOM      1  C   UNL     1       9.776   4.782   2.527  0.00  0.00    +0.017 C 
ATOM      2  C   UNL     1       8.302   5.267   2.527  0.00  0.00    +0.025 C 
ATOM      3  C   UNL     1       7.531   4.033   3.044  0.00  0.00    +0.088 C 
ATOM      4  N   UNL     1       8.376   2.852   2.790  0.00  0.00    -0.298 NA
ATOM      5  C   UNL     1       9.617   3.296   2.120  0.00  0.00    +0.085 C 
ATOM      6  C   UNL     1       8.678   2.142   4.040  0.00  0.00    +0.105 C 
ENDROOT
BRANCH   3   7
ATOM      7  C   UNL     1       6.225   3.898   2.306  0.00  0.00    -0.012 A 
ATOM      8  C   UNL     1       5.195   3.147   2.840  0.00  0.00    +0.115 A 
ATOM      9  N   UNL     1       4.048   3.024   2.200  0.00  0.00    -0.263 NA
ATOM     10  C   UNL     1       3.837   3.607   1.037  0.00  0.00    +0.111 A 
ATOM     11  C   UNL     1       4.821   4.375   0.442  0.00  0.00    +0.020 A 
ATOM     12  C   UNL     1       6.038   4.531   1.087  0.00  0.00    +0.008 A 
ENDBRANCH   3   7
TORSDOF 1
ENDMDL
MODEL 6
REMARK VINA RESULT:    -3.449      2.170      3.438
REMARK INTER + INTRA:          -3.842
REMARK INTER:                  -3.647
REMARK INTRA:                  -0.195
REMARK UNBOUND:                -0.191
REMARK  Name = Nicotine.pdb
REMARK  2 active torsions:
REMARK  status: ('A' for Active; 'I' for Inactive)
REMARK    1  A    between atoms: C_3  and  C_6
REMARK    2  A    between atoms: N_4  and  C_12
REMARK                            x       y       z     vdW  Elec       q    Type
REMARK                         _______ _______ _______ _____ _____    ______ ____
ROOT
ATOM      1  C   UNL     1      -2.056   2.731  -4.507  0.00  0.00    +0.017 C 
ATOM      2  C   UNL     1      -2.493   1.762  -3.377  0.00  0.00    +0.025 C 
ATOM      3  C   UNL     1      -3.759   2.438  -2.810  0.00  0.00    +0.088 C 
ATOM      4  N   UNL     1      -3.687   3.867  -3.165  0.00  0.00    -0.298 NA
ATOM      5  C   UNL     1      -2.427   4.107  -3.900  0.00  0.00    +0.085 C 
ATOM      6  C   UNL     1      -4.849   4.271  -3.966  0.00  0.00    +0.105 C 
ENDROOT
BRANCH   3   7
ATOM      7  C   UNL     1      -3.797   2.282  -1.312  0.00  0.00    -0.012 A 
ATOM      8  C   UNL     1      -4.385   1.169  -0.740  0.00  0.00    +0.115 A 
ATOM      9  N   UNL     1      -4.423   1.025   0.570  0.00  0.00    -0.263 NA
ATOM     10  C   UNL     1      -3.906   1.926   1.382  0.00  0.00    +0.111 A 
ATOM     11  C   UNL     1      -3.301   3.064   0.883  0.00  0.00    +0.020 A 
ATOM     12  C   UNL     1      -3.238   3.248  -0.490  0.00  0.00    +0.008 A 
ENDBRANCH   3   7
TORSDOF 1
ENDMDL
MODEL 7
REMARK VINA RESULT:    -3.438     11.244     12.493
REMARK INTER + INTRA:          -3.830
REMARK INTER:                  -3.621
REMARK INTRA:                  -0.209
REMARK UNBOUND:                -0.191
REMARK  Name = Nicotine.pdb
REMARK  2 active torsions:
REMARK  status: ('A' for Active; 'I' for Inactive)
REMARK    1  A    between atoms: C_3  and  C_6
REMARK    2  A    between atoms: N_4  and  C_12
REMARK                            x       y       z     vdW  Elec       q    Type
REMARK                         _______ _______ _______ _____ _____    ______ ____
ROOT
ATOM      1  C   UNL     1       6.832   5.952   1.851  0.00  0.00    +0.017 C 
ATOM      2  C   UNL     1       6.825   4.403   1.768  0.00  0.00    +0.025 C 
ATOM      3  C   UNL     1       7.651   3.986   3.004  0.00  0.00    +0.088 C 
ATOM      4  N   UNL     1       8.497   5.135   3.372  0.00  0.00    -0.298 NA
ATOM      5  C   UNL     1       8.250   6.229   2.409  0.00  0.00    +0.085 C 
ATOM      6  C   UNL     1       8.223   5.572   4.747  0.00  0.00    +0.105 C 
ENDROOT
BRANCH   3   7
ATOM      7  C   UNL     1       8.516   2.799   2.666  0.00  0.00    -0.012 A 
ATOM      8  C   UNL     1       8.325   1.590   3.308  0.00  0.00    +0.115 A 
ATOM      9  N   UNL     1       9.077   0.546   3.018  0.00  0.00    -0.263 NA
ATOM     10  C   UNL     1      10.033   0.611   2.113  0.00  0.00    +0.111 A 
ATOM     11  C   UNL     1      10.282   1.786   1.430  0.00  0.00    +0.020 A 
ATOM     12  C   UNL     1       9.508   2.903   1.704  0.00  0.00    +0.008 A 
ENDBRANCH   3   7
TORSDOF 1
ENDMDL
MODEL 8
REMARK VINA RESULT:    -3.355      8.541     10.678
REMARK INTER + INTRA:          -3.742
REMARK INTER:                  -3.530
REMARK INTRA:                  -0.212
REMARK UNBOUND:                -0.191
REMARK  Name = Nicotine.pdb
REMARK  2 active torsions:
REMARK  status: ('A' for Active; 'I' for Inactive)
REMARK    1  A    between atoms: C_3  and  C_6
REMARK    2  A    between atoms: N_4  and  C_12
REMARK                            x       y       z     vdW  Elec       q    Type
REMARK                         _______ _______ _______ _____ _____    ______ ____
ROOT
ATOM      1  C   UNL     1       7.720   4.647   4.832  0.00  0.00    +0.017 C 
ATOM      2  C   UNL     1       6.276   4.772   4.278  0.00  0.00    +0.025 C 
ATOM      3  C   UNL     1       6.073   3.435   3.534  0.00  0.00    +0.088 C 
ATOM      4  N   UNL     1       7.411   2.908   3.209  0.00  0.00    -0.298 NA
ATOM      5  C   UNL     1       8.425   3.868   3.694  0.00  0.00    +0.085 C 
ATOM      6  C   UNL     1       7.614   1.581   3.804  0.00  0.00    +0.105 C 
ENDROOT
BRANCH   3   7
ATOM      7  C   UNL     1       5.290   3.666   2.268  0.00  0.00    -0.012 A 
ATOM      8  C   UNL     1       4.051   3.079   2.095  0.00  0.00    +0.115 A 
ATOM      9  N   UNL     1       3.359   3.277   0.989  0.00  0.00    -0.263 NA
ATOM     10  C   UNL     1       3.816   4.035   0.012  0.00  0.00    +0.111 A 
ATOM     11  C   UNL     1       5.047   4.655   0.114  0.00  0.00    +0.020 A 
ATOM     12  C   UNL     1       5.801   4.475   1.264  0.00  0.00    +0.008 A 
ENDBRANCH   3   7
TORSDOF 1
ENDMDL
MODEL 9
REMARK VINA RESULT:    -3.328     10.943     12.620
REMARK INTER + INTRA:          -3.713
REMARK INTER:                  -3.518
REMARK INTRA:                  -0.195
REMARK UNBOUND:                -0.191
REMARK  Name = Nicotine.pdb
REMARK  2 active torsions:
REMARK  status: ('A' for Active; 'I' for Inactive)
REMARK    1  A    between atoms: C_3  and  C_6
REMARK    2  A    between atoms: N_4  and  C_12
REMARK                            x       y       z     vdW  Elec       q    Type
REMARK                         _______ _______ _______ _____ _____    ______ ____
ROOT
ATOM      1  C   UNL     1       8.029   5.865   3.759  0.00  0.00    +0.017 C 
ATOM      2  C   UNL     1       9.167   4.950   3.236  0.00  0.00    +0.025 C 
ATOM      3  C   UNL     1       8.434   4.006   2.260  0.00  0.00    +0.088 C 
ATOM      4  N   UNL     1       7.010   4.002   2.643  0.00  0.00    -0.298 NA
ATOM      5  C   UNL     1       6.837   4.877   3.822  0.00  0.00    +0.085 C 
ATOM      6  C   UNL     1       6.163   4.446   1.529  0.00  0.00    +0.105 C 
ENDROOT
BRANCH   3   7
ATOM      7  C   UNL     1       9.000   2.614   2.370  0.00  0.00    -0.012 A 
ATOM      8  C   UNL     1      10.090   2.241   1.606  0.00  0.00    +0.115 A 
ATOM      9  N   UNL     1      10.591   1.024   1.697  0.00  0.00    -0.263 NA
ATOM     10  C   UNL     1      10.080   0.122   2.510  0.00  0.00    +0.111 A 
ATOM     11  C   UNL     1       8.990   0.423   3.306  0.00  0.00    +0.020 A 
ATOM     12  C   UNL     1       8.439   1.694   3.242  0.00  0.00    +0.008 A 
ENDBRANCH   3   7
TORSDOF 1
ENDMDL
MODEL 10
REMARK VINA RESULT:    -3.221      6.198      8.071
REMARK INTER + INTRA:          -3.600
REMARK INTER:                  -3.344
REMARK INTRA:                  -0.256
REMARK UNBOUND:                -0.191
REMARK  Name = Nicotine.pdb
REMARK  2 active torsions:
REMARK  status: ('A' for Active; 'I' for Inactive)
REMARK    1  A    between atoms: C_3  and  C_6
REMARK    2  A    between atoms: N_4  and  C_12
REMARK                            x       y       z     vdW  Elec       q    Type
REMARK                         _______ _______ _______ _____ _____    ______ ____
ROOT
ATOM      1  C   UNL     1       5.127   3.342   2.868  0.00  0.00    +0.017 C 
ATOM      2  C   UNL     1       3.857   2.884   2.104  0.00  0.00    +0.025 C 
ATOM      3  C   UNL     1       3.778   3.883   0.930  0.00  0.00    +0.088 C 
ATOM      4  N   UNL     1       4.538   5.083   1.326  0.00  0.00    -0.298 NA
ATOM      5  C   UNL     1       5.058   4.880   2.695  0.00  0.00    +0.085 C 
ATOM      6  C   UNL     1       5.630   5.351   0.382  0.00  0.00    +0.105 C 
ENDROOT
BRANCH   3   7
ATOM      7  C   UNL     1       2.341   4.250   0.664  0.00  0.00    -0.012 A 
ATOM      8  C   UNL     1       1.976   4.817  -0.542  0.00  0.00    +0.115 A 
ATOM      9  N   UNL     1       0.720   5.141  -0.783  0.00  0.00    -0.263 NA
ATOM     10  C   UNL     1      -0.230   4.940   0.108  0.00  0.00    +0.111 A 
ATOM     11  C   UNL     1       0.059   4.376   1.337  0.00  0.00    +0.020 A 
ATOM     12  C   UNL     1       1.367   4.018   1.624  0.00  0.00    +0.008 A 
ENDBRANCH   3   7
TORSDOF 1
ENDMDL
