MODEL 1
REMARK VINA RESULT:    -3.829      0.000      0.000
REMARK INTER + INTRA:          -4.266
REMARK INTER:                  -4.053
REMARK INTRA:                  -0.213
REMARK UNBOUND:                -0.213
REMARK  Name = Nicotine.pdb
REMARK  2 active torsions:
REMARK  status: ('A' for Active; 'I' for Inactive)
REMARK    1  A    between atoms: C_3  and  C_6
REMARK    2  A    between atoms: N_4  and  C_12
REMARK                            x       y       z     vdW  Elec       q    Type
REMARK                         _______ _______ _______ _____ _____    ______ ____
ROOT
ATOM      1  C   UNL     1       6.682   5.413  -4.059  0.00  0.00    +0.017 C 
ATOM      2  C   UNL     1       8.056   4.706  -4.195  0.00  0.00    +0.025 C 
ATOM      3  C   UNL     1       7.796   3.651  -5.292  0.00  0.00    +0.088 C 
ATOM      4  N   UNL     1       6.344   3.404  -5.325  0.00  0.00    -0.298 NA
ATOM      5  C   UNL     1       5.700   4.236  -4.286  0.00  0.00    +0.085 C 
ATOM      6  C   UNL     1       5.789   3.697  -6.653  0.00  0.00    +0.105 C 
ENDROOT
BRANCH   3   7
ATOM      7  C   UNL     1       8.527   2.376  -4.960  0.00  0.00    -0.012 A 
ATOM      8  C   UNL     1       9.094   2.199  -3.712  0.00  0.00    +0.115 A 
ATOM      9  N   UNL     1       9.735   1.086  -3.413  0.00  0.00    -0.263 NA
ATOM     10  C   UNL     1       9.862   0.105  -4.284  0.00  0.00    +0.111 A 
ATOM     11  C   UNL     1       9.321   0.209  -5.552  0.00  0.00    +0.020 A 
ATOM     12  C   UNL     1       8.635   1.363  -5.900  0.00  0.00    +0.008 A 
ENDBRANCH   3   7
TORSDOF 1
ENDMDL
MODEL 2
REMARK VINA RESULT:    -3.777      1.513      2.058
REMARK INTER + INTRA:          -4.211
REMARK INTER:                  -3.956
REMARK INTRA:                  -0.256
REMARK UNBOUND:                -0.213
REMARK  Name = Nicotine.pdb
REMARK  2 active torsions:
REMARK  status: ('A' for Active; 'I' for Inactive)
REMARK    1  A    between atoms: C_3  and  C_6
REMARK    2  A    between atoms: N_4  and  C_12
REMARK                            x       y       z     vdW  Elec       q    Type
REMARK                         _______ _______ _______ _____ _____    ______ ____
ROOT
ATOM      1  C   UNL     1       8.681   4.655  -3.774  0.00  0.00    +0.017 C 
ATOM      2  C   UNL     1       9.707   3.607  -4.281  0.00  0.00    +0.025 C 
ATOM      3  C   UNL     1       8.877   2.759  -5.268  0.00  0.00    +0.088 C 
ATOM      4  N   UNL     1       7.458   2.930  -4.905  0.00  0.00    -0.298 NA
ATOM      5  C   UNL     1       7.377   3.820  -3.728  0.00  0.00    +0.085 C 
ATOM      6  C   UNL     1       6.688   3.473  -6.031  0.00  0.00    +0.105 C 
ENDROOT
BRANCH   3   7
ATOM      7  C   UNL     1       9.267   1.309  -5.152  0.00  0.00    -0.012 A 
ATOM      8  C   UNL     1       9.115   0.455  -6.228  0.00  0.00    +0.115 A 
ATOM      9  N   UNL     1       9.454  -0.816  -6.134  0.00  0.00    -0.263 NA
ATOM     10  C   UNL     1       9.947  -1.321  -5.021  0.00  0.00    +0.111 A 
ATOM     11  C   UNL     1      10.128  -0.528  -3.903  0.00  0.00    +0.020 A 
ATOM     12  C   UNL     1       9.788   0.814  -3.966  0.00  0.00    +0.008 A 
ENDBRANCH   3   7
TORSDOF 1
ENDMDL
MODEL 3
REMARK VINA RESULT:    -3.700      1.502      2.007
REMARK INTER + INTRA:          -4.129
REMARK INTER:                  -3.914
REMARK INTRA:                  -0.215
REMARK UNBOUND:                -0.213
REMARK  Name = Nicotine.pdb
REMARK  2 active torsions:
REMARK  status: ('A' for Active; 'I' for Inactive)
REMARK    1  A    between atoms: C_3  and  C_6
REMARK    2  A    between atoms: N_4  and  C_12
REMARK                            x       y       z     vdW  Elec       q    Type
REMARK                         _______ _______ _______ _____ _____    ______ ____
ROOT
ATOM      1  C   UNL     1       9.079   4.456  -4.173  0.00  0.00    +0.017 C 
ATOM      2  C   UNL     1      10.112   3.318  -4.379  0.00  0.00    +0.025 C 
ATOM      3  C   UNL     1       9.326   2.281  -5.209  0.00  0.00    +0.088 C 
ATOM      4  N   UNL     1       7.892   2.534  -4.978  0.00  0.00    -0.298 NA
ATOM      5  C   UNL     1       7.759   3.658  -4.028  0.00  0.00    +0.085 C 
ATOM      6  C   UNL     1       7.198   2.825  -6.240  0.00  0.00    +0.105 C 
ENDROOT
BRANCH   3   7
ATOM      7  C   UNL     1       9.681   0.888  -4.758  0.00  0.00    -0.012 A 
ATOM      8  C   UNL     1      10.269   0.680  -3.525  0.00  0.00    +0.115 A 
ATOM      9  N   UNL     1      10.583  -0.536  -3.124  0.00  0.00    -0.263 NA
ATOM     10  C   UNL     1      10.352  -1.595  -3.874  0.00  0.00    +0.111 A 
ATOM     11  C   UNL     1       9.765  -1.466  -5.119  0.00  0.00    +0.020 A 
ATOM     12  C   UNL     1       9.417  -0.203  -5.573  0.00  0.00    +0.008 A 
ENDBRANCH   3   7
TORSDOF 1
ENDMDL
MODEL 4
REMARK VINA RESULT:    -3.659      2.066      4.759
REMARK INTER + INTRA:          -4.086
REMARK INTER:                  -3.842
REMARK INTRA:                  -0.244
REMARK UNBOUND:                -0.213
REMARK  Name = Nicotine.pdb
REMARK  2 active torsions:
REMARK  status: ('A' for Active; 'I' for Inactive)
REMARK    1  A    between atoms: C_3  and  C_6
REMARK    2  A    between atoms: N_4  and  C_12
REMARK                            x       y       z     vdW  Elec       q    Type
REMARK                         _______ _______ _______ _____ _____    ______ ____
ROOT
ATOM      1  C   UNL     1       9.702   2.722  -4.252  0.00  0.00    +0.017 C 
ATOM      2  C   UNL     1       8.338   2.906  -3.535  0.00  0.00    +0.025 C 
ATOM      3  C   UNL     1       7.391   3.304  -4.688  0.00  0.00    +0.088 C 
ATOM      4  N   UNL     1       8.227   3.849  -5.772  0.00  0.00    -0.298 NA
ATOM      5  C   UNL     1       9.639   3.831  -5.333  0.00  0.00    +0.085 C 
ATOM      6  C   UNL     1       8.050   3.082  -7.011  0.00  0.00    +0.105 C 
ENDROOT
BRANCH   3   7
ATOM      7  C   UNL     1       6.417   4.350  -4.213  0.00  0.00    -0.012 A 
ATOM      8  C   UNL     1       5.079   4.264  -4.548  0.00  0.00    +0.115 A 
ATOM      9  N   UNL     1       4.220   5.176  -4.136  0.00  0.00    -0.263 NA
ATOM     10  C   UNL     1       4.597   6.199  -3.395  0.00  0.00    +0.111 A 
ATOM     11  C   UNL     1       5.919   6.352  -3.020  0.00  0.00    +0.020 A 
ATOM     12  C   UNL     1       6.850   5.410  -3.430  0.00  0.00    +0.008 A 
ENDBRANCH   3   7
TORSDOF 1
ENDMDL
MODEL 5
REMARK VINA RESULT:    -3.602      1.491      4.851
REMARK INTER + INTRA:          -4.026
REMARK INTER:                  -3.838
REMARK INTRA:                  -0.188
REMARK UNBOUND:                -0.213
REMARK  Name = Nicotine.pdb
REMARK  2 active torsions:
REMARK  status: ('A' for Active; 'I' for Inactive)
REMARK    1  A    between atoms: C_3  and  C_6
REMARK    2  A    between atoms: N_4  and  C_12
REMARK                            x       y       z     vdW  Elec       q    Type
REMARK                         _______ _______ _______ _____ _____    ______ ____
ROOT
ATOM      1  C   UNL     1       9.046   1.608  -5.472  0.00  0.00    +0.017 C 
ATOM      2  C   UNL     1       7.846   2.502  -5.881  0.00  0.00    +0.025 C 
ATOM      3  C   UNL     1       8.163   3.846  -5.191  0.00  0.00    +0.088 C 
ATOM      4  N   UNL     1       9.082   3.558  -4.075  0.00  0.00    -0.298 NA
ATOM      5  C   UNL     1       9.326   2.100  -4.030  0.00  0.00    +0.085 C 
ATOM      6  C   UNL     1      10.342   4.298  -4.226  0.00  0.00    +0.105 C 
ENDROOT
BRANCH   3   7
ATOM      7  C   UNL     1       6.894   4.464  -4.665  0.00  0.00    -0.012 A 
ATOM      8  C   UNL     1       5.663   3.987  -5.072  0.00  0.00    +0.115 A 
ATOM      9  N   UNL     1       4.547   4.523  -4.616  0.00  0.00    -0.263 NA
ATOM     10  C   UNL     1       4.559   5.526  -3.761  0.00  0.00    +0.111 A 
ATOM     11  C   UNL     1       5.753   6.056  -3.309  0.00  0.00    +0.020 A 
ATOM     12  C   UNL     1       6.946   5.515  -3.762  0.00  0.00    +0.008 A 
ENDBRANCH   3   7
TORSDOF 1
ENDMDL
MODEL 6
REMARK VINA RESULT:    -3.356      1.764      4.381
REMARK INTER + INTRA:          -3.765
REMARK INTER:                  -3.568
REMARK INTRA:                  -0.197
REMARK UNBOUND:                -0.213
REMARK  Name = Nicotine.pdb
REMARK  2 active torsions:
REMARK  status: ('A' for Active; 'I' for Inactive)
REMARK    1  A    between atoms: C_3  and  C_6
REMARK    2  A    between atoms: N_4  and  C_12
REMARK                            x       y       z     vdW  Elec       q    Type
REMARK                         _______ _______ _______ _____ _____    ______ ____
ROOT
ATOM      1  C   UNL     1      10.817   3.520  -6.110  0.00  0.00    +0.017 C 
ATOM      2  C   UNL     1       9.958   4.524  -5.296  0.00  0.00    +0.025 C 
ATOM      3  C   UNL     1       9.132   3.605  -4.371  0.00  0.00    +0.088 C 
ATOM      4  N   UNL     1       9.094   2.273  -5.001  0.00  0.00    -0.298 NA
ATOM      5  C   UNL     1       9.835   2.334  -6.279  0.00  0.00    +0.085 C 
ATOM      6  C   UNL     1       9.664   1.253  -4.111  0.00  0.00    +0.105 C 
ENDROOT
BRANCH   3   7
ATOM      7  C   UNL     1       7.733   4.146  -4.228  0.00  0.00    -0.012 A 
ATOM      8  C   UNL     1       7.453   5.117  -3.285  0.00  0.00    +0.115 A 
ATOM      9  N   UNL     1       6.231   5.596  -3.153  0.00  0.00    -0.263 NA
ATOM     10  C   UNL     1       5.235   5.172  -3.906  0.00  0.00    +0.111 A 
ATOM     11  C   UNL     1       5.440   4.203  -4.870  0.00  0.00    +0.020 A 
ATOM     12  C   UNL     1       6.712   3.680  -5.042  0.00  0.00    +0.008 A 
ENDBRANCH   3   7
TORSDOF 1
ENDMDL
MODEL 7
REMARK VINA RESULT:    -3.294      1.244      2.103
REMARK INTER + INTRA:          -3.700
REMARK INTER:                  -3.452
REMARK INTRA:                  -0.248
REMARK UNBOUND:                -0.213
REMARK  Name = Nicotine.pdb
REMARK  2 active torsions:
REMARK  status: ('A' for Active; 'I' for Inactive)
REMARK    1  A    between atoms: C_3  and  C_6
REMARK    2  A    between atoms: N_4  and  C_12
REMARK                            x       y       z     vdW  Elec       q    Type
REMARK                         _______ _______ _______ _____ _____    ______ ____
ROOT
ATOM      1  C   UNL     1       5.556   5.340  -6.607  0.00  0.00    +0.017 C 
ATOM      2  C   UNL     1       5.953   3.864  -6.340  0.00  0.00    +0.025 C 
ATOM      3  C   UNL     1       6.510   3.909  -4.901  0.00  0.00    +0.088 C 
ATOM      4  N   UNL     1       6.922   5.299  -4.636  0.00  0.00    -0.298 NA
ATOM      5  C   UNL     1       6.670   6.105  -5.849  0.00  0.00    +0.085 C 
ATOM      6  C   UNL     1       6.205   5.849  -3.478  0.00  0.00    +0.105 C 
ENDROOT
BRANCH   3   7
ATOM      7  C   UNL     1       7.697   2.989  -4.782  0.00  0.00    -0.012 A 
ATOM      8  C   UNL     1       8.285   2.763  -3.552  0.00  0.00    +0.115 A 
ATOM      9  N   UNL     1       9.324   1.959  -3.439  0.00  0.00    -0.263 NA
ATOM     10  C   UNL     1       9.841   1.343  -4.483  0.00  0.00    +0.111 A 
ATOM     11  C   UNL     1       9.306   1.520  -5.746  0.00  0.00    +0.020 A 
ATOM     12  C   UNL     1       8.210   2.354  -5.903  0.00  0.00    +0.008 A 
ENDBRANCH   3   7
TORSDOF 1
ENDMDL
MODEL 8
REMARK VINA RESULT:    -3.239     10.180     11.981
REMARK INTER + INTRA:          -3.641
REMARK INTER:                  -3.425
REMARK INTRA:                  -0.216
REMARK UNBOUND:                -0.213
REMARK  Name = Nicotine.pdb
REMARK  2 active torsions:
REMARK  status: ('A' for Active; 'I' for Inactive)
REMARK    1  A    between atoms: C_3  and  C_6
REMARK    2  A    between atoms: N_4  and  C_12
REMARK                            x       y       z     vdW  Elec       q    Type
REMARK                         _______ _______ _______ _____ _____    ______ ____
ROOT
ATOM      1  C   UNL     1      -5.143   2.630  -4.899  0.00  0.00    +0.017 C 
ATOM      2  C   UNL     1      -4.704   3.715  -3.881  0.00  0.00    +0.025 C 
ATOM      3  C   UNL     1      -4.312   4.902  -4.786  0.00  0.00    +0.088 C 
ATOM      4  N   UNL     1      -4.002   4.353  -6.118  0.00  0.00    -0.298 NA
ATOM      5  C   UNL     1      -4.160   2.883  -6.069  0.00  0.00    +0.085 C 
ATOM      6  C   UNL     1      -4.869   4.942  -7.146  0.00  0.00    +0.105 C 
ENDROOT
BRANCH   3   7
ATOM      7  C   UNL     1      -3.100   5.598  -4.222  0.00  0.00    -0.012 A 
ATOM      8  C   UNL     1      -2.113   6.074  -5.064  0.00  0.00    +0.115 A 
ATOM      9  N   UNL     1      -1.049   6.684  -4.579  0.00  0.00    -0.263 NA
ATOM     10  C   UNL     1      -0.883   6.864  -3.284  0.00  0.00    +0.111 A 
ATOM     11  C   UNL     1      -1.829   6.415  -2.381  0.00  0.00    +0.020 A 
ATOM     12  C   UNL     1      -2.963   5.774  -2.854  0.00  0.00    +0.008 A 
ENDBRANCH   3   7
TORSDOF 1
ENDMDL
MODEL 9
REMARK VINA RESULT:    -3.088      2.139      3.072
REMARK INTER + INTRA:          -3.481
REMARK INTER:                  -3.266
REMARK INTRA:                  -0.216
REMARK UNBOUND:                -0.213
REMARK  Name = Nicotine.pdb
REMARK  2 active torsions:
REMARK  status: ('A' for Active; 'I' for Inactive)
REMARK    1  A    between atoms: C_3  and  C_6
REMARK    2  A    between atoms: N_4  and  C_12
REMARK                            x       y       z     vdW  Elec       q    Type
REMARK                         _______ _______ _______ _____ _____    ______ ____
ROOT
ATOM      1  C   UNL     1       5.785   3.153  -6.994  0.00  0.00    +0.017 C 
ATOM      2  C   UNL     1       7.123   2.709  -6.346  0.00  0.00    +0.025 C 
ATOM      3  C   UNL     1       7.103   3.428  -4.981  0.00  0.00    +0.088 C 
ATOM      4  N   UNL     1       6.186   4.575  -5.104  0.00  0.00    -0.298 NA
ATOM      5  C   UNL     1       5.661   4.611  -6.486  0.00  0.00    +0.085 C 
ATOM      6  C   UNL     1       5.093   4.484  -4.127  0.00  0.00    +0.105 C 
ENDROOT
BRANCH   3   7
ATOM      7  C   UNL     1       8.488   3.912  -4.636  0.00  0.00    -0.012 A 
ATOM      8  C   UNL     1       8.662   5.088  -3.931  0.00  0.00    +0.115 A 
ATOM      9  N   UNL     1       9.870   5.519  -3.625  0.00  0.00    -0.263 NA
ATOM     10  C   UNL     1      10.953   4.852  -3.975  0.00  0.00    +0.111 A 
ATOM     11  C   UNL     1      10.857   3.667  -4.681  0.00  0.00    +0.020 A 
ATOM     12  C   UNL     1       9.603   3.180  -5.015  0.00  0.00    +0.008 A 
ENDBRANCH   3   7
TORSDOF 1
ENDMDL
MODEL 10
REMARK VINA RESULT:    -2.985      1.668      2.411
REMARK INTER + INTRA:          -3.372
REMARK INTER:                  -3.148
REMARK INTRA:                  -0.224
REMARK UNBOUND:                -0.213
REMARK  Name = Nicotine.pdb
REMARK  2 active torsions:
REMARK  status: ('A' for Active; 'I' for Inactive)
REMARK    1  A    between atoms: C_3  and  C_6
REMARK    2  A    between atoms: N_4  and  C_12
REMARK                            x       y       z     vdW  Elec       q    Type
REMARK                         _______ _______ _______ _____ _____    ______ ____
ROOT
ATOM      1  C   UNL     1       5.365   6.196  -3.705  0.00  0.00    +0.017 C 
ATOM      2  C   UNL     1       6.572   5.294  -3.336  0.00  0.00    +0.025 C 
ATOM      3  C   UNL     1       7.429   5.319  -4.619  0.00  0.00    +0.088 C 
ATOM      4  N   UNL     1       6.537   5.682  -5.734  0.00  0.00    -0.298 NA
ATOM      5  C   UNL     1       5.168   5.857  -5.203  0.00  0.00    +0.085 C 
ATOM      6  C   UNL     1       7.002   6.903  -6.405  0.00  0.00    +0.105 C 
ENDROOT
BRANCH   3   7
ATOM      7  C   UNL     1       8.028   3.958  -4.862  0.00  0.00    -0.012 A 
ATOM      8  C   UNL     1       7.814   3.304  -6.061  0.00  0.00    +0.115 A 
ATOM      9  N   UNL     1       8.335   2.113  -6.282  0.00  0.00    -0.263 NA
ATOM     10  C   UNL     1       9.073   1.501  -5.378  0.00  0.00    +0.111 A 
ATOM     11  C   UNL     1       9.331   2.093  -4.155  0.00  0.00    +0.020 A 
ATOM     12  C   UNL     1       8.805   3.348  -3.889  0.00  0.00    +0.008 A 
ENDBRANCH   3   7
TORSDOF 1
ENDMDL
