MODEL 1
REMARK VINA RESULT:    -4.847      0.000      0.000
REMARK INTER + INTRA:          -5.386
REMARK INTER:                  -5.131
REMARK INTRA:                  -0.255
REMARK UNBOUND:                -0.255
REMARK  Name = Nicotine.pdb
REMARK  2 active torsions:
REMARK  status: ('A' for Active; 'I' for Inactive)
REMARK    1  A    between atoms: C_3  and  C_6
REMARK    2  A    between atoms: N_4  and  C_12
REMARK                            x       y       z     vdW  Elec       q    Type
REMARK                         _______ _______ _______ _____ _____    ______ ____
ROOT
ATOM      1  C   UNL     1       1.879  -3.073   5.215  0.00  0.00    +0.017 C 
ATOM      2  C   UNL     1       2.508  -1.709   4.824  0.00  0.00    +0.025 C 
ATOM      3  C   UNL     1       1.392  -1.037   3.996  0.00  0.00    +0.088 C 
ATOM      4  N   UNL     1       0.515  -2.110   3.493  0.00  0.00    -0.298 NA
ATOM      5  C   UNL     1       1.052  -3.410   3.950  0.00  0.00    +0.085 C 
ATOM      6  C   UNL     1      -0.867  -1.920   3.951  0.00  0.00    +0.105 C 
ENDROOT
BRANCH   3   7
ATOM      7  C   UNL     1       1.996  -0.282   2.841  0.00  0.00    -0.012 A 
ATOM      8  C   UNL     1       1.247   0.649   2.146  0.00  0.00    +0.115 A 
ATOM      9  N   UNL     1       1.767   1.315   1.134  0.00  0.00    -0.263 NA
ATOM     10  C   UNL     1       3.012   1.122   0.744  0.00  0.00    +0.111 A 
ATOM     11  C   UNL     1       3.822   0.207   1.391  0.00  0.00    +0.020 A 
ATOM     12  C   UNL     1       3.311  -0.508   2.463  0.00  0.00    +0.008 A 
ENDBRANCH   3   7
TORSDOF 1
ENDMDL
MODEL 2
REMARK VINA RESULT:    -4.628      1.398      2.034
REMARK INTER + INTRA:          -5.154
REMARK INTER:                  -4.979
REMARK INTRA:                  -0.175
REMARK UNBOUND:                -0.255
REMARK  Name = Nicotine.pdb
REMARK  2 active torsions:
REMARK  status: ('A' for Active; 'I' for Inactive)
REMARK    1  A    between atoms: C_3  and  C_6
REMARK    2  A    between atoms: N_4  and  C_12
REMARK                            x       y       z     vdW  Elec       q    Type
REMARK                         _______ _______ _______ _____ _____    ______ ____
ROOT
ATOM      1  C   UNL     1       1.476  -3.095   5.104  0.00  0.00    +0.017 C 
ATOM      2  C   UNL     1       1.848  -2.702   3.650  0.00  0.00    +0.025 C 
ATOM      3  C   UNL     1       2.736  -1.455   3.843  0.00  0.00    +0.088 C 
ATOM      4  N   UNL     1       2.408  -0.885   5.163  0.00  0.00    -0.298 NA
ATOM      5  C   UNL     1       1.345  -1.706   5.779  0.00  0.00    +0.085 C 
ATOM      6  C   UNL     1       3.597  -0.831   6.023  0.00  0.00    +0.105 C 
ENDROOT
BRANCH   3   7
ATOM      7  C   UNL     1       2.446  -0.447   2.762  0.00  0.00    -0.012 A 
ATOM      8  C   UNL     1       1.197   0.137   2.667  0.00  0.00    +0.115 A 
ATOM      9  N   UNL     1       0.934   1.020   1.723  0.00  0.00    -0.263 NA
ATOM     10  C   UNL     1       1.844   1.381   0.839  0.00  0.00    +0.111 A 
ATOM     11  C   UNL     1       3.116   0.840   0.872  0.00  0.00    +0.020 A 
ATOM     12  C   UNL     1       3.430  -0.088   1.853  0.00  0.00    +0.008 A 
ENDBRANCH   3   7
TORSDOF 1
ENDMDL
MODEL 3
REMARK VINA RESULT:    -4.548      1.526      4.752
REMARK INTER + INTRA:          -5.069
REMARK INTER:                  -4.819
REMARK INTRA:                  -0.250
REMARK UNBOUND:                -0.255
REMARK  Name = Nicotine.pdb
REMARK  2 active torsions:
REMARK  status: ('A' for Active; 'I' for Inactive)
REMARK    1  A    between atoms: C_3  and  C_6
REMARK    2  A    between atoms: N_4  and  C_12
REMARK                            x       y       z     vdW  Elec       q    Type
REMARK                         _______ _______ _______ _____ _____    ______ ____
ROOT
ATOM      1  C   UNL     1       2.515   1.015   1.027  0.00  0.00    +0.017 C 
ATOM      2  C   UNL     1       1.595   0.389   2.108  0.00  0.00    +0.025 C 
ATOM      3  C   UNL     1       2.552   0.184   3.301  0.00  0.00    +0.088 C 
ATOM      4  N   UNL     1       3.922   0.139   2.760  0.00  0.00    -0.298 NA
ATOM      5  C   UNL     1       3.853   0.280   1.290  0.00  0.00    +0.085 C 
ATOM      6  C   UNL     1       4.757   1.191   3.352  0.00  0.00    +0.105 C 
ENDROOT
BRANCH   3   7
ATOM      7  C   UNL     1       2.231  -1.113   3.998  0.00  0.00    -0.012 A 
ATOM      8  C   UNL     1       2.837  -1.429   5.199  0.00  0.00    +0.115 A 
ATOM      9  N   UNL     1       2.562  -2.562   5.816  0.00  0.00    -0.263 NA
ATOM     10  C   UNL     1       1.707  -3.433   5.318  0.00  0.00    +0.111 A 
ATOM     11  C   UNL     1       1.062  -3.185   4.120  0.00  0.00    +0.020 A 
ATOM     12  C   UNL     1       1.321  -2.002   3.446  0.00  0.00    +0.008 A 
ENDBRANCH   3   7
TORSDOF 1
ENDMDL
MODEL 4
REMARK VINA RESULT:    -4.524      4.384      6.646
REMARK INTER + INTRA:          -5.044
REMARK INTER:                  -4.828
REMARK INTRA:                  -0.216
REMARK UNBOUND:                -0.255
REMARK  Name = Nicotine.pdb
REMARK  2 active torsions:
REMARK  status: ('A' for Active; 'I' for Inactive)
REMARK    1  A    between atoms: C_3  and  C_6
REMARK    2  A    between atoms: N_4  and  C_12
REMARK                            x       y       z     vdW  Elec       q    Type
REMARK                         _______ _______ _______ _____ _____    ______ ____
ROOT
ATOM      1  C   UNL     1       2.510   4.899   0.454  0.00  0.00    +0.017 C 
ATOM      2  C   UNL     1       1.050   5.066  -0.043  0.00  0.00    +0.025 C 
ATOM      3  C   UNL     1       0.303   3.930   0.686  0.00  0.00    +0.088 C 
ATOM      4  N   UNL     1       1.305   2.914   1.055  0.00  0.00    -0.298 NA
ATOM      5  C   UNL     1       2.628   3.358   0.566  0.00  0.00    +0.085 C 
ATOM      6  C   UNL     1       1.325   2.696   2.507  0.00  0.00    +0.105 C 
ENDROOT
BRANCH   3   7
ATOM      7  C   UNL     1      -0.729   3.325  -0.230  0.00  0.00    -0.012 A 
ATOM      8  C   UNL     1      -1.126   2.011  -0.065  0.00  0.00    +0.115 A 
ATOM      9  N   UNL     1      -2.029   1.474  -0.863  0.00  0.00    -0.263 NA
ATOM     10  C   UNL     1      -2.585   2.160  -1.842  0.00  0.00    +0.111 A 
ATOM     11  C   UNL     1      -2.238   3.479  -2.067  0.00  0.00    +0.020 A 
ATOM     12  C   UNL     1      -1.296   4.079  -1.246  0.00  0.00    +0.008 A 
ENDBRANCH   3   7
TORSDOF 1
ENDMDL
MODEL 5
REMARK VINA RESULT:    -4.375      2.968      4.960
REMARK INTER + INTRA:          -4.886
REMARK INTER:                  -4.651
REMARK INTRA:                  -0.234
REMARK UNBOUND:                -0.255
REMARK  Name = Nicotine.pdb
REMARK  2 active torsions:
REMARK  status: ('A' for Active; 'I' for Inactive)
REMARK    1  A    between atoms: C_3  and  C_6
REMARK    2  A    between atoms: N_4  and  C_12
REMARK                            x       y       z     vdW  Elec       q    Type
REMARK                         _______ _______ _______ _____ _____    ______ ____
ROOT
ATOM      1  C   UNL     1       3.501   0.283   1.387  0.00  0.00    +0.017 C 
ATOM      2  C   UNL     1       3.043   1.352   0.360  0.00  0.00    +0.025 C 
ATOM      3  C   UNL     1       2.672   2.555   1.253  0.00  0.00    +0.088 C 
ATOM      4  N   UNL     1       2.390   2.028   2.601  0.00  0.00    -0.298 NA
ATOM      5  C   UNL     1       2.544   0.558   2.573  0.00  0.00    +0.085 C 
ATOM      6  C   UNL     1       3.280   2.632   3.600  0.00  0.00    +0.105 C 
ENDROOT
BRANCH   3   7
ATOM      7  C   UNL     1       1.450   3.244   0.704  0.00  0.00    -0.012 A 
ATOM      8  C   UNL     1       1.444   4.614   0.520  0.00  0.00    +0.115 A 
ATOM      9  N   UNL     1       0.378   5.225   0.040  0.00  0.00    -0.263 NA
ATOM     10  C   UNL     1      -0.715   4.562  -0.281  0.00  0.00    +0.111 A 
ATOM     11  C   UNL     1      -0.783   3.190  -0.125  0.00  0.00    +0.020 A 
ATOM     12  C   UNL     1       0.320   2.512   0.372  0.00  0.00    +0.008 A 
ENDBRANCH   3   7
TORSDOF 1
ENDMDL
MODEL 6
REMARK VINA RESULT:    -4.316      4.145      6.291
REMARK INTER + INTRA:          -4.823
REMARK INTER:                  -4.608
REMARK INTRA:                  -0.216
REMARK UNBOUND:                -0.255
REMARK  Name = Nicotine.pdb
REMARK  2 active torsions:
REMARK  status: ('A' for Active; 'I' for Inactive)
REMARK    1  A    between atoms: C_3  and  C_6
REMARK    2  A    between atoms: N_4  and  C_12
REMARK                            x       y       z     vdW  Elec       q    Type
REMARK                         _______ _______ _______ _____ _____    ______ ____
ROOT
ATOM      1  C   UNL     1      -2.509   2.676  -1.621  0.00  0.00    +0.017 C 
ATOM      2  C   UNL     1      -1.582   1.931  -0.625  0.00  0.00    +0.025 C 
ATOM      3  C   UNL     1      -0.926   3.082   0.166  0.00  0.00    +0.088 C 
ATOM      4  N   UNL     1      -1.016   4.293  -0.669  0.00  0.00    -0.298 NA
ATOM      5  C   UNL     1      -1.671   3.937  -1.946  0.00  0.00    +0.085 C 
ATOM      6  C   UNL     1      -1.754   5.358   0.023  0.00  0.00    +0.105 C 
ENDROOT
BRANCH   3   7
ATOM      7  C   UNL     1       0.518   2.756   0.445  0.00  0.00    -0.012 A 
ATOM      8  C   UNL     1       1.445   3.768   0.605  0.00  0.00    +0.115 A 
ATOM      9  N   UNL     1       2.711   3.491   0.850  0.00  0.00    -0.263 NA
ATOM     10  C   UNL     1       3.142   2.249   0.951  0.00  0.00    +0.111 A 
ATOM     11  C   UNL     1       2.272   1.184   0.803  0.00  0.00    +0.020 A 
ATOM     12  C   UNL     1       0.933   1.437   0.551  0.00  0.00    +0.008 A 
ENDBRANCH   3   7
TORSDOF 1
ENDMDL
MODEL 7
REMARK VINA RESULT:    -4.305      1.432      4.260
REMARK INTER + INTRA:          -4.812
REMARK INTER:                  -4.620
REMARK INTRA:                  -0.191
REMARK UNBOUND:                -0.255
REMARK  Name = Nicotine.pdb
REMARK  2 active torsions:
REMARK  status: ('A' for Active; 'I' for Inactive)
REMARK    1  A    between atoms: C_3  and  C_6
REMARK    2  A    between atoms: N_4  and  C_12
REMARK                            x       y       z     vdW  Elec       q    Type
REMARK                         _______ _______ _______ _____ _____    ______ ____
ROOT
ATOM      1  C   UNL     1       4.238   1.741   3.626  0.00  0.00    +0.017 C 
ATOM      2  C   UNL     1       3.857   0.290   4.020  0.00  0.00    +0.025 C 
ATOM      3  C   UNL     1       3.085  -0.215   2.783  0.00  0.00    +0.088 C 
ATOM      4  N   UNL     1       2.589   0.972   2.062  0.00  0.00    -0.298 NA
ATOM      5  C   UNL     1       2.996   2.180   2.810  0.00  0.00    +0.085 C 
ATOM      6  C   UNL     1       3.102   1.006   0.687  0.00  0.00    +0.105 C 
ENDROOT
BRANCH   3   7
ATOM      7  C   UNL     1       1.926  -1.075   3.216  0.00  0.00    -0.012 A 
ATOM      8  C   UNL     1       0.648  -0.552   3.265  0.00  0.00    +0.115 A 
ATOM      9  N   UNL     1      -0.372  -1.298   3.643  0.00  0.00    -0.263 NA
ATOM     10  C   UNL     1      -0.217  -2.561   3.988  0.00  0.00    +0.111 A 
ATOM     11  C   UNL     1       1.032  -3.153   3.963  0.00  0.00    +0.020 A 
ATOM     12  C   UNL     1       2.128  -2.401   3.566  0.00  0.00    +0.008 A 
ENDBRANCH   3   7
TORSDOF 1
ENDMDL
MODEL 8
REMARK VINA RESULT:    -4.193      2.016      4.575
REMARK INTER + INTRA:          -4.694
REMARK INTER:                  -4.479
REMARK INTRA:                  -0.215
REMARK UNBOUND:                -0.255
REMARK  Name = Nicotine.pdb
REMARK  2 active torsions:
REMARK  status: ('A' for Active; 'I' for Inactive)
REMARK    1  A    between atoms: C_3  and  C_6
REMARK    2  A    between atoms: N_4  and  C_12
REMARK                            x       y       z     vdW  Elec       q    Type
REMARK                         _______ _______ _______ _____ _____    ______ ____
ROOT
ATOM      1  C   UNL     1       4.570   1.875   4.356  0.00  0.00    +0.017 C 
ATOM      2  C   UNL     1       4.614   0.326   4.296  0.00  0.00    +0.025 C 
ATOM      3  C   UNL     1       3.350  -0.027   3.484  0.00  0.00    +0.088 C 
ATOM      4  N   UNL     1       2.424   1.115   3.599  0.00  0.00    -0.298 NA
ATOM      5  C   UNL     1       3.047   2.141   4.462  0.00  0.00    +0.085 C 
ATOM      6  C   UNL     1       2.100   1.665   2.276  0.00  0.00    +0.105 C 
ENDROOT
BRANCH   3   7
ATOM      7  C   UNL     1       2.707  -1.268   4.048  0.00  0.00    -0.012 A 
ATOM      8  C   UNL     1       2.883  -1.603   5.377  0.00  0.00    +0.115 A 
ATOM      9  N   UNL     1       2.324  -2.687   5.879  0.00  0.00    -0.263 NA
ATOM     10  C   UNL     1       1.582  -3.489   5.141  0.00  0.00    +0.111 A 
ATOM     11  C   UNL     1       1.362  -3.218   3.803  0.00  0.00    +0.020 A 
ATOM     12  C   UNL     1       1.928  -2.084   3.242  0.00  0.00    +0.008 A 
ENDBRANCH   3   7
TORSDOF 1
ENDMDL
MODEL 9
REMARK VINA RESULT:    -4.034      1.732      4.491
REMARK INTER + INTRA:          -4.525
REMARK INTER:                  -4.350
REMARK INTRA:                  -0.175
REMARK UNBOUND:                -0.255
REMARK  Name = Nicotine.pdb
REMARK  2 active torsions:
REMARK  status: ('A' for Active; 'I' for Inactive)
REMARK    1  A    between atoms: C_3  and  C_6
REMARK    2  A    between atoms: N_4  and  C_12
REMARK                            x       y       z     vdW  Elec       q    Type
REMARK                         _______ _______ _______ _____ _____    ______ ____
ROOT
ATOM      1  C   UNL     1       3.079   1.879   0.517  0.00  0.00    +0.017 C 
ATOM      2  C   UNL     1       3.300   0.480   1.149  0.00  0.00    +0.025 C 
ATOM      3  C   UNL     1       2.065   0.310   2.059  0.00  0.00    +0.088 C 
ATOM      4  N   UNL     1       1.550   1.659   2.352  0.00  0.00    -0.298 NA
ATOM      5  C   UNL     1       2.422   2.651   1.689  0.00  0.00    +0.085 C 
ATOM      6  C   UNL     1       0.158   1.801   1.906  0.00  0.00    +0.105 C 
ENDROOT
BRANCH   3   7
ATOM      7  C   UNL     1       2.461  -0.379   3.339  0.00  0.00    -0.012 A 
ATOM      8  C   UNL     1       3.356   0.219   4.206  0.00  0.00    +0.115 A 
ATOM      9  N   UNL     1       3.708  -0.377   5.329  0.00  0.00    -0.263 NA
ATOM     10  C   UNL     1       3.227  -1.556   5.668  0.00  0.00    +0.111 A 
ATOM     11  C   UNL     1       2.327  -2.215   4.850  0.00  0.00    +0.020 A 
ATOM     12  C   UNL     1       1.930  -1.617   3.665  0.00  0.00    +0.008 A 
ENDBRANCH   3   7
TORSDOF 1
ENDMDL
MODEL 10
REMARK VINA RESULT:    -3.926      3.368      5.256
REMARK INTER + INTRA:          -4.411
REMARK INTER:                  -4.226
REMARK INTRA:                  -0.185
REMARK UNBOUND:                -0.255
REMARK  Name = Nicotine.pdb
REMARK  2 active torsions:
REMARK  status: ('A' for Active; 'I' for Inactive)
REMARK    1  A    between atoms: C_3  and  C_6
REMARK    2  A    between atoms: N_4  and  C_12
REMARK                            x       y       z     vdW  Elec       q    Type
REMARK                         _______ _______ _______ _____ _____    ______ ____
ROOT
ATOM      1  C   UNL     1       1.152   1.056   3.268  0.00  0.00    +0.017 C 
ATOM      2  C   UNL     1      -0.023   1.495   2.355  0.00  0.00    +0.025 C 
ATOM      3  C   UNL     1       0.667   1.747   0.998  0.00  0.00    +0.088 C 
ATOM      4  N   UNL     1       2.093   1.998   1.273  0.00  0.00    -0.298 NA
ATOM      5  C   UNL     1       2.309   1.937   2.735  0.00  0.00    +0.085 C 
ATOM      6  C   UNL     1       2.944   1.026   0.574  0.00  0.00    +0.105 C 
ENDROOT
BRANCH   3   7
ATOM      7  C   UNL     1       0.054   2.949   0.327  0.00  0.00    -0.012 A 
ATOM      8  C   UNL     1       0.627   4.199   0.472  0.00  0.00    +0.115 A 
ATOM      9  N   UNL     1       0.097   5.255  -0.113  0.00  0.00    -0.263 NA
ATOM     10  C   UNL     1      -0.991   5.166  -0.852  0.00  0.00    +0.111 A 
ATOM     11  C   UNL     1      -1.619   3.949  -1.043  0.00  0.00    +0.020 A 
ATOM     12  C   UNL     1      -1.088   2.815  -0.448  0.00  0.00    +0.008 A 
ENDBRANCH   3   7
TORSDOF 1
ENDMDL
