MODEL 1
REMARK VINA RESULT:    -3.248      0.000      0.000
REMARK INTER + INTRA:          -3.626
REMARK INTER:                  -3.438
REMARK INTRA:                  -0.188
REMARK UNBOUND:                -0.188
REMARK  Name = Nicotine.pdb
REMARK  2 active torsions:
REMARK  status: ('A' for Active; 'I' for Inactive)
REMARK    1  A    between atoms: C_3  and  C_6
REMARK    2  A    between atoms: N_4  and  C_12
REMARK                            x       y       z     vdW  Elec       q    Type
REMARK                         _______ _______ _______ _____ _____    ______ ____
ROOT
ATOM      1  C   UNL     1       8.693   3.650   6.014  0.00  0.00    +0.017 C 
ATOM      2  C   UNL     1       9.609   3.383   4.791  0.00  0.00    +0.025 C 
ATOM      3  C   UNL     1       9.583   4.729   4.037  0.00  0.00    +0.088 C 
ATOM      4  N   UNL     1       8.358   5.438   4.451  0.00  0.00    -0.298 NA
ATOM      5  C   UNL     1       7.618   4.582   5.402  0.00  0.00    +0.085 C 
ATOM      6  C   UNL     1       8.679   6.739   5.052  0.00  0.00    +0.105 C 
ENDROOT
BRANCH   3   7
ATOM      7  C   UNL     1       9.558   4.484   2.551  0.00  0.00    -0.012 A 
ATOM      8  C   UNL     1       9.874   3.238   2.042  0.00  0.00    +0.115 A 
ATOM      9  N   UNL     1       9.854   3.016   0.743  0.00  0.00    -0.263 NA
ATOM     10  C   UNL     1       9.537   3.962  -0.118  0.00  0.00    +0.111 A 
ATOM     11  C   UNL     1       9.209   5.233   0.317  0.00  0.00    +0.020 A 
ATOM     12  C   UNL     1       9.213   5.503   1.676  0.00  0.00    +0.008 A 
ENDBRANCH   3   7
TORSDOF 1
ENDMDL
MODEL 2
REMARK VINA RESULT:    -3.179      3.821      5.697
REMARK INTER + INTRA:          -3.553
REMARK INTER:                  -3.353
REMARK INTRA:                  -0.200
REMARK UNBOUND:                -0.188
REMARK  Name = Nicotine.pdb
REMARK  2 active torsions:
REMARK  status: ('A' for Active; 'I' for Inactive)
REMARK    1  A    between atoms: C_3  and  C_6
REMARK    2  A    between atoms: N_4  and  C_12
REMARK                            x       y       z     vdW  Elec       q    Type
REMARK                         _______ _______ _______ _____ _____    ______ ____
ROOT
ATOM      1  C   UNL     1       9.885   4.083   0.458  0.00  0.00    +0.017 C 
ATOM      2  C   UNL     1      10.185   3.526  -0.959  0.00  0.00    +0.025 C 
ATOM      3  C   UNL     1       9.990   4.759  -1.866  0.00  0.00    +0.088 C 
ATOM      4  N   UNL     1       9.123   5.704  -1.138  0.00  0.00    -0.298 NA
ATOM      5  C   UNL     1       8.755   5.101   0.161  0.00  0.00    +0.085 C 
ATOM      6  C   UNL     1       9.794   6.996  -0.948  0.00  0.00    +0.105 C 
ENDROOT
BRANCH   3   7
ATOM      7  C   UNL     1       9.331   4.347  -3.157  0.00  0.00    -0.012 A 
ATOM      8  C   UNL     1       9.779   3.236  -3.846  0.00  0.00    +0.115 A 
ATOM      9  N   UNL     1       9.208   2.869  -4.977  0.00  0.00    -0.263 NA
ATOM     10  C   UNL     1       8.196   3.539  -5.492  0.00  0.00    +0.111 A 
ATOM     11  C   UNL     1       7.694   4.660  -4.858  0.00  0.00    +0.020 A 
ATOM     12  C   UNL     1       8.265   5.073  -3.665  0.00  0.00    +0.008 A 
ENDBRANCH   3   7
TORSDOF 1
ENDMDL
MODEL 3
REMARK VINA RESULT:    -3.068      1.073      1.519
REMARK INTER + INTRA:          -3.435
REMARK INTER:                  -3.218
REMARK INTRA:                  -0.217
REMARK UNBOUND:                -0.188
REMARK  Name = Nicotine.pdb
REMARK  2 active torsions:
REMARK  status: ('A' for Active; 'I' for Inactive)
REMARK    1  A    between atoms: C_3  and  C_6
REMARK    2  A    between atoms: N_4  and  C_12
REMARK                            x       y       z     vdW  Elec       q    Type
REMARK                         _______ _______ _______ _____ _____    ______ ____
ROOT
ATOM      1  C   UNL     1       8.324   4.022   5.629  0.00  0.00    +0.017 C 
ATOM      2  C   UNL     1       9.077   3.551   4.357  0.00  0.00    +0.025 C 
ATOM      3  C   UNL     1       9.541   4.876   3.717  0.00  0.00    +0.088 C 
ATOM      4  N   UNL     1       8.659   5.941   4.230  0.00  0.00    -0.298 NA
ATOM      5  C   UNL     1       7.661   5.331   5.133  0.00  0.00    +0.085 C 
ATOM      6  C   UNL     1       9.434   6.978   4.923  0.00  0.00    +0.105 C 
ENDROOT
BRANCH   3   7
ATOM      7  C   UNL     1       9.424   4.790   2.217  0.00  0.00    -0.012 A 
ATOM      8  C   UNL     1       8.962   5.870   1.489  0.00  0.00    +0.115 A 
ATOM      9  N   UNL     1       8.857   5.802   0.176  0.00  0.00    -0.263 NA
ATOM     10  C   UNL     1       9.184   4.713  -0.491  0.00  0.00    +0.111 A 
ATOM     11  C   UNL     1       9.654   3.593   0.170  0.00  0.00    +0.020 A 
ATOM     12  C   UNL     1       9.783   3.629   1.550  0.00  0.00    +0.008 A 
ENDBRANCH   3   7
TORSDOF 1
ENDMDL
MODEL 4
REMARK VINA RESULT:    -2.973      3.784      7.186
REMARK INTER + INTRA:          -3.335
REMARK INTER:                  -3.092
REMARK INTRA:                  -0.243
REMARK UNBOUND:                -0.188
REMARK  Name = Nicotine.pdb
REMARK  2 active torsions:
REMARK  status: ('A' for Active; 'I' for Inactive)
REMARK    1  A    between atoms: C_3  and  C_6
REMARK    2  A    between atoms: N_4  and  C_12
REMARK                            x       y       z     vdW  Elec       q    Type
REMARK                         _______ _______ _______ _____ _____    ______ ____
ROOT
ATOM      1  C   UNL     1       8.778   6.491  -5.029  0.00  0.00    +0.017 C 
ATOM      2  C   UNL     1       9.739   6.147  -3.861  0.00  0.00    +0.025 C 
ATOM      3  C   UNL     1       9.516   4.632  -3.663  0.00  0.00    +0.088 C 
ATOM      4  N   UNL     1       8.193   4.308  -4.226  0.00  0.00    -0.298 NA
ATOM      5  C   UNL     1       7.581   5.553  -4.737  0.00  0.00    +0.085 C 
ATOM      6  C   UNL     1       8.305   3.301  -5.289  0.00  0.00    +0.105 C 
ENDROOT
BRANCH   3   7
ATOM      7  C   UNL     1       9.546   4.297  -2.195  0.00  0.00    -0.012 A 
ATOM      8  C   UNL     1      10.247   3.195  -1.744  0.00  0.00    +0.115 A 
ATOM      9  N   UNL     1      10.279   2.894  -0.460  0.00  0.00    -0.263 NA
ATOM     10  C   UNL     1       9.648   3.624   0.438  0.00  0.00    +0.111 A 
ATOM     11  C   UNL     1       8.927   4.742   0.062  0.00  0.00    +0.020 A 
ATOM     12  C   UNL     1       8.875   5.092  -1.278  0.00  0.00    +0.008 A 
ENDBRANCH   3   7
TORSDOF 1
ENDMDL
MODEL 5
REMARK VINA RESULT:    -2.859      5.392      8.499
REMARK INTER + INTRA:          -3.213
REMARK INTER:                  -2.958
REMARK INTRA:                  -0.256
REMARK UNBOUND:                -0.188
REMARK  Name = Nicotine.pdb
REMARK  2 active torsions:
REMARK  status: ('A' for Active; 'I' for Inactive)
REMARK    1  A    between atoms: C_3  and  C_6
REMARK    2  A    between atoms: N_4  and  C_12
REMARK                            x       y       z     vdW  Elec       q    Type
REMARK                         _______ _______ _______ _____ _____    ______ ____
ROOT
ATOM      1  C   UNL     1       7.807   2.691  -6.628  0.00  0.00    +0.017 C 
ATOM      2  C   UNL     1       7.877   2.708  -5.078  0.00  0.00    +0.025 C 
ATOM      3  C   UNL     1       7.907   4.215  -4.748  0.00  0.00    +0.088 C 
ATOM      4  N   UNL     1       8.394   4.916  -5.950  0.00  0.00    -0.298 NA
ATOM      5  C   UNL     1       8.688   3.911  -6.994  0.00  0.00    +0.085 C 
ATOM      6  C   UNL     1       7.408   5.896  -6.424  0.00  0.00    +0.105 C 
ENDROOT
BRANCH   3   7
ATOM      7  C   UNL     1       8.840   4.468  -3.592  0.00  0.00    -0.012 A 
ATOM      8  C   UNL     1       8.672   5.580  -2.789  0.00  0.00    +0.115 A 
ATOM      9  N   UNL     1       9.484   5.809  -1.775  0.00  0.00    -0.263 NA
ATOM     10  C   UNL     1      10.481   4.995  -1.489  0.00  0.00    +0.111 A 
ATOM     11  C   UNL     1      10.710   3.862  -2.247  0.00  0.00    +0.020 A 
ATOM     12  C   UNL     1       9.874   3.586  -3.318  0.00  0.00    +0.008 A 
ENDBRANCH   3   7
TORSDOF 1
ENDMDL
MODEL 6
REMARK VINA RESULT:    -2.641      2.852      4.463
REMARK INTER + INTRA:          -2.983
REMARK INTER:                  -2.763
REMARK INTRA:                  -0.220
REMARK UNBOUND:                -0.188
REMARK  Name = Nicotine.pdb
REMARK  2 active torsions:
REMARK  status: ('A' for Active; 'I' for Inactive)
REMARK    1  A    between atoms: C_3  and  C_6
REMARK    2  A    between atoms: N_4  and  C_12
REMARK                            x       y       z     vdW  Elec       q    Type
REMARK                         _______ _______ _______ _____ _____    ______ ____
ROOT
ATOM      1  C   UNL     1      10.417   3.790   1.904  0.00  0.00    +0.017 C 
ATOM      2  C   UNL     1      10.544   3.312   0.434  0.00  0.00    +0.025 C 
ATOM      3  C   UNL     1      10.610   4.636  -0.357  0.00  0.00    +0.088 C 
ATOM      4  N   UNL     1      10.001   5.680   0.487  0.00  0.00    -0.298 NA
ATOM      5  C   UNL     1       9.541   5.058   1.747  0.00  0.00    +0.085 C 
ATOM      6  C   UNL     1      10.954   6.765   0.753  0.00  0.00    +0.105 C 
ENDROOT
BRANCH   3   7
ATOM      7  C   UNL     1       9.841   4.503  -1.646  0.00  0.00    -0.012 A 
ATOM      8  C   UNL     1       8.720   5.278  -1.874  0.00  0.00    +0.115 A 
ATOM      9  N   UNL     1       8.041   5.168  -2.999  0.00  0.00    -0.263 NA
ATOM     10  C   UNL     1       8.399   4.321  -3.944  0.00  0.00    +0.111 A 
ATOM     11  C   UNL     1       9.510   3.513  -3.787  0.00  0.00    +0.020 A 
ATOM     12  C   UNL     1      10.251   3.605  -2.620  0.00  0.00    +0.008 A 
ENDBRANCH   3   7
TORSDOF 1
ENDMDL
MODEL 7
REMARK VINA RESULT:    -2.535      2.102      4.790
REMARK INTER + INTRA:          -2.871
REMARK INTER:                  -2.656
REMARK INTRA:                  -0.215
REMARK UNBOUND:                -0.188
REMARK  Name = Nicotine.pdb
REMARK  2 active torsions:
REMARK  status: ('A' for Active; 'I' for Inactive)
REMARK    1  A    between atoms: C_3  and  C_6
REMARK    2  A    between atoms: N_4  and  C_12
REMARK                            x       y       z     vdW  Elec       q    Type
REMARK                         _______ _______ _______ _____ _____    ______ ____
ROOT
ATOM      1  C   UNL     1      10.204   3.134  -1.083  0.00  0.00    +0.017 C 
ATOM      2  C   UNL     1       9.566   3.309   0.320  0.00  0.00    +0.025 C 
ATOM      3  C   UNL     1       9.142   4.793   0.326  0.00  0.00    +0.088 C 
ATOM      4  N   UNL     1       9.966   5.487  -0.681  0.00  0.00    -0.298 NA
ATOM      5  C   UNL     1      10.892   4.507  -1.287  0.00  0.00    +0.085 C 
ATOM      6  C   UNL     1       9.125   6.121  -1.704  0.00  0.00    +0.105 C 
ENDROOT
BRANCH   3   7
ATOM      7  C   UNL     1       9.385   5.390   1.688  0.00  0.00    -0.012 A 
ATOM      8  C   UNL     1      10.311   4.825   2.544  0.00  0.00    +0.115 A 
ATOM      9  N   UNL     1      10.529   5.341   3.738  0.00  0.00    -0.263 NA
ATOM     10  C   UNL     1       9.879   6.407   4.162  0.00  0.00    +0.111 A 
ATOM     11  C   UNL     1       8.939   7.027   3.361  0.00  0.00    +0.020 A 
ATOM     12  C   UNL     1       8.686   6.516   2.097  0.00  0.00    +0.008 A 
ENDBRANCH   3   7
TORSDOF 1
ENDMDL
MODEL 8
REMARK VINA RESULT:    -2.134      4.950      7.055
REMARK INTER + INTRA:          -2.447
REMARK INTER:                  -2.251
REMARK INTRA:                  -0.196
REMARK UNBOUND:                -0.188
REMARK  Name = Nicotine.pdb
REMARK  2 active torsions:
REMARK  status: ('A' for Active; 'I' for Inactive)
REMARK    1  A    between atoms: C_3  and  C_6
REMARK    2  A    between atoms: N_4  and  C_12
REMARK                            x       y       z     vdW  Elec       q    Type
REMARK                         _______ _______ _______ _____ _____    ______ ____
ROOT
ATOM      1  C   UNL     1      10.568   2.959  -1.640  0.00  0.00    +0.017 C 
ATOM      2  C   UNL     1      10.441   3.253  -3.158  0.00  0.00    +0.025 C 
ATOM      3  C   UNL     1      10.396   4.795  -3.211  0.00  0.00    +0.088 C 
ATOM      4  N   UNL     1       9.953   5.264  -1.886  0.00  0.00    -0.298 NA
ATOM      5  C   UNL     1       9.698   4.086  -1.029  0.00  0.00    +0.085 C 
ATOM      6  C   UNL     1      10.954   6.151  -1.279  0.00  0.00    +0.105 C 
ENDROOT
BRANCH   3   7
ATOM      7  C   UNL     1       9.421   5.244  -4.268  0.00  0.00    -0.012 A 
ATOM      8  C   UNL     1       9.877   5.719  -5.483  0.00  0.00    +0.115 A 
ATOM      9  N   UNL     1       9.030   6.114  -6.414  0.00  0.00    -0.263 NA
ATOM     10  C   UNL     1       7.726   6.073  -6.227  0.00  0.00    +0.111 A 
ATOM     11  C   UNL     1       7.196   5.608  -5.037  0.00  0.00    +0.020 A 
ATOM     12  C   UNL     1       8.055   5.180  -4.037  0.00  0.00    +0.008 A 
ENDBRANCH   3   7
TORSDOF 1
ENDMDL
MODEL 9
REMARK VINA RESULT:    -1.543      1.638      2.392
REMARK INTER + INTRA:          -1.821
REMARK INTER:                  -1.592
REMARK INTRA:                  -0.228
REMARK UNBOUND:                -0.188
REMARK  Name = Nicotine.pdb
REMARK  2 active torsions:
REMARK  status: ('A' for Active; 'I' for Inactive)
REMARK    1  A    between atoms: C_3  and  C_6
REMARK    2  A    between atoms: N_4  and  C_12
REMARK                            x       y       z     vdW  Elec       q    Type
REMARK                         _______ _______ _______ _____ _____    ______ ____
ROOT
ATOM      1  C   UNL     1       6.037   4.016   6.244  0.00  0.00    +0.017 C 
ATOM      2  C   UNL     1       7.441   3.534   5.793  0.00  0.00    +0.025 C 
ATOM      3  C   UNL     1       8.123   4.838   5.327  0.00  0.00    +0.088 C 
ATOM      4  N   UNL     1       7.052   5.797   4.999  0.00  0.00    -0.298 NA
ATOM      5  C   UNL     1       5.747   5.138   5.216  0.00  0.00    +0.085 C 
ATOM      6  C   UNL     1       7.169   7.016   5.810  0.00  0.00    +0.105 C 
ENDROOT
BRANCH   3   7
ATOM      7  C   UNL     1       8.964   4.569   4.106  0.00  0.00    -0.012 A 
ATOM      8  C   UNL     1       9.520   5.616   3.396  0.00  0.00    +0.115 A 
ATOM      9  N   UNL     1      10.258   5.389   2.326  0.00  0.00    -0.263 NA
ATOM     10  C   UNL     1      10.493   4.167   1.893  0.00  0.00    +0.111 A 
ATOM     11  C   UNL     1       9.970   3.070   2.552  0.00  0.00    +0.020 A 
ATOM     12  C   UNL     1       9.194   3.269   3.684  0.00  0.00    +0.008 A 
ENDBRANCH   3   7
TORSDOF 1
ENDMDL
MODEL 10
REMARK VINA RESULT:    -1.168     13.270     14.261
REMARK INTER + INTRA:          -1.425
REMARK INTER:                  -1.203
REMARK INTRA:                  -0.221
REMARK UNBOUND:                -0.188
REMARK  Name = Nicotine.pdb
REMARK  2 active torsions:
REMARK  status: ('A' for Active; 'I' for Inactive)
REMARK    1  A    between atoms: C_3  and  C_6
REMARK    2  A    between atoms: N_4  and  C_12
REMARK                            x       y       z     vdW  Elec       q    Type
REMARK                         _______ _______ _______ _____ _____    ______ ____
ROOT
ATOM      1  C   UNL     1      -2.281   7.008  -1.669  0.00  0.00    +0.017 C 
ATOM      2  C   UNL     1      -1.679   7.028  -3.099  0.00  0.00    +0.025 C 
ATOM      3  C   UNL     1      -2.915   6.814  -3.999  0.00  0.00    +0.088 C 
ATOM      4  N   UNL     1      -3.950   6.168  -3.173  0.00  0.00    -0.298 NA
ATOM      5  C   UNL     1      -3.403   5.951  -1.817  0.00  0.00    +0.085 C 
ATOM      6  C   UNL     1      -5.171   6.983  -3.125  0.00  0.00    +0.105 C 
ENDROOT
BRANCH   3   7
ATOM      7  C   UNL     1      -2.555   5.925  -5.161  0.00  0.00    -0.012 A 
ATOM      8  C   UNL     1      -3.349   4.841  -5.484  0.00  0.00    +0.115 A 
ATOM      9  N   UNL     1      -3.041   4.058  -6.500  0.00  0.00    -0.263 NA
ATOM     10  C   UNL     1      -1.974   4.274  -7.242  0.00  0.00    +0.111 A 
ATOM     11  C   UNL     1      -1.132   5.339  -6.980  0.00  0.00    +0.020 A 
ATOM     12  C   UNL     1      -1.427   6.187  -5.923  0.00  0.00    +0.008 A 
ENDBRANCH   3   7
TORSDOF 1
ENDMDL
