MODEL 1
REMARK VINA RESULT:    -2.364      0.000      0.000
REMARK INTER + INTRA:          -2.712
REMARK INTER:                  -2.503
REMARK INTRA:                  -0.210
REMARK UNBOUND:                -0.210
REMARK  Name = Nicotine.pdb
REMARK  2 active torsions:
REMARK  status: ('A' for Active; 'I' for Inactive)
REMARK    1  A    between atoms: C_3  and  C_6
REMARK    2  A    between atoms: N_4  and  C_12
REMARK                            x       y       z     vdW  Elec       q    Type
REMARK                         _______ _______ _______ _____ _____    ______ ____
ROOT
ATOM      1  C   UNL     1      -3.692  -3.512  -5.564  0.00  0.00    +0.017 C 
ATOM      2  C   UNL     1      -2.475  -3.911  -4.689  0.00  0.00    +0.025 C 
ATOM      3  C   UNL     1      -3.036  -5.051  -3.813  0.00  0.00    +0.088 C 
ATOM      4  N   UNL     1      -4.501  -4.896  -3.779  0.00  0.00    -0.298 NA
ATOM      5  C   UNL     1      -4.866  -3.702  -4.571  0.00  0.00    +0.085 C 
ATOM      6  C   UNL     1      -5.170  -6.096  -4.297  0.00  0.00    +0.105 C 
ENDROOT
BRANCH   3   7
ATOM      7  C   UNL     1      -2.476  -4.948  -2.418  0.00  0.00    -0.012 A 
ATOM      8  C   UNL     1      -1.663  -5.947  -1.915  0.00  0.00    +0.115 A 
ATOM      9  N   UNL     1      -1.169  -5.864  -0.695  0.00  0.00    -0.263 NA
ATOM     10  C   UNL     1      -1.427  -4.836   0.089  0.00  0.00    +0.111 A 
ATOM     11  C   UNL     1      -2.231  -3.799  -0.345  0.00  0.00    +0.020 A 
ATOM     12  C   UNL     1      -2.764  -3.848  -1.624  0.00  0.00    +0.008 A 
ENDBRANCH   3   7
TORSDOF 1
ENDMDL
MODEL 2
REMARK VINA RESULT:    -2.200      1.294      4.651
REMARK INTER + INTRA:          -2.539
REMARK INTER:                  -2.358
REMARK INTRA:                  -0.181
REMARK UNBOUND:                -0.210
REMARK  Name = Nicotine.pdb
REMARK  2 active torsions:
REMARK  status: ('A' for Active; 'I' for Inactive)
REMARK    1  A    between atoms: C_3  and  C_6
REMARK    2  A    between atoms: N_4  and  C_12
REMARK                            x       y       z     vdW  Elec       q    Type
REMARK                         _______ _______ _______ _____ _____    ______ ____
ROOT
ATOM      1  C   UNL     1      -0.901  -5.997   0.425  0.00  0.00    +0.017 C 
ATOM      2  C   UNL     1      -1.250  -6.092  -1.084  0.00  0.00    +0.025 C 
ATOM      3  C   UNL     1      -1.907  -4.726  -1.375  0.00  0.00    +0.088 C 
ATOM      4  N   UNL     1      -2.399  -4.195  -0.090  0.00  0.00    -0.298 NA
ATOM      5  C   UNL     1      -2.098  -5.179   0.972  0.00  0.00    +0.085 C 
ATOM      6  C   UNL     1      -1.789  -2.893   0.210  0.00  0.00    +0.105 C 
ENDROOT
BRANCH   3   7
ATOM      7  C   UNL     1      -3.058  -4.904  -2.331  0.00  0.00    -0.012 A 
ATOM      8  C   UNL     1      -4.118  -5.728  -2.003  0.00  0.00    +0.115 A 
ATOM      9  N   UNL     1      -5.129  -5.889  -2.834  0.00  0.00    -0.263 NA
ATOM     10  C   UNL     1      -5.171  -5.279  -4.002  0.00  0.00    +0.111 A 
ATOM     11  C   UNL     1      -4.147  -4.439  -4.398  0.00  0.00    +0.020 A 
ATOM     12  C   UNL     1      -3.069  -4.241  -3.548  0.00  0.00    +0.008 A 
ENDBRANCH   3   7
TORSDOF 1
ENDMDL
MODEL 3
REMARK VINA RESULT:    -0.942      1.271      2.426
REMARK INTER + INTRA:          -1.207
REMARK INTER:                  -0.992
REMARK INTRA:                  -0.215
REMARK UNBOUND:                -0.210
REMARK  Name = Nicotine.pdb
REMARK  2 active torsions:
REMARK  status: ('A' for Active; 'I' for Inactive)
REMARK    1  A    between atoms: C_3  and  C_6
REMARK    2  A    between atoms: N_4  and  C_12
REMARK                            x       y       z     vdW  Elec       q    Type
REMARK                         _______ _______ _______ _____ _____    ______ ____
ROOT
ATOM      1  C   UNL     1      -5.171  -5.779  -3.902  0.00  0.00    +0.017 C 
ATOM      2  C   UNL     1      -4.866  -5.357  -2.440  0.00  0.00    +0.025 C 
ATOM      3  C   UNL     1      -3.635  -4.439  -2.594  0.00  0.00    +0.088 C 
ATOM      4  N   UNL     1      -2.988  -4.786  -3.872  0.00  0.00    -0.298 NA
ATOM      5  C   UNL     1      -3.746  -5.890  -4.499  0.00  0.00    +0.085 C 
ATOM      6  C   UNL     1      -2.920  -3.620  -4.762  0.00  0.00    +0.105 C 
ENDROOT
BRANCH   3   7
ATOM      7  C   UNL     1      -2.678  -4.671  -1.453  0.00  0.00    -0.012 A 
ATOM      8  C   UNL     1      -2.351  -3.638  -0.594  0.00  0.00    +0.115 A 
ATOM      9  N   UNL     1      -1.514  -3.832   0.406  0.00  0.00    -0.263 NA
ATOM     10  C   UNL     1      -0.959  -5.007   0.627  0.00  0.00    +0.111 A 
ATOM     11  C   UNL     1      -1.238  -6.087  -0.190  0.00  0.00    +0.020 A 
ATOM     12  C   UNL     1      -2.117  -5.922  -1.249  0.00  0.00    +0.008 A 
ENDBRANCH   3   7
TORSDOF 1
ENDMDL
MODEL 4
REMARK VINA RESULT:     0.096     12.088     13.266
REMARK INTER + INTRA:          -0.108
REMARK INTER:                   0.099
REMARK INTRA:                  -0.207
REMARK UNBOUND:                -0.210
REMARK  Name = Nicotine.pdb
REMARK  2 active torsions:
REMARK  status: ('A' for Active; 'I' for Inactive)
REMARK    1  A    between atoms: C_3  and  C_6
REMARK    2  A    between atoms: N_4  and  C_12
REMARK                            x       y       z     vdW  Elec       q    Type
REMARK                         _______ _______ _______ _____ _____    ______ ____
ROOT
ATOM      1  C   UNL     1      10.427  -6.089  -3.277  0.00  0.00    +0.017 C 
ATOM      2  C   UNL     1      10.954  -4.641  -3.100  0.00  0.00    +0.025 C 
ATOM      3  C   UNL     1      10.448  -4.257  -1.693  0.00  0.00    +0.088 C 
ATOM      4  N   UNL     1       9.303  -5.132  -1.387  0.00  0.00    -0.298 NA
ATOM      5  C   UNL     1       9.063  -6.017  -2.547  0.00  0.00    +0.085 C 
ATOM      6  C   UNL     1       9.548  -5.914  -0.168  0.00  0.00    +0.105 C 
ENDROOT
BRANCH   3   7
ATOM      7  C   UNL     1      10.012  -2.815  -1.681  0.00  0.00    -0.012 A 
ATOM      8  C   UNL     1      10.950  -1.800  -1.672  0.00  0.00    +0.115 A 
ATOM      9  N   UNL     1      10.576  -0.536  -1.661  0.00  0.00    -0.263 NA
ATOM     10  C   UNL     1       9.304  -0.189  -1.658  0.00  0.00    +0.111 A 
ATOM     11  C   UNL     1       8.309  -1.149  -1.668  0.00  0.00    +0.020 A 
ATOM     12  C   UNL     1       8.664  -2.489  -1.684  0.00  0.00    +0.008 A 
ENDBRANCH   3   7
TORSDOF 1
ENDMDL
MODEL 5
REMARK VINA RESULT:     0.186      1.871      2.870
REMARK INTER + INTRA:          -0.013
REMARK INTER:                   0.209
REMARK INTRA:                  -0.221
REMARK UNBOUND:                -0.210
REMARK  Name = Nicotine.pdb
REMARK  2 active torsions:
REMARK  status: ('A' for Active; 'I' for Inactive)
REMARK    1  A    between atoms: C_3  and  C_6
REMARK    2  A    between atoms: N_4  and  C_12
REMARK                            x       y       z     vdW  Elec       q    Type
REMARK                         _______ _______ _______ _____ _____    ______ ____
ROOT
ATOM      1  C   UNL     1      -2.161  -6.097  -3.512  0.00  0.00    +0.017 C 
ATOM      2  C   UNL     1      -1.713  -5.787  -2.059  0.00  0.00    +0.025 C 
ATOM      3  C   UNL     1      -2.932  -5.045  -1.471  0.00  0.00    +0.088 C 
ATOM      4  N   UNL     1      -3.696  -4.492  -2.604  0.00  0.00    -0.298 NA
ATOM      5  C   UNL     1      -2.993  -4.837  -3.858  0.00  0.00    +0.085 C 
ATOM      6  C   UNL     1      -5.072  -5.006  -2.613  0.00  0.00    +0.105 C 
ENDROOT
BRANCH   3   7
ATOM      7  C   UNL     1      -2.468  -3.929  -0.571  0.00  0.00    -0.012 A 
ATOM      8  C   UNL     1      -2.779  -2.616  -0.869  0.00  0.00    +0.115 A 
ATOM      9  N   UNL     1      -2.377  -1.633  -0.086  0.00  0.00    -0.263 NA
ATOM     10  C   UNL     1      -1.667  -1.860   1.002  0.00  0.00    +0.111 A 
ATOM     11  C   UNL     1      -1.318  -3.147   1.364  0.00  0.00    +0.020 A 
ATOM     12  C   UNL     1      -1.728  -4.207   0.568  0.00  0.00    +0.008 A 
ENDBRANCH   3   7
TORSDOF 1
ENDMDL
