MODEL 1
REMARK VINA RESULT:    -3.516      0.000      0.000
REMARK INTER + INTRA:          -3.942
REMARK INTER:                  -3.722
REMARK INTRA:                  -0.220
REMARK UNBOUND:                -0.220
REMARK  Name = Nicotine.pdb
REMARK  2 active torsions:
REMARK  status: ('A' for Active; 'I' for Inactive)
REMARK    1  A    between atoms: C_3  and  C_6
REMARK    2  A    between atoms: N_4  and  C_12
REMARK                            x       y       z     vdW  Elec       q    Type
REMARK                         _______ _______ _______ _____ _____    ______ ____
ROOT
ATOM      1  C   UNL     1       5.360   5.923  -4.490  0.00  0.00    +0.017 C 
ATOM      2  C   UNL     1       6.762   5.708  -3.863  0.00  0.00    +0.025 C 
ATOM      3  C   UNL     1       7.717   5.994  -5.042  0.00  0.00    +0.088 C 
ATOM      4  N   UNL     1       6.947   5.801  -6.284  0.00  0.00    -0.298 NA
ATOM      5  C   UNL     1       5.574   5.385  -5.927  0.00  0.00    +0.085 C 
ATOM      6  C   UNL     1       6.934   7.027  -7.092  0.00  0.00    +0.105 C 
ENDROOT
BRANCH   3   7
ATOM      7  C   UNL     1       8.880   5.037  -5.004  0.00  0.00    -0.012 A 
ATOM      8  C   UNL     1       9.079   4.138  -6.034  0.00  0.00    +0.115 A 
ATOM      9  N   UNL     1      10.095   3.297  -6.008  0.00  0.00    -0.263 NA
ATOM     10  C   UNL     1      10.954   3.278  -5.009  0.00  0.00    +0.111 A 
ATOM     11  C   UNL     1      10.819   4.149  -3.943  0.00  0.00    +0.020 A 
ATOM     12  C   UNL     1       9.767   5.051  -3.938  0.00  0.00    +0.008 A 
ENDBRANCH   3   7
TORSDOF 1
ENDMDL
