MODEL 1
REMARK VINA RESULT:    -3.574      0.000      0.000
REMARK INTER + INTRA:          -3.996
REMARK INTER:                  -3.783
REMARK INTRA:                  -0.213
REMARK UNBOUND:                -0.213
REMARK  Name = Nicotine.pdb
REMARK  2 active torsions:
REMARK  status: ('A' for Active; 'I' for Inactive)
REMARK    1  A    between atoms: C_3  and  C_6
REMARK    2  A    between atoms: N_4  and  C_12
REMARK                            x       y       z     vdW  Elec       q    Type
REMARK                         _______ _______ _______ _____ _____    ______ ____
ROOT
ATOM      1  C   UNL     1       3.994   5.835   4.718  0.00  0.00    +0.017 C 
ATOM      2  C   UNL     1       5.328   5.466   4.017  0.00  0.00    +0.025 C 
ATOM      3  C   UNL     1       5.769   4.187   4.760  0.00  0.00    +0.088 C 
ATOM      4  N   UNL     1       5.097   4.191   6.072  0.00  0.00    -0.298 NA
ATOM      5  C   UNL     1       4.285   5.422   6.182  0.00  0.00    +0.085 C 
ATOM      6  C   UNL     1       4.264   2.993   6.241  0.00  0.00    +0.105 C 
ENDROOT
BRANCH   3   7
ATOM      7  C   UNL     1       7.263   4.192   4.948  0.00  0.00    -0.012 A 
ATOM      8  C   UNL     1       7.942   5.383   5.126  0.00  0.00    +0.115 A 
ATOM      9  N   UNL     1       9.250   5.397   5.291  0.00  0.00    -0.263 NA
ATOM     10  C   UNL     1       9.960   4.286   5.293  0.00  0.00    +0.111 A 
ATOM     11  C   UNL     1       9.350   3.057   5.121  0.00  0.00    +0.020 A 
ATOM     12  C   UNL     1       7.976   3.003   4.950  0.00  0.00    +0.008 A 
ENDBRANCH   3   7
TORSDOF 1
ENDMDL
MODEL 2
REMARK VINA RESULT:    -3.415      1.564      2.077
REMARK INTER + INTRA:          -3.828
REMARK INTER:                  -3.609
REMARK INTRA:                  -0.219
REMARK UNBOUND:                -0.213
REMARK  Name = Nicotine.pdb
REMARK  2 active torsions:
REMARK  status: ('A' for Active; 'I' for Inactive)
REMARK    1  A    between atoms: C_3  and  C_6
REMARK    2  A    between atoms: N_4  and  C_12
REMARK                            x       y       z     vdW  Elec       q    Type
REMARK                         _______ _______ _______ _____ _____    ______ ____
ROOT
ATOM      1  C   UNL     1       4.989   5.124   3.989  0.00  0.00    +0.017 C 
ATOM      2  C   UNL     1       5.972   4.031   4.484  0.00  0.00    +0.025 C 
ATOM      3  C   UNL     1       6.879   4.800   5.468  0.00  0.00    +0.088 C 
ATOM      4  N   UNL     1       6.798   6.228   5.111  0.00  0.00    -0.298 NA
ATOM      5  C   UNL     1       5.906   6.371   3.941  0.00  0.00    +0.085 C 
ATOM      6  C   UNL     1       6.315   7.028   6.244  0.00  0.00    +0.105 C 
ENDROOT
BRANCH   3   7
ATOM      7  C   UNL     1       8.300   4.318   5.338  0.00  0.00    -0.012 A 
ATOM      8  C   UNL     1       9.346   5.221   5.315  0.00  0.00    +0.115 A 
ATOM      9  N   UNL     1      10.593   4.807   5.202  0.00  0.00    -0.263 NA
ATOM     10  C   UNL     1      10.892   3.526   5.108  0.00  0.00    +0.111 A 
ATOM     11  C   UNL     1       9.899   2.565   5.125  0.00  0.00    +0.020 A 
ATOM     12  C   UNL     1       8.577   2.962   5.248  0.00  0.00    +0.008 A 
ENDBRANCH   3   7
TORSDOF 1
ENDMDL
MODEL 3
REMARK VINA RESULT:    -3.318     11.657     12.527
REMARK INTER + INTRA:          -3.725
REMARK INTER:                  -3.503
REMARK INTRA:                  -0.222
REMARK UNBOUND:                -0.213
REMARK  Name = Nicotine.pdb
REMARK  2 active torsions:
REMARK  status: ('A' for Active; 'I' for Inactive)
REMARK    1  A    between atoms: C_3  and  C_6
REMARK    2  A    between atoms: N_4  and  C_12
REMARK                            x       y       z     vdW  Elec       q    Type
REMARK                         _______ _______ _______ _____ _____    ______ ____
ROOT
ATOM      1  C   UNL     1      10.609  -2.944  -3.232  0.00  0.00    +0.017 C 
ATOM      2  C   UNL     1      10.466  -3.889  -2.010  0.00  0.00    +0.025 C 
ATOM      3  C   UNL     1       9.489  -4.969  -2.520  0.00  0.00    +0.088 C 
ATOM      4  N   UNL     1       8.733  -4.381  -3.640  0.00  0.00    -0.298 NA
ATOM      5  C   UNL     1       9.180  -2.984  -3.828  0.00  0.00    +0.085 C 
ATOM      6  C   UNL     1       8.918  -5.163  -4.869  0.00  0.00    +0.105 C 
ENDROOT
BRANCH   3   7
ATOM      7  C   UNL     1       8.544  -5.367  -1.416  0.00  0.00    -0.012 A 
ATOM      8  C   UNL     1       7.179  -5.368  -1.630  0.00  0.00    +0.115 A 
ATOM      9  N   UNL     1       6.345  -5.716  -0.669  0.00  0.00    -0.263 NA
ATOM     10  C   UNL     1       6.774  -6.073   0.525  0.00  0.00    +0.111 A 
ATOM     11  C   UNL     1       8.126  -6.097   0.813  0.00  0.00    +0.020 A 
ATOM     12  C   UNL     1       9.033  -5.743  -0.174  0.00  0.00    +0.008 A 
ENDBRANCH   3   7
TORSDOF 1
ENDMDL
MODEL 4
REMARK VINA RESULT:    -3.117      1.344      4.546
REMARK INTER + INTRA:          -3.512
REMARK INTER:                  -3.297
REMARK INTRA:                  -0.215
REMARK UNBOUND:                -0.213
REMARK  Name = Nicotine.pdb
REMARK  2 active torsions:
REMARK  status: ('A' for Active; 'I' for Inactive)
REMARK    1  A    between atoms: C_3  and  C_6
REMARK    2  A    between atoms: N_4  and  C_12
REMARK                            x       y       z     vdW  Elec       q    Type
REMARK                         _______ _______ _______ _____ _____    ______ ____
ROOT
ATOM      1  C   UNL     1       9.303   2.976   5.242  0.00  0.00    +0.017 C 
ATOM      2  C   UNL     1       7.886   3.322   4.712  0.00  0.00    +0.025 C 
ATOM      3  C   UNL     1       7.897   4.865   4.673  0.00  0.00    +0.088 C 
ATOM      4  N   UNL     1       8.939   5.318   5.611  0.00  0.00    -0.298 NA
ATOM      5  C   UNL     1       9.552   4.131   6.244  0.00  0.00    +0.085 C 
ATOM      6  C   UNL     1       9.951   6.130   4.922  0.00  0.00    +0.105 C 
ENDROOT
BRANCH   3   7
ATOM      7  C   UNL     1       6.554   5.398   5.100  0.00  0.00    -0.012 A 
ATOM      8  C   UNL     1       6.468   6.548   5.862  0.00  0.00    +0.115 A 
ATOM      9  N   UNL     1       5.297   7.021   6.240  0.00  0.00    -0.263 NA
ATOM     10  C   UNL     1       4.169   6.424   5.910  0.00  0.00    +0.111 A 
ATOM     11  C   UNL     1       4.176   5.270   5.149  0.00  0.00    +0.020 A 
ATOM     12  C   UNL     1       5.388   4.746   4.729  0.00  0.00    +0.008 A 
ENDBRANCH   3   7
TORSDOF 1
ENDMDL
MODEL 5
REMARK VINA RESULT:    -2.921     12.110     13.267
REMARK INTER + INTRA:          -3.305
REMARK INTER:                  -3.099
REMARK INTRA:                  -0.206
REMARK UNBOUND:                -0.213
REMARK  Name = Nicotine.pdb
REMARK  2 active torsions:
REMARK  status: ('A' for Active; 'I' for Inactive)
REMARK    1  A    between atoms: C_3  and  C_6
REMARK    2  A    between atoms: N_4  and  C_12
REMARK                            x       y       z     vdW  Elec       q    Type
REMARK                         _______ _______ _______ _____ _____    ______ ____
ROOT
ATOM      1  C   UNL     1      10.914  -4.745  -1.618  0.00  0.00    +0.017 C 
ATOM      2  C   UNL     1      10.518  -3.493  -2.446  0.00  0.00    +0.025 C 
ATOM      3  C   UNL     1       9.117  -3.859  -2.981  0.00  0.00    +0.088 C 
ATOM      4  N   UNL     1       9.011  -5.329  -2.957  0.00  0.00    -0.298 NA
ATOM      5  C   UNL     1      10.286  -5.886  -2.458  0.00  0.00    +0.085 C 
ATOM      6  C   UNL     1       7.884  -5.763  -2.121  0.00  0.00    +0.105 C 
ENDROOT
BRANCH   3   7
ATOM      7  C   UNL     1       8.960  -3.355  -4.392  0.00  0.00    -0.012 A 
ATOM      8  C   UNL     1       8.966  -4.239  -5.454  0.00  0.00    +0.115 A 
ATOM      9  N   UNL     1       8.828  -3.806  -6.693  0.00  0.00    -0.263 NA
ATOM     10  C   UNL     1       8.681  -2.525  -6.966  0.00  0.00    +0.111 A 
ATOM     11  C   UNL     1       8.665  -1.582  -5.955  0.00  0.00    +0.020 A 
ATOM     12  C   UNL     1       8.801  -2.000  -4.640  0.00  0.00    +0.008 A 
ENDBRANCH   3   7
TORSDOF 1
ENDMDL
MODEL 6
REMARK VINA RESULT:    -2.829     11.827     12.626
REMARK INTER + INTRA:          -3.207
REMARK INTER:                  -3.001
REMARK INTRA:                  -0.207
REMARK UNBOUND:                -0.213
REMARK  Name = Nicotine.pdb
REMARK  2 active torsions:
REMARK  status: ('A' for Active; 'I' for Inactive)
REMARK    1  A    between atoms: C_3  and  C_6
REMARK    2  A    between atoms: N_4  and  C_12
REMARK                            x       y       z     vdW  Elec       q    Type
REMARK                         _______ _______ _______ _____ _____    ______ ____
ROOT
ATOM      1  C   UNL     1       8.430  -5.932  -3.225  0.00  0.00    +0.017 C 
ATOM      2  C   UNL     1       8.975  -5.087  -4.407  0.00  0.00    +0.025 C 
ATOM      3  C   UNL     1       9.910  -4.077  -3.709  0.00  0.00    +0.088 C 
ATOM      4  N   UNL     1       9.480  -3.982  -2.302  0.00  0.00    -0.298 NA
ATOM      5  C   UNL     1       8.310  -4.865  -2.107  0.00  0.00    +0.085 C 
ATOM      6  C   UNL     1      10.572  -4.346  -1.391  0.00  0.00    +0.105 C 
ENDROOT
BRANCH   3   7
ATOM      7  C   UNL     1       9.797  -2.729  -4.373  0.00  0.00    -0.012 A 
ATOM      8  C   UNL     1       8.563  -2.245  -4.764  0.00  0.00    +0.115 A 
ATOM      9  N   UNL     1       8.454  -1.066  -5.346  0.00  0.00    -0.263 NA
ATOM     10  C   UNL     1       9.508  -0.308  -5.578  0.00  0.00    +0.111 A 
ATOM     11  C   UNL     1      10.774  -0.726  -5.214  0.00  0.00    +0.020 A 
ATOM     12  C   UNL     1      10.927  -1.957  -4.595  0.00  0.00    +0.008 A 
ENDBRANCH   3   7
TORSDOF 1
ENDMDL
MODEL 7
REMARK VINA RESULT:    -2.801     11.739     12.905
REMARK INTER + INTRA:          -3.178
REMARK INTER:                  -3.008
REMARK INTRA:                  -0.170
REMARK UNBOUND:                -0.213
REMARK  Name = Nicotine.pdb
REMARK  2 active torsions:
REMARK  status: ('A' for Active; 'I' for Inactive)
REMARK    1  A    between atoms: C_3  and  C_6
REMARK    2  A    between atoms: N_4  and  C_12
REMARK                            x       y       z     vdW  Elec       q    Type
REMARK                         _______ _______ _______ _____ _____    ______ ____
ROOT
ATOM      1  C   UNL     1       9.058  -3.411  -4.419  0.00  0.00    +0.017 C 
ATOM      2  C   UNL     1       8.498  -2.012  -4.785  0.00  0.00    +0.025 C 
ATOM      3  C   UNL     1       9.403  -1.570  -5.955  0.00  0.00    +0.088 C 
ATOM      4  N   UNL     1      10.655  -2.340  -5.853  0.00  0.00    -0.298 NA
ATOM      5  C   UNL     1      10.575  -3.215  -4.663  0.00  0.00    +0.085 C 
ATOM      6  C   UNL     1      10.891  -3.127  -7.070  0.00  0.00    +0.105 C 
ENDROOT
BRANCH   3   7
ATOM      7  C   UNL     1       9.695  -0.096  -5.849  0.00  0.00    -0.012 A 
ATOM      8  C   UNL     1      10.691   0.360  -5.005  0.00  0.00    +0.115 A 
ATOM      9  N   UNL     1      10.953   1.649  -4.906  0.00  0.00    -0.263 NA
ATOM     10  C   UNL     1      10.284   2.547  -5.601  0.00  0.00    +0.111 A 
ATOM     11  C   UNL     1       9.275   2.166  -6.466  0.00  0.00    +0.020 A 
ATOM     12  C   UNL     1       8.974   0.820  -6.600  0.00  0.00    +0.008 A 
ENDBRANCH   3   7
TORSDOF 1
ENDMDL
MODEL 8
REMARK VINA RESULT:    -2.782     11.702     12.628
REMARK INTER + INTRA:          -3.158
REMARK INTER:                  -2.952
REMARK INTRA:                  -0.207
REMARK UNBOUND:                -0.213
REMARK  Name = Nicotine.pdb
REMARK  2 active torsions:
REMARK  status: ('A' for Active; 'I' for Inactive)
REMARK    1  A    between atoms: C_3  and  C_6
REMARK    2  A    between atoms: N_4  and  C_12
REMARK                            x       y       z     vdW  Elec       q    Type
REMARK                         _______ _______ _______ _____ _____    ______ ____
ROOT
ATOM      1  C   UNL     1      10.508  -2.134  -4.112  0.00  0.00    +0.017 C 
ATOM      2  C   UNL     1      10.659  -3.090  -2.899  0.00  0.00    +0.025 C 
ATOM      3  C   UNL     1       9.841  -4.327  -3.329  0.00  0.00    +0.088 C 
ATOM      4  N   UNL     1       8.885  -3.882  -4.358  0.00  0.00    -0.298 NA
ATOM      5  C   UNL     1       9.056  -2.428  -4.564  0.00  0.00    +0.085 C 
ATOM      6  C   UNL     1       9.080  -4.619  -5.613  0.00  0.00    +0.105 C 
ENDROOT
BRANCH   3   7
ATOM      7  C   UNL     1       9.099  -4.887  -2.144  0.00  0.00    -0.012 A 
ATOM      8  C   UNL     1       9.771  -5.603  -1.172  0.00  0.00    +0.115 A 
ATOM      9  N   UNL     1       9.129  -6.097  -0.132  0.00  0.00    -0.263 NA
ATOM     10  C   UNL     1       7.830  -5.931   0.024  0.00  0.00    +0.111 A 
ATOM     11  C   UNL     1       7.091  -5.226  -0.908  0.00  0.00    +0.020 A 
ATOM     12  C   UNL     1       7.733  -4.687  -2.012  0.00  0.00    +0.008 A 
ENDBRANCH   3   7
TORSDOF 1
ENDMDL
MODEL 9
REMARK VINA RESULT:    -2.779      1.774      4.376
REMARK INTER + INTRA:          -3.155
REMARK INTER:                  -2.968
REMARK INTRA:                  -0.186
REMARK UNBOUND:                -0.213
REMARK  Name = Nicotine.pdb
REMARK  2 active torsions:
REMARK  status: ('A' for Active; 'I' for Inactive)
REMARK    1  A    between atoms: C_3  and  C_6
REMARK    2  A    between atoms: N_4  and  C_12
REMARK                            x       y       z     vdW  Elec       q    Type
REMARK                         _______ _______ _______ _____ _____    ______ ____
ROOT
ATOM      1  C   UNL     1      10.930   3.789   5.672  0.00  0.00    +0.017 C 
ATOM      2  C   UNL     1       9.779   4.808   5.882  0.00  0.00    +0.025 C 
ATOM      3  C   UNL     1       8.530   3.906   5.979  0.00  0.00    +0.088 C 
ATOM      4  N   UNL     1       8.859   2.631   5.316  0.00  0.00    -0.298 NA
ATOM      5  C   UNL     1      10.240   2.714   4.794  0.00  0.00    +0.085 C 
ATOM      6  C   UNL     1       8.713   1.502   6.244  0.00  0.00    +0.105 C 
ENDROOT
BRANCH   3   7
ATOM      7  C   UNL     1       7.368   4.563   5.281  0.00  0.00    -0.012 A 
ATOM      8  C   UNL     1       7.275   5.941   5.223  0.00  0.00    +0.115 A 
ATOM      9  N   UNL     1       6.261   6.524   4.614  0.00  0.00    -0.263 NA
ATOM     10  C   UNL     1       5.302   5.825   4.040  0.00  0.00    +0.111 A 
ATOM     11  C   UNL     1       5.328   4.442   4.057  0.00  0.00    +0.020 A 
ATOM     12  C   UNL     1       6.381   3.794   4.683  0.00  0.00    +0.008 A 
ENDBRANCH   3   7
TORSDOF 1
ENDMDL
MODEL 10
REMARK VINA RESULT:    -2.762     11.708     12.639
REMARK INTER + INTRA:          -3.137
REMARK INTER:                  -2.948
REMARK INTRA:                  -0.189
REMARK UNBOUND:                -0.213
REMARK  Name = Nicotine.pdb
REMARK  2 active torsions:
REMARK  status: ('A' for Active; 'I' for Inactive)
REMARK    1  A    between atoms: C_3  and  C_6
REMARK    2  A    between atoms: N_4  and  C_12
REMARK                            x       y       z     vdW  Elec       q    Type
REMARK                         _______ _______ _______ _____ _____    ______ ____
ROOT
ATOM      1  C   UNL     1      10.498  -1.987  -4.348  0.00  0.00    +0.017 C 
ATOM      2  C   UNL     1      10.740  -2.918  -3.131  0.00  0.00    +0.025 C 
ATOM      3  C   UNL     1       9.972  -4.201  -3.516  0.00  0.00    +0.088 C 
ATOM      4  N   UNL     1       8.958  -3.819  -4.515  0.00  0.00    -0.298 NA
ATOM      5  C   UNL     1       9.047  -2.361  -4.744  0.00  0.00    +0.085 C 
ATOM      6  C   UNL     1       9.146  -4.561  -5.768  0.00  0.00    +0.105 C 
ENDROOT
BRANCH   3   7
ATOM      7  C   UNL     1       9.302  -4.783  -2.299  0.00  0.00    -0.012 A 
ATOM      8  C   UNL     1       7.968  -4.525  -2.045  0.00  0.00    +0.115 A 
ATOM      9  N   UNL     1       7.373  -5.030  -0.982  0.00  0.00    -0.263 NA
ATOM     10  C   UNL     1       8.020  -5.795  -0.125  0.00  0.00    +0.111 A 
ATOM     11  C   UNL     1       9.355  -6.097  -0.313  0.00  0.00    +0.020 A 
ATOM     12  C   UNL     1      10.013  -5.588  -1.422  0.00  0.00    +0.008 A 
ENDBRANCH   3   7
TORSDOF 1
ENDMDL
