MODEL 1
REMARK VINA RESULT:     7.283      0.000      0.000
REMARK INTER + INTRA:           7.490
REMARK INTER:                   7.709
REMARK INTRA:                  -0.219
REMARK UNBOUND:                -0.219
REMARK  Name = Nicotine.pdb
REMARK  2 active torsions:
REMARK  status: ('A' for Active; 'I' for Inactive)
REMARK    1  A    between atoms: C_3  and  C_6
REMARK    2  A    between atoms: N_4  and  C_12
REMARK                            x       y       z     vdW  Elec       q    Type
REMARK                         _______ _______ _______ _____ _____    ______ ____
ROOT
ATOM      1  C   UNL     1       2.017  -5.833  -6.961  0.00  0.00    +0.017 C 
ATOM      2  C   UNL     1       3.123  -4.891  -6.419  0.00  0.00    +0.025 C 
ATOM      3  C   UNL     1       2.633  -4.564  -4.992  0.00  0.00    +0.088 C 
ATOM      4  N   UNL     1       1.178  -4.800  -4.966  0.00  0.00    -0.298 NA
ATOM      5  C   UNL     1       0.746  -5.230  -6.313  0.00  0.00    +0.085 C 
ATOM      6  C   UNL     1       0.824  -5.803  -3.953  0.00  0.00    +0.105 C 
ENDROOT
BRANCH   3   7
ATOM      7  C   UNL     1       2.926  -3.123  -4.666  0.00  0.00    -0.012 A 
ATOM      8  C   UNL     1       1.893  -2.232  -4.443  0.00  0.00    +0.115 A 
ATOM      9  N   UNL     1       2.142  -0.969  -4.157  0.00  0.00    -0.263 NA
ATOM     10  C   UNL     1       3.373  -0.507  -4.073  0.00  0.00    +0.111 A 
ATOM     11  C   UNL     1       4.457  -1.339  -4.283  0.00  0.00    +0.020 A 
ATOM     12  C   UNL     1       4.235  -2.674  -4.580  0.00  0.00    +0.008 A 
ENDBRANCH   3   7
TORSDOF 1
ENDMDL
MODEL 2
REMARK VINA RESULT:     8.185      1.293      4.666
REMARK INTER + INTRA:           8.445
REMARK INTER:                   8.669
REMARK INTRA:                  -0.224
REMARK UNBOUND:                -0.219
REMARK  Name = Nicotine.pdb
REMARK  2 active torsions:
REMARK  status: ('A' for Active; 'I' for Inactive)
REMARK    1  A    between atoms: C_3  and  C_6
REMARK    2  A    between atoms: N_4  and  C_12
REMARK                            x       y       z     vdW  Elec       q    Type
REMARK                         _______ _______ _______ _____ _____    ______ ____
ROOT
ATOM      1  C   UNL     1       2.887  -0.642  -2.642  0.00  0.00    +0.017 C 
ATOM      2  C   UNL     1       2.489  -2.133  -2.481  0.00  0.00    +0.025 C 
ATOM      3  C   UNL     1       3.187  -2.810  -3.680  0.00  0.00    +0.088 C 
ATOM      4  N   UNL     1       3.430  -1.765  -4.691  0.00  0.00    -0.298 NA
ATOM      5  C   UNL     1       2.894  -0.484  -4.183  0.00  0.00    +0.085 C 
ATOM      6  C   UNL     1       4.862  -1.652  -4.998  0.00  0.00    +0.105 C 
ENDROOT
BRANCH   3   7
ATOM      7  C   UNL     1       2.297  -3.882  -4.253  0.00  0.00    -0.012 A 
ATOM      8  C   UNL     1       1.941  -3.855  -5.588  0.00  0.00    +0.115 A 
ATOM      9  N   UNL     1       1.162  -4.789  -6.098  0.00  0.00    -0.263 NA
ATOM     10  C   UNL     1       0.695  -5.779  -5.363  0.00  0.00    +0.111 A 
ATOM     11  C   UNL     1       1.009  -5.873  -4.020  0.00  0.00    +0.020 A 
ATOM     12  C   UNL     1       1.830  -4.911  -3.450  0.00  0.00    +0.008 A 
ENDBRANCH   3   7
TORSDOF 1
ENDMDL
MODEL 3
REMARK VINA RESULT:     8.475      1.178      4.464
REMARK INTER + INTRA:           8.752
REMARK INTER:                   8.950
REMARK INTRA:                  -0.198
REMARK UNBOUND:                -0.219
REMARK  Name = Nicotine.pdb
REMARK  2 active torsions:
REMARK  status: ('A' for Active; 'I' for Inactive)
REMARK    1  A    between atoms: C_3  and  C_6
REMARK    2  A    between atoms: N_4  and  C_12
REMARK                            x       y       z     vdW  Elec       q    Type
REMARK                         _______ _______ _______ _____ _____    ______ ____
ROOT
ATOM      1  C   UNL     1       4.729  -1.023  -4.113  0.00  0.00    +0.017 C 
ATOM      2  C   UNL     1       4.278  -2.276  -4.910  0.00  0.00    +0.025 C 
ATOM      3  C   UNL     1       2.740  -2.144  -4.922  0.00  0.00    +0.088 C 
ATOM      4  N   UNL     1       2.367  -1.281  -3.787  0.00  0.00    -0.298 NA
ATOM      5  C   UNL     1       3.597  -0.896  -3.063  0.00  0.00    +0.085 C 
ATOM      6  C   UNL     1       1.633  -0.095  -4.246  0.00  0.00    +0.105 C 
ENDROOT
BRANCH   3   7
ATOM      7  C   UNL     1       2.108  -3.503  -4.764  0.00  0.00    -0.012 A 
ATOM      8  C   UNL     1       1.484  -4.112  -5.836  0.00  0.00    +0.115 A 
ATOM      9  N   UNL     1       0.928  -5.301  -5.706  0.00  0.00    -0.263 NA
ATOM     10  C   UNL     1       0.944  -5.952  -4.560  0.00  0.00    +0.111 A 
ATOM     11  C   UNL     1       1.551  -5.406  -3.444  0.00  0.00    +0.020 A 
ATOM     12  C   UNL     1       2.150  -4.160  -3.544  0.00  0.00    +0.008 A 
ENDBRANCH   3   7
TORSDOF 1
ENDMDL
