MODEL 1
REMARK VINA RESULT:    -2.412      0.000      0.000
REMARK INTER + INTRA:          -2.809
REMARK INTER:                  -2.553
REMARK INTRA:                  -0.256
REMARK UNBOUND:                -0.256
REMARK  Name = Nicotine.pdb
REMARK  2 active torsions:
REMARK  status: ('A' for Active; 'I' for Inactive)
REMARK    1  A    between atoms: C_3  and  C_6
REMARK    2  A    between atoms: N_4  and  C_12
REMARK                            x       y       z     vdW  Elec       q    Type
REMARK                         _______ _______ _______ _____ _____    ______ ____
ROOT
ATOM      1  C   UNL     1      10.833  -5.985   3.834  0.00  0.00    +0.017 C 
ATOM      2  C   UNL     1      10.671  -5.049   5.060  0.00  0.00    +0.025 C 
ATOM      3  C   UNL     1       9.154  -4.769   5.085  0.00  0.00    +0.088 C 
ATOM      4  N   UNL     1       8.642  -5.017   3.725  0.00  0.00    -0.298 NA
ATOM      5  C   UNL     1       9.774  -5.412   2.860  0.00  0.00    +0.085 C 
ATOM      6  C   UNL     1       7.600  -6.052   3.735  0.00  0.00    +0.105 C 
ENDROOT
BRANCH   3   7
ATOM      7  C   UNL     1       8.904  -3.335   5.474  0.00  0.00    -0.012 A 
ATOM      8  C   UNL     1       7.652  -2.934   5.901  0.00  0.00    +0.115 A 
ATOM      9  N   UNL     1       7.425  -1.681   6.244  0.00  0.00    -0.263 NA
ATOM     10  C   UNL     1       8.373  -0.767   6.195  0.00  0.00    +0.111 A 
ATOM     11  C   UNL     1       9.650  -1.093   5.779  0.00  0.00    +0.020 A 
ATOM     12  C   UNL     1       9.928  -2.402   5.415  0.00  0.00    +0.008 A 
ENDBRANCH   3   7
TORSDOF 1
ENDMDL
MODEL 2
REMARK VINA RESULT:    -2.086      1.318      1.855
REMARK INTER + INTRA:          -2.464
REMARK INTER:                  -2.265
REMARK INTRA:                  -0.199
REMARK UNBOUND:                -0.256
REMARK  Name = Nicotine.pdb
REMARK  2 active torsions:
REMARK  status: ('A' for Active; 'I' for Inactive)
REMARK    1  A    between atoms: C_3  and  C_6
REMARK    2  A    between atoms: N_4  and  C_12
REMARK                            x       y       z     vdW  Elec       q    Type
REMARK                         _______ _______ _______ _____ _____    ______ ____
ROOT
ATOM      1  C   UNL     1       9.215  -6.097   3.616  0.00  0.00    +0.017 C 
ATOM      2  C   UNL     1       9.955  -4.962   4.372  0.00  0.00    +0.025 C 
ATOM      3  C   UNL     1       8.998  -4.642   5.540  0.00  0.00    +0.088 C 
ATOM      4  N   UNL     1       7.656  -5.104   5.145  0.00  0.00    -0.298 NA
ATOM      5  C   UNL     1       7.735  -5.669   3.781  0.00  0.00    +0.085 C 
ATOM      6  C   UNL     1       7.137  -6.095   6.097  0.00  0.00    +0.105 C 
ENDROOT
BRANCH   3   7
ATOM      7  C   UNL     1       8.977  -3.157   5.793  0.00  0.00    -0.012 A 
ATOM      8  C   UNL     1      10.156  -2.436   5.826  0.00  0.00    +0.115 A 
ATOM      9  N   UNL     1      10.147  -1.136   6.046  0.00  0.00    -0.263 NA
ATOM     10  C   UNL     1       9.023  -0.475   6.244  0.00  0.00    +0.111 A 
ATOM     11  C   UNL     1       7.805  -1.128   6.225  0.00  0.00    +0.020 A 
ATOM     12  C   UNL     1       7.775  -2.495   5.991  0.00  0.00    +0.008 A 
ENDBRANCH   3   7
TORSDOF 1
ENDMDL
MODEL 3
REMARK VINA RESULT:    -1.807      1.689      2.224
REMARK INTER + INTRA:          -2.168
REMARK INTER:                  -1.954
REMARK INTRA:                  -0.214
REMARK UNBOUND:                -0.256
REMARK  Name = Nicotine.pdb
REMARK  2 active torsions:
REMARK  status: ('A' for Active; 'I' for Inactive)
REMARK    1  A    between atoms: C_3  and  C_6
REMARK    2  A    between atoms: N_4  and  C_12
REMARK                            x       y       z     vdW  Elec       q    Type
REMARK                         _______ _______ _______ _____ _____    ______ ____
ROOT
ATOM      1  C   UNL     1       9.665  -5.876   6.133  0.00  0.00    +0.017 C 
ATOM      2  C   UNL     1       8.961  -4.498   6.243  0.00  0.00    +0.025 C 
ATOM      3  C   UNL     1       9.197  -3.875   4.851  0.00  0.00    +0.088 C 
ATOM      4  N   UNL     1      10.370  -4.547   4.265  0.00  0.00    -0.298 NA
ATOM      5  C   UNL     1      10.883  -5.534   5.239  0.00  0.00    +0.085 C 
ATOM      6  C   UNL     1      10.027  -5.192   2.991  0.00  0.00    +0.105 C 
ENDROOT
BRANCH   3   7
ATOM      7  C   UNL     1       9.465  -2.399   4.988  0.00  0.00    -0.012 A 
ATOM      8  C   UNL     1      10.093  -1.904   6.115  0.00  0.00    +0.115 A 
ATOM      9  N   UNL     1      10.332  -0.614   6.244  0.00  0.00    -0.263 NA
ATOM     10  C   UNL     1       9.984   0.251   5.312  0.00  0.00    +0.111 A 
ATOM     11  C   UNL     1       9.352  -0.169   4.156  0.00  0.00    +0.020 A 
ATOM     12  C   UNL     1       9.089  -1.519   3.984  0.00  0.00    +0.008 A 
ENDBRANCH   3   7
TORSDOF 1
ENDMDL
MODEL 4
REMARK VINA RESULT:    -1.711      1.542      4.489
REMARK INTER + INTRA:          -2.067
REMARK INTER:                  -1.882
REMARK INTRA:                  -0.185
REMARK UNBOUND:                -0.256
REMARK  Name = Nicotine.pdb
REMARK  2 active torsions:
REMARK  status: ('A' for Active; 'I' for Inactive)
REMARK    1  A    between atoms: C_3  and  C_6
REMARK    2  A    between atoms: N_4  and  C_12
REMARK                            x       y       z     vdW  Elec       q    Type
REMARK                         _______ _______ _______ _____ _____    ______ ____
ROOT
ATOM      1  C   UNL     1       9.545   0.090   4.822  0.00  0.00    +0.017 C 
ATOM      2  C   UNL     1       9.818  -1.195   3.996  0.00  0.00    +0.025 C 
ATOM      3  C   UNL     1       8.899  -2.239   4.665  0.00  0.00    +0.088 C 
ATOM      4  N   UNL     1       8.618  -1.763   6.031  0.00  0.00    -0.298 NA
ATOM      5  C   UNL     1       9.340  -0.490   6.244  0.00  0.00    +0.085 C 
ATOM      6  C   UNL     1       7.175  -1.592   6.244  0.00  0.00    +0.105 C 
ENDROOT
BRANCH   3   7
ATOM      7  C   UNL     1       9.594  -3.574   4.718  0.00  0.00    -0.012 A 
ATOM      8  C   UNL     1      10.274  -3.964   5.857  0.00  0.00    +0.115 A 
ATOM      9  N   UNL     1      10.885  -5.131   5.912  0.00  0.00    -0.263 NA
ATOM     10  C   UNL     1      10.875  -5.967   4.894  0.00  0.00    +0.111 A 
ATOM     11  C   UNL     1      10.216  -5.647   3.721  0.00  0.00    +0.020 A 
ATOM     12  C   UNL     1       9.557  -4.431   3.628  0.00  0.00    +0.008 A 
ENDBRANCH   3   7
TORSDOF 1
ENDMDL
MODEL 5
REMARK VINA RESULT:    -0.350      1.302      4.719
REMARK INTER + INTRA:          -0.626
REMARK INTER:                  -0.411
REMARK INTRA:                  -0.215
REMARK UNBOUND:                -0.256
REMARK  Name = Nicotine.pdb
REMARK  2 active torsions:
REMARK  status: ('A' for Active; 'I' for Inactive)
REMARK    1  A    between atoms: C_3  and  C_6
REMARK    2  A    between atoms: N_4  and  C_12
REMARK                            x       y       z     vdW  Elec       q    Type
REMARK                         _______ _______ _______ _____ _____    ______ ____
ROOT
ATOM      1  C   UNL     1       7.722  -0.584   6.172  0.00  0.00    +0.017 C 
ATOM      2  C   UNL     1       7.577  -2.127   6.242  0.00  0.00    +0.025 C 
ATOM      3  C   UNL     1       9.031  -2.620   6.082  0.00  0.00    +0.088 C 
ATOM      4  N   UNL     1       9.786  -1.543   5.415  0.00  0.00    -0.298 NA
ATOM      5  C   UNL     1       8.862  -0.424   5.135  0.00  0.00    +0.085 C 
ATOM      6  C   UNL     1      10.915  -1.100   6.243  0.00  0.00    +0.105 C 
ENDROOT
BRANCH   3   7
ATOM      7  C   UNL     1       9.060  -3.867   5.237  0.00  0.00    -0.012 A 
ATOM      8  C   UNL     1      10.166  -4.161   4.462  0.00  0.00    +0.115 A 
ATOM      9  N   UNL     1      10.199  -5.251   3.720  0.00  0.00    -0.263 NA
ATOM     10  C   UNL     1       9.189  -6.097   3.685  0.00  0.00    +0.111 A 
ATOM     11  C   UNL     1       8.049  -5.869   4.434  0.00  0.00    +0.020 A 
ATOM     12  C   UNL     1       7.980  -4.737   5.231  0.00  0.00    +0.008 A 
ENDBRANCH   3   7
TORSDOF 1
ENDMDL
