MODEL 1
REMARK VINA RESULT:    13.473      0.000      0.000
REMARK INTER + INTRA:          14.075
REMARK INTER:                  14.261
REMARK INTRA:                  -0.186
REMARK UNBOUND:                -0.186
REMARK  Name = Nicotine.pdb
REMARK  2 active torsions:
REMARK  status: ('A' for Active; 'I' for Inactive)
REMARK    1  A    between atoms: C_3  and  C_6
REMARK    2  A    between atoms: N_4  and  C_12
REMARK                            x       y       z     vdW  Elec       q    Type
REMARK                         _______ _______ _______ _____ _____    ______ ____
ROOT
ATOM      1  C   UNL     1      -4.828   4.398  -5.368  0.00  0.00    +0.017 C 
ATOM      2  C   UNL     1      -3.490   4.933  -4.793  0.00  0.00    +0.025 C 
ATOM      3  C   UNL     1      -3.169   6.127  -5.717  0.00  0.00    +0.088 C 
ATOM      4  N   UNL     1      -3.898   5.911  -6.979  0.00  0.00    -0.298 NA
ATOM      5  C   UNL     1      -4.631   4.631  -6.887  0.00  0.00    +0.085 C 
ATOM      6  C   UNL     1      -4.814   7.025  -7.256  0.00  0.00    +0.105 C 
ENDROOT
BRANCH   3   7
ATOM      7  C   UNL     1      -1.687   6.185  -5.982  0.00  0.00    -0.012 A 
ATOM      8  C   UNL     1      -0.803   5.508  -5.164  0.00  0.00    +0.115 A 
ATOM      9  N   UNL     1       0.496   5.553  -5.389  0.00  0.00    -0.263 NA
ATOM     10  C   UNL     1       1.001   6.241  -6.395  0.00  0.00    +0.111 A 
ATOM     11  C   UNL     1       0.179   6.943  -7.255  0.00  0.00    +0.020 A 
ATOM     12  C   UNL     1      -1.193   6.915  -7.053  0.00  0.00    +0.008 A 
ENDBRANCH   3   7
TORSDOF 1
ENDMDL
