MODEL 1
REMARK VINA RESULT:    -2.181      0.000      0.000
REMARK INTER + INTRA:          -2.522
REMARK INTER:                  -2.309
REMARK INTRA:                  -0.213
REMARK UNBOUND:                -0.213
REMARK  Name = Nicotine.pdb
REMARK  2 active torsions:
REMARK  status: ('A' for Active; 'I' for Inactive)
REMARK    1  A    between atoms: C_3  and  C_6
REMARK    2  A    between atoms: N_4  and  C_12
REMARK                            x       y       z     vdW  Elec       q    Type
REMARK                         _______ _______ _______ _____ _____    ______ ____
ROOT
ATOM      1  C   UNL     1       6.889   4.514   6.232  0.00  0.00    +0.017 C 
ATOM      2  C   UNL     1       8.191   5.280   5.878  0.00  0.00    +0.025 C 
ATOM      3  C   UNL     1       7.714   6.312   4.834  0.00  0.00    +0.088 C 
ATOM      4  N   UNL     1       6.463   5.795   4.249  0.00  0.00    -0.298 NA
ATOM      5  C   UNL     1       6.161   4.485   4.864  0.00  0.00    +0.085 C 
ATOM      6  C   UNL     1       5.357   6.740   4.452  0.00  0.00    +0.105 C 
ENDROOT
BRANCH   3   7
ATOM      7  C   UNL     1       8.756   6.472   3.758  0.00  0.00    -0.012 A 
ATOM      8  C   UNL     1      10.035   6.885   4.080  0.00  0.00    +0.115 A 
ATOM      9  N   UNL     1      10.954   7.027   3.144  0.00  0.00    -0.263 NA
ATOM     10  C   UNL     1      10.693   6.785   1.875  0.00  0.00    +0.111 A 
ATOM     11  C   UNL     1       9.437   6.368   1.477  0.00  0.00    +0.020 A 
ATOM     12  C   UNL     1       8.447   6.201   2.434  0.00  0.00    +0.008 A 
ENDBRANCH   3   7
TORSDOF 1
ENDMDL
