MODEL 1
REMARK VINA RESULT:     7.094      0.000      0.000
REMARK INTER + INTRA:           7.299
REMARK INTER:                   7.509
REMARK INTRA:                  -0.210
REMARK UNBOUND:                -0.210
REMARK  Name = Nicotine.pdb
REMARK  2 active torsions:
REMARK  status: ('A' for Active; 'I' for Inactive)
REMARK    1  A    between atoms: C_3  and  C_6
REMARK    2  A    between atoms: N_4  and  C_12
REMARK                            x       y       z     vdW  Elec       q    Type
REMARK                         _______ _______ _______ _____ _____    ______ ____
ROOT
ATOM      1  C   UNL     1       4.667  -0.555  -5.250  0.00  0.00    +0.017 C 
ATOM      2  C   UNL     1       5.782   0.061  -6.136  0.00  0.00    +0.025 C 
ATOM      3  C   UNL     1       6.730  -1.133  -6.380  0.00  0.00    +0.088 C 
ATOM      4  N   UNL     1       6.497  -2.105  -5.296  0.00  0.00    -0.298 NA
ATOM      5  C   UNL     1       5.471  -1.556  -4.384  0.00  0.00    +0.085 C 
ATOM      6  C   UNL     1       6.081  -3.406  -5.835  0.00  0.00    +0.105 C 
ENDROOT
BRANCH   3   7
ATOM      7  C   UNL     1       8.162  -0.665  -6.352  0.00  0.00    -0.012 A 
ATOM      8  C   UNL     1       8.565   0.299  -5.447  0.00  0.00    +0.115 A 
ATOM      9  N   UNL     1       9.816   0.714  -5.416  0.00  0.00    -0.263 NA
ATOM     10  C   UNL     1      10.727   0.232  -6.238  0.00  0.00    +0.111 A 
ATOM     11  C   UNL     1      10.398  -0.735  -7.170  0.00  0.00    +0.020 A 
ATOM     12  C   UNL     1       9.093  -1.200  -7.229  0.00  0.00    +0.008 A 
ENDBRANCH   3   7
TORSDOF 1
ENDMDL
MODEL 2
REMARK VINA RESULT:     7.275      0.790      1.372
REMARK INTER + INTRA:           7.490
REMARK INTER:                   7.739
REMARK INTRA:                  -0.249
REMARK UNBOUND:                -0.210
REMARK  Name = Nicotine.pdb
REMARK  2 active torsions:
REMARK  status: ('A' for Active; 'I' for Inactive)
REMARK    1  A    between atoms: C_3  and  C_6
REMARK    2  A    between atoms: N_4  and  C_12
REMARK                            x       y       z     vdW  Elec       q    Type
REMARK                         _______ _______ _______ _____ _____    ______ ____
ROOT
ATOM      1  C   UNL     1       4.693  -0.482  -5.424  0.00  0.00    +0.017 C 
ATOM      2  C   UNL     1       5.853   0.103  -6.271  0.00  0.00    +0.025 C 
ATOM      3  C   UNL     1       6.798  -1.105  -6.447  0.00  0.00    +0.088 C 
ATOM      4  N   UNL     1       6.507  -2.050  -5.354  0.00  0.00    -0.298 NA
ATOM      5  C   UNL     1       5.448  -1.471  -4.501  0.00  0.00    +0.085 C 
ATOM      6  C   UNL     1       6.101  -3.359  -5.883  0.00  0.00    +0.105 C 
ENDROOT
BRANCH   3   7
ATOM      7  C   UNL     1       8.232  -0.650  -6.365  0.00  0.00    -0.012 A 
ATOM      8  C   UNL     1       9.186  -1.191  -7.207  0.00  0.00    +0.115 A 
ATOM      9  N   UNL     1      10.443  -0.799  -7.142  0.00  0.00    -0.263 NA
ATOM     10  C   UNL     1      10.840   0.116  -6.280  0.00  0.00    +0.111 A 
ATOM     11  C   UNL     1       9.942   0.703  -5.407  0.00  0.00    +0.020 A 
ATOM     12  C   UNL     1       8.611   0.320  -5.450  0.00  0.00    +0.008 A 
ENDBRANCH   3   7
TORSDOF 1
ENDMDL
MODEL 3
REMARK VINA RESULT:     7.571      2.078      4.470
REMARK INTER + INTRA:           7.804
REMARK INTER:                   8.018
REMARK INTRA:                  -0.214
REMARK UNBOUND:                -0.210
REMARK  Name = Nicotine.pdb
REMARK  2 active torsions:
REMARK  status: ('A' for Active; 'I' for Inactive)
REMARK    1  A    between atoms: C_3  and  C_6
REMARK    2  A    between atoms: N_4  and  C_12
REMARK                            x       y       z     vdW  Elec       q    Type
REMARK                         _______ _______ _______ _____ _____    ______ ____
ROOT
ATOM      1  C   UNL     1       7.660  -0.695  -7.035  0.00  0.00    +0.017 C 
ATOM      2  C   UNL     1       7.662  -0.186  -5.569  0.00  0.00    +0.025 C 
ATOM      3  C   UNL     1       7.142  -1.405  -4.778  0.00  0.00    +0.088 C 
ATOM      4  N   UNL     1       6.391  -2.251  -5.723  0.00  0.00    -0.298 NA
ATOM      5  C   UNL     1       6.403  -1.600  -7.050  0.00  0.00    +0.085 C 
ATOM      6  C   UNL     1       6.965  -3.601  -5.793  0.00  0.00    +0.105 C 
ENDROOT
BRANCH   3   7
ATOM      7  C   UNL     1       6.234  -0.945  -3.667  0.00  0.00    -0.012 A 
ATOM      8  C   UNL     1       4.882  -1.228  -3.706  0.00  0.00    +0.115 A 
ATOM      9  N   UNL     1       4.080  -0.830  -2.738  0.00  0.00    -0.263 NA
ATOM     10  C   UNL     1       4.530  -0.150  -1.701  0.00  0.00    +0.111 A 
ATOM     11  C   UNL     1       5.871   0.170  -1.593  0.00  0.00    +0.020 A 
ATOM     12  C   UNL     1       6.745  -0.238  -2.589  0.00  0.00    +0.008 A 
ENDBRANCH   3   7
TORSDOF 1
ENDMDL
MODEL 4
REMARK VINA RESULT:     7.669      1.275      4.649
REMARK INTER + INTRA:           7.908
REMARK INTER:                   8.117
REMARK INTRA:                  -0.210
REMARK UNBOUND:                -0.210
REMARK  Name = Nicotine.pdb
REMARK  2 active torsions:
REMARK  status: ('A' for Active; 'I' for Inactive)
REMARK    1  A    between atoms: C_3  and  C_6
REMARK    2  A    between atoms: N_4  and  C_12
REMARK                            x       y       z     vdW  Elec       q    Type
REMARK                         _______ _______ _______ _____ _____    ______ ____
ROOT
ATOM      1  C   UNL     1      10.954   0.641  -5.851  0.00  0.00    +0.017 C 
ATOM      2  C   UNL     1       9.924  -0.314  -6.509  0.00  0.00    +0.025 C 
ATOM      3  C   UNL     1       8.572   0.358  -6.187  0.00  0.00    +0.088 C 
ATOM      4  N   UNL     1       8.783   1.223  -5.013  0.00  0.00    -0.298 NA
ATOM      5  C   UNL     1      10.191   1.096  -4.581  0.00  0.00    +0.085 C 
ATOM      6  C   UNL     1       8.449   2.619  -5.320  0.00  0.00    +0.105 C 
ENDROOT
BRANCH   3   7
ATOM      7  C   UNL     1       7.540  -0.693  -5.873  0.00  0.00    -0.012 A 
ATOM      8  C   UNL     1       7.289  -1.717  -6.768  0.00  0.00    +0.115 A 
ATOM      9  N   UNL     1       6.387  -2.641  -6.501  0.00  0.00    -0.263 NA
ATOM     10  C   UNL     1       5.692  -2.628  -5.380  0.00  0.00    +0.111 A 
ATOM     11  C   UNL     1       5.888  -1.636  -4.438  0.00  0.00    +0.020 A 
ATOM     12  C   UNL     1       6.832  -0.650  -4.681  0.00  0.00    +0.008 A 
ENDBRANCH   3   7
TORSDOF 1
ENDMDL
MODEL 5
REMARK VINA RESULT:     8.680      2.019      4.577
REMARK INTER + INTRA:           8.978
REMARK INTER:                   9.170
REMARK INTRA:                  -0.192
REMARK UNBOUND:                -0.210
REMARK  Name = Nicotine.pdb
REMARK  2 active torsions:
REMARK  status: ('A' for Active; 'I' for Inactive)
REMARK    1  A    between atoms: C_3  and  C_6
REMARK    2  A    between atoms: N_4  and  C_12
REMARK                            x       y       z     vdW  Elec       q    Type
REMARK                         _______ _______ _______ _____ _____    ______ ____
ROOT
ATOM      1  C   UNL     1       7.973  -2.458  -6.837  0.00  0.00    +0.017 C 
ATOM      2  C   UNL     1       6.829  -2.643  -5.805  0.00  0.00    +0.025 C 
ATOM      3  C   UNL     1       6.236  -1.223  -5.685  0.00  0.00    +0.088 C 
ATOM      4  N   UNL     1       7.279  -0.277  -6.120  0.00  0.00    -0.298 NA
ATOM      5  C   UNL     1       8.491  -1.043  -6.478  0.00  0.00    +0.085 C 
ATOM      6  C   UNL     1       6.815   0.534  -7.253  0.00  0.00    +0.105 C 
ENDROOT
BRANCH   3   7
ATOM      7  C   UNL     1       5.855  -0.946  -4.254  0.00  0.00    -0.012 A 
ATOM      8  C   UNL     1       4.544  -1.088  -3.839  0.00  0.00    +0.115 A 
ATOM      9  N   UNL     1       4.202  -0.847  -2.588  0.00  0.00    -0.263 NA
ATOM     10  C   UNL     1       5.088  -0.465  -1.689  0.00  0.00    +0.111 A 
ATOM     11  C   UNL     1       6.418  -0.303  -2.030  0.00  0.00    +0.020 A 
ATOM     12  C   UNL     1       6.815  -0.551  -3.335  0.00  0.00    +0.008 A 
ENDBRANCH   3   7
TORSDOF 1
ENDMDL
MODEL 6
REMARK VINA RESULT:     9.420      1.542      2.252
REMARK INTER + INTRA:           9.761
REMARK INTER:                   9.984
REMARK INTRA:                  -0.223
REMARK UNBOUND:                -0.210
REMARK  Name = Nicotine.pdb
REMARK  2 active torsions:
REMARK  status: ('A' for Active; 'I' for Inactive)
REMARK    1  A    between atoms: C_3  and  C_6
REMARK    2  A    between atoms: N_4  and  C_12
REMARK                            x       y       z     vdW  Elec       q    Type
REMARK                         _______ _______ _______ _____ _____    ______ ____
ROOT
ATOM      1  C   UNL     1       6.017  -0.457  -2.603  0.00  0.00    +0.017 C 
ATOM      2  C   UNL     1       7.239   0.135  -3.352  0.00  0.00    +0.025 C 
ATOM      3  C   UNL     1       6.823   0.029  -4.835  0.00  0.00    +0.088 C 
ATOM      4  N   UNL     1       5.789  -1.018  -4.924  0.00  0.00    -0.298 NA
ATOM      5  C   UNL     1       5.568  -1.578  -3.574  0.00  0.00    +0.085 C 
ATOM      6  C   UNL     1       4.542  -0.481  -5.483  0.00  0.00    +0.105 C 
ENDROOT
BRANCH   3   7
ATOM      7  C   UNL     1       8.014  -0.351  -5.676  0.00  0.00    -0.012 A 
ATOM      8  C   UNL     1       7.955  -1.448  -6.515  0.00  0.00    +0.115 A 
ATOM      9  N   UNL     1       8.993  -1.787  -7.254  0.00  0.00    -0.263 NA
ATOM     10  C   UNL     1      10.119  -1.102  -7.225  0.00  0.00    +0.111 A 
ATOM     11  C   UNL     1      10.251   0.007  -6.410  0.00  0.00    +0.020 A 
ATOM     12  C   UNL     1       9.180   0.397  -5.622  0.00  0.00    +0.008 A 
ENDBRANCH   3   7
TORSDOF 1
ENDMDL
