MODEL 1
REMARK VINA RESULT:    -2.966      0.000      0.000
REMARK INTER + INTRA:          -3.368
REMARK INTER:                  -3.140
REMARK INTRA:                  -0.228
REMARK UNBOUND:                -0.228
REMARK  Name = Nicotine.pdb
REMARK  2 active torsions:
REMARK  status: ('A' for Active; 'I' for Inactive)
REMARK    1  A    between atoms: C_3  and  C_6
REMARK    2  A    between atoms: N_4  and  C_12
REMARK                            x       y       z     vdW  Elec       q    Type
REMARK                         _______ _______ _______ _____ _____    ______ ____
ROOT
ATOM      1  C   UNL     1      10.572   5.261   5.030  0.00  0.00    +0.017 C 
ATOM      2  C   UNL     1      10.881   3.842   5.575  0.00  0.00    +0.025 C 
ATOM      3  C   UNL     1      10.707   2.946   4.330  0.00  0.00    +0.088 C 
ATOM      4  N   UNL     1       9.842   3.676   3.385  0.00  0.00    -0.298 NA
ATOM      5  C   UNL     1       9.456   4.964   3.998  0.00  0.00    +0.085 C 
ATOM      6  C   UNL     1      10.524   3.886   2.101  0.00  0.00    +0.105 C 
ENDROOT
BRANCH   3   7
ATOM      7  C   UNL     1      10.057   1.645   4.722  0.00  0.00    -0.012 A 
ATOM      8  C   UNL     1      10.644   0.440   4.382  0.00  0.00    +0.115 A 
ATOM      9  N   UNL     1      10.082  -0.704   4.722  0.00  0.00    -0.263 NA
ATOM     10  C   UNL     1       8.948  -0.747   5.392  0.00  0.00    +0.111 A 
ATOM     11  C   UNL     1       8.302   0.417   5.766  0.00  0.00    +0.020 A 
ATOM     12  C   UNL     1       8.866   1.639   5.432  0.00  0.00    +0.008 A 
ENDBRANCH   3   7
TORSDOF 1
ENDMDL
MODEL 2
REMARK VINA RESULT:    -2.925      2.793      6.104
REMARK INTER + INTRA:          -3.324
REMARK INTER:                  -3.068
REMARK INTRA:                  -0.256
REMARK UNBOUND:                -0.228
REMARK  Name = Nicotine.pdb
REMARK  2 active torsions:
REMARK  status: ('A' for Active; 'I' for Inactive)
REMARK    1  A    between atoms: C_3  and  C_6
REMARK    2  A    between atoms: N_4  and  C_12
REMARK                            x       y       z     vdW  Elec       q    Type
REMARK                         _______ _______ _______ _____ _____    ______ ____
ROOT
ATOM      1  C   UNL     1      10.870  -4.618   5.076  0.00  0.00    +0.017 C 
ATOM      2  C   UNL     1      10.762  -3.329   5.933  0.00  0.00    +0.025 C 
ATOM      3  C   UNL     1       9.327  -2.840   5.646  0.00  0.00    +0.088 C 
ATOM      4  N   UNL     1       8.914  -3.429   4.359  0.00  0.00    -0.298 NA
ATOM      5  C   UNL     1      10.034  -4.234   3.829  0.00  0.00    +0.085 C 
ATOM      6  C   UNL     1       7.705  -4.247   4.517  0.00  0.00    +0.105 C 
ENDROOT
BRANCH   3   7
ATOM      7  C   UNL     1       9.306  -1.336   5.554  0.00  0.00    -0.012 A 
ATOM      8  C   UNL     1       8.141  -0.637   5.805  0.00  0.00    +0.115 A 
ATOM      9  N   UNL     1       8.114   0.680   5.727  0.00  0.00    -0.263 NA
ATOM     10  C   UNL     1       9.187   1.377   5.409  0.00  0.00    +0.111 A 
ATOM     11  C   UNL     1      10.388   0.746   5.145  0.00  0.00    +0.020 A 
ATOM     12  C   UNL     1      10.456  -0.637   5.222  0.00  0.00    +0.008 A 
ENDBRANCH   3   7
TORSDOF 1
ENDMDL
MODEL 3
REMARK VINA RESULT:    -2.652      3.542      7.227
REMARK INTER + INTRA:          -3.035
REMARK INTER:                  -2.797
REMARK INTRA:                  -0.238
REMARK UNBOUND:                -0.228
REMARK  Name = Nicotine.pdb
REMARK  2 active torsions:
REMARK  status: ('A' for Active; 'I' for Inactive)
REMARK    1  A    between atoms: C_3  and  C_6
REMARK    2  A    between atoms: N_4  and  C_12
REMARK                            x       y       z     vdW  Elec       q    Type
REMARK                         _______ _______ _______ _____ _____    ______ ____
ROOT
ATOM      1  C   UNL     1       7.583  -5.995   4.759  0.00  0.00    +0.017 C 
ATOM      2  C   UNL     1       7.894  -4.618   4.115  0.00  0.00    +0.025 C 
ATOM      3  C   UNL     1       9.172  -4.169   4.856  0.00  0.00    +0.088 C 
ATOM      4  N   UNL     1       9.215  -4.900   6.135  0.00  0.00    -0.298 NA
ATOM      5  C   UNL     1       8.014  -5.757   6.228  0.00  0.00    +0.085 C 
ATOM      6  C   UNL     1      10.443  -5.699   6.244  0.00  0.00    +0.105 C 
ENDROOT
BRANCH   3   7
ATOM      7  C   UNL     1       9.120  -2.685   5.113  0.00  0.00    -0.012 A 
ATOM      8  C   UNL     1      10.210  -1.887   4.821  0.00  0.00    +0.115 A 
ATOM      9  N   UNL     1      10.173  -0.587   5.043  0.00  0.00    -0.263 NA
ATOM     10  C   UNL     1       9.106  -0.001   5.549  0.00  0.00    +0.111 A 
ATOM     11  C   UNL     1       7.978  -0.735   5.865  0.00  0.00    +0.020 A 
ATOM     12  C   UNL     1       7.978  -2.103   5.641  0.00  0.00    +0.008 A 
ENDBRANCH   3   7
TORSDOF 1
ENDMDL
MODEL 4
REMARK VINA RESULT:    -2.340      7.280      8.262
REMARK INTER + INTRA:          -2.704
REMARK INTER:                  -2.485
REMARK INTRA:                  -0.219
REMARK UNBOUND:                -0.228
REMARK  Name = Nicotine.pdb
REMARK  2 active torsions:
REMARK  status: ('A' for Active; 'I' for Inactive)
REMARK    1  A    between atoms: C_3  and  C_6
REMARK    2  A    between atoms: N_4  and  C_12
REMARK                            x       y       z     vdW  Elec       q    Type
REMARK                         _______ _______ _______ _____ _____    ______ ____
ROOT
ATOM      1  C   UNL     1       9.579  -6.097  -0.503  0.00  0.00    +0.017 C 
ATOM      2  C   UNL     1       8.650  -5.959   0.732  0.00  0.00    +0.025 C 
ATOM      3  C   UNL     1       9.243  -4.744   1.477  0.00  0.00    +0.088 C 
ATOM      4  N   UNL     1      10.645  -4.608   1.046  0.00  0.00    -0.298 NA
ATOM      5  C   UNL     1      10.952  -5.694   0.091  0.00  0.00    +0.085 C 
ATOM      6  C   UNL     1      10.885  -3.291   0.441  0.00  0.00    +0.105 C 
ENDROOT
BRANCH   3   7
ATOM      7  C   UNL     1       9.182  -4.977   2.965  0.00  0.00    -0.012 A 
ATOM      8  C   UNL     1      10.346  -5.080   3.704  0.00  0.00    +0.115 A 
ATOM      9  N   UNL     1      10.302  -5.283   5.006  0.00  0.00    -0.263 NA
ATOM     10  C   UNL     1       9.158  -5.396   5.652  0.00  0.00    +0.111 A 
ATOM     11  C   UNL     1       7.954  -5.303   4.979  0.00  0.00    +0.020 A 
ATOM     12  C   UNL     1       7.960  -5.084   3.610  0.00  0.00    +0.008 A 
ENDBRANCH   3   7
TORSDOF 1
ENDMDL
MODEL 5
REMARK VINA RESULT:    -2.251      6.503      8.213
REMARK INTER + INTRA:          -2.610
REMARK INTER:                  -2.396
REMARK INTRA:                  -0.214
REMARK UNBOUND:                -0.228
REMARK  Name = Nicotine.pdb
REMARK  2 active torsions:
REMARK  status: ('A' for Active; 'I' for Inactive)
REMARK    1  A    between atoms: C_3  and  C_6
REMARK    2  A    between atoms: N_4  and  C_12
REMARK                            x       y       z     vdW  Elec       q    Type
REMARK                         _______ _______ _______ _____ _____    ______ ____
ROOT
ATOM      1  C   UNL     1       7.803  -4.373   5.646  0.00  0.00    +0.017 C 
ATOM      2  C   UNL     1       7.764  -5.147   4.302  0.00  0.00    +0.025 C 
ATOM      3  C   UNL     1       9.254  -5.433   4.023  0.00  0.00    +0.088 C 
ATOM      4  N   UNL     1      10.039  -4.442   4.782  0.00  0.00    -0.298 NA
ATOM      5  C   UNL     1       9.103  -3.546   5.494  0.00  0.00    +0.085 C 
ATOM      6  C   UNL     1      10.954  -5.103   5.722  0.00  0.00    +0.105 C 
ENDROOT
BRANCH   3   7
ATOM      7  C   UNL     1       9.536  -5.292   2.550  0.00  0.00    -0.012 A 
ATOM      8  C   UNL     1       8.883  -6.094   1.633  0.00  0.00    +0.115 A 
ATOM      9  N   UNL     1       9.124  -5.978   0.342  0.00  0.00    -0.263 NA
ATOM     10  C   UNL     1       9.989  -5.100  -0.125  0.00  0.00    +0.111 A 
ATOM     11  C   UNL     1      10.680  -4.263   0.731  0.00  0.00    +0.020 A 
ATOM     12  C   UNL     1      10.449  -4.353   2.095  0.00  0.00    +0.008 A 
ENDBRANCH   3   7
TORSDOF 1
ENDMDL
MODEL 6
REMARK VINA RESULT:    -1.986      1.231      4.526
REMARK INTER + INTRA:          -2.329
REMARK INTER:                  -2.123
REMARK INTRA:                  -0.206
REMARK UNBOUND:                -0.228
REMARK  Name = Nicotine.pdb
REMARK  2 active torsions:
REMARK  status: ('A' for Active; 'I' for Inactive)
REMARK    1  A    between atoms: C_3  and  C_6
REMARK    2  A    between atoms: N_4  and  C_12
REMARK                            x       y       z     vdW  Elec       q    Type
REMARK                         _______ _______ _______ _____ _____    ______ ____
ROOT
ATOM      1  C   UNL     1       8.671   0.075   6.206  0.00  0.00    +0.017 C 
ATOM      2  C   UNL     1       8.408   1.425   5.488  0.00  0.00    +0.025 C 
ATOM      3  C   UNL     1       9.558   1.502   4.462  0.00  0.00    +0.088 C 
ATOM      4  N   UNL     1      10.638   0.626   4.950  0.00  0.00    -0.298 NA
ATOM      5  C   UNL     1      10.219   0.034   6.238  0.00  0.00    +0.085 C 
ATOM      6  C   UNL     1      10.954  -0.419   3.968  0.00  0.00    +0.105 C 
ENDROOT
BRANCH   3   7
ATOM      7  C   UNL     1      10.056   2.920   4.354  0.00  0.00    -0.012 A 
ATOM      8  C   UNL     1      10.212   3.694   5.489  0.00  0.00    +0.115 A 
ATOM      9  N   UNL     1      10.647   4.936   5.404  0.00  0.00    -0.263 NA
ATOM     10  C   UNL     1      10.947   5.487   4.245  0.00  0.00    +0.111 A 
ATOM     11  C   UNL     1      10.816   4.775   3.067  0.00  0.00    +0.020 A 
ATOM     12  C   UNL     1      10.367   3.464   3.118  0.00  0.00    +0.008 A 
ENDBRANCH   3   7
TORSDOF 1
ENDMDL
MODEL 7
REMARK VINA RESULT:    -1.855      1.480      4.671
REMARK INTER + INTRA:          -2.192
REMARK INTER:                  -1.944
REMARK INTRA:                  -0.248
REMARK UNBOUND:                -0.228
REMARK  Name = Nicotine.pdb
REMARK  2 active torsions:
REMARK  status: ('A' for Active; 'I' for Inactive)
REMARK    1  A    between atoms: C_3  and  C_6
REMARK    2  A    between atoms: N_4  and  C_12
REMARK                            x       y       z     vdW  Elec       q    Type
REMARK                         _______ _______ _______ _____ _____    ______ ____
ROOT
ATOM      1  C   UNL     1       9.015   1.264   5.589  0.00  0.00    +0.017 C 
ATOM      2  C   UNL     1       8.643   2.678   5.068  0.00  0.00    +0.025 C 
ATOM      3  C   UNL     1       9.633   2.890   3.903  0.00  0.00    +0.088 C 
ATOM      4  N   UNL     1      10.777   1.989   4.133  0.00  0.00    -0.298 NA
ATOM      5  C   UNL     1      10.551   1.253   5.395  0.00  0.00    +0.085 C 
ATOM      6  C   UNL     1      10.954   1.063   3.007  0.00  0.00    +0.105 C 
ENDROOT
BRANCH   3   7
ATOM      7  C   UNL     1      10.102   4.321   3.882  0.00  0.00    -0.012 A 
ATOM      8  C   UNL     1      10.242   4.994   2.683  0.00  0.00    +0.115 A 
ATOM      9  N   UNL     1      10.652   6.247   2.656  0.00  0.00    -0.263 NA
ATOM     10  C   UNL     1      10.942   6.905   3.760  0.00  0.00    +0.111 A 
ATOM     11  C   UNL     1      10.826   6.298   4.997  0.00  0.00    +0.020 A 
ATOM     12  C   UNL     1      10.393   4.983   5.066  0.00  0.00    +0.008 A 
ENDBRANCH   3   7
TORSDOF 1
ENDMDL
MODEL 8
REMARK VINA RESULT:    -1.041      1.492      2.368
REMARK INTER + INTRA:          -1.329
REMARK INTER:                  -1.129
REMARK INTRA:                  -0.200
REMARK UNBOUND:                -0.228
REMARK  Name = Nicotine.pdb
REMARK  2 active torsions:
REMARK  status: ('A' for Active; 'I' for Inactive)
REMARK    1  A    between atoms: C_3  and  C_6
REMARK    2  A    between atoms: N_4  and  C_12
REMARK                            x       y       z     vdW  Elec       q    Type
REMARK                         _______ _______ _______ _____ _____    ______ ____
ROOT
ATOM      1  C   UNL     1      10.433   5.746   1.863  0.00  0.00    +0.017 C 
ATOM      2  C   UNL     1      10.013   4.256   1.962  0.00  0.00    +0.025 C 
ATOM      3  C   UNL     1       9.462   4.145   3.399  0.00  0.00    +0.088 C 
ATOM      4  N   UNL     1      10.047   5.251   4.178  0.00  0.00    -0.298 NA
ATOM      5  C   UNL     1      10.951   6.021   3.297  0.00  0.00    +0.085 C 
ATOM      6  C   UNL     1       8.999   6.113   4.740  0.00  0.00    +0.105 C 
ENDROOT
BRANCH   3   7
ATOM      7  C   UNL     1       9.862   2.824   4.002  0.00  0.00    -0.012 A 
ATOM      8  C   UNL     1      10.578   1.905   3.258  0.00  0.00    +0.115 A 
ATOM      9  N   UNL     1      10.933   0.746   3.778  0.00  0.00    -0.263 NA
ATOM     10  C   UNL     1      10.623   0.418   5.017  0.00  0.00    +0.111 A 
ATOM     11  C   UNL     1       9.908   1.286   5.821  0.00  0.00    +0.020 A 
ATOM     12  C   UNL     1       9.523   2.516   5.310  0.00  0.00    +0.008 A 
ENDBRANCH   3   7
TORSDOF 1
ENDMDL
