MODEL 1
REMARK VINA RESULT:     0.000      0.000      0.000
REMARK INTER + INTRA:          -0.256
REMARK INTER:                   0.000
REMARK INTRA:                  -0.256
REMARK UNBOUND:                -0.256
REMARK  Name = Nicotine.pdb
REMARK  2 active torsions:
REMARK  status: ('A' for Active; 'I' for Inactive)
REMARK    1  A    between atoms: C_3  and  C_6
REMARK    2  A    between atoms: N_4  and  C_12
REMARK                            x       y       z     vdW  Elec       q    Type
REMARK                         _______ _______ _______ _____ _____    ______ ____
ROOT
ATOM      1  C   UNL     1      -0.991  -1.288  -4.119  0.00  0.00    +0.017 C 
ATOM      2  C   UNL     1      -1.176  -2.069  -2.792  0.00  0.00    +0.025 C 
ATOM      3  C   UNL     1       0.171  -1.851  -2.070  0.00  0.00    +0.088 C 
ATOM      4  N   UNL     1       1.169  -1.513  -3.101  0.00  0.00    -0.298 NA
ATOM      5  C   UNL     1       0.507  -1.537  -4.423  0.00  0.00    +0.085 C 
ATOM      6  C   UNL     1       1.774  -0.201  -2.838  0.00  0.00    +0.105 C 
ENDROOT
BRANCH   3   7
ATOM      7  C   UNL     1       0.579  -3.112  -1.354  0.00  0.00    -0.012 A 
ATOM      8  C   UNL     1       1.478  -3.062  -0.306  0.00  0.00    +0.115 A 
ATOM      9  N   UNL     1       1.840  -4.161   0.326  0.00  0.00    -0.263 NA
ATOM     10  C   UNL     1       1.365  -5.343  -0.012  0.00  0.00    +0.111 A 
ATOM     11  C   UNL     1       0.461  -5.472  -1.050  0.00  0.00    +0.020 A 
ATOM     12  C   UNL     1       0.053  -4.338  -1.734  0.00  0.00    +0.008 A 
ENDBRANCH   3   7
TORSDOF 1
ENDMDL
MODEL 2
REMARK VINA RESULT:     0.000      4.975      6.707
REMARK INTER + INTRA:          -0.256
REMARK INTER:                   0.000
REMARK INTRA:                  -0.256
REMARK UNBOUND:                -0.256
REMARK  Name = Nicotine.pdb
REMARK  2 active torsions:
REMARK  status: ('A' for Active; 'I' for Inactive)
REMARK    1  A    between atoms: C_3  and  C_6
REMARK    2  A    between atoms: N_4  and  C_12
REMARK                            x       y       z     vdW  Elec       q    Type
REMARK                         _______ _______ _______ _____ _____    ______ ____
ROOT
ATOM      1  C   UNL     1       0.124  -0.578   2.069  0.00  0.00    +0.017 C 
ATOM      2  C   UNL     1       1.495   0.089   1.781  0.00  0.00    +0.025 C 
ATOM      3  C   UNL     1       1.125   1.576   1.596  0.00  0.00    +0.088 C 
ATOM      4  N   UNL     1      -0.303   1.629   1.233  0.00  0.00    -0.298 NA
ATOM      5  C   UNL     1      -0.823   0.247   1.162  0.00  0.00    +0.085 C 
ATOM      6  C   UNL     1      -1.064   2.429   2.203  0.00  0.00    +0.105 C 
ENDROOT
BRANCH   3   7
ATOM      7  C   UNL     1       1.957   2.179   0.495  0.00  0.00    -0.012 A 
ATOM      8  C   UNL     1       2.142   3.547   0.426  0.00  0.00    +0.115 A 
ATOM      9  N   UNL     1       2.870   4.082  -0.535  0.00  0.00    -0.263 NA
ATOM     10  C   UNL     1       3.446   3.342  -1.462  0.00  0.00    +0.111 A 
ATOM     11  C   UNL     1       3.307   1.967  -1.457  0.00  0.00    +0.020 A 
ATOM     12  C   UNL     1       2.553   1.368  -0.460  0.00  0.00    +0.008 A 
ENDBRANCH   3   7
TORSDOF 1
ENDMDL
MODEL 3
REMARK VINA RESULT:     0.000      7.930      9.217
REMARK INTER + INTRA:          -0.256
REMARK INTER:                   0.000
REMARK INTRA:                  -0.256
REMARK UNBOUND:                -0.256
REMARK  Name = Nicotine.pdb
REMARK  2 active torsions:
REMARK  status: ('A' for Active; 'I' for Inactive)
REMARK    1  A    between atoms: C_3  and  C_6
REMARK    2  A    between atoms: N_4  and  C_12
REMARK                            x       y       z     vdW  Elec       q    Type
REMARK                         _______ _______ _______ _____ _____    ______ ____
ROOT
ATOM      1  C   UNL     1       0.516   5.167  -0.555  0.00  0.00    +0.017 C 
ATOM      2  C   UNL     1      -0.269   4.611  -1.772  0.00  0.00    +0.025 C 
ATOM      3  C   UNL     1       0.799   4.569  -2.885  0.00  0.00    +0.088 C 
ATOM      4  N   UNL     1       1.857   5.525  -2.512  0.00  0.00    -0.298 NA
ATOM      5  C   UNL     1       1.479   6.171  -1.237  0.00  0.00    +0.085 C 
ATOM      6  C   UNL     1       3.158   4.854  -2.397  0.00  0.00    +0.105 C 
ENDROOT
BRANCH   3   7
ATOM      7  C   UNL     1       0.185   4.970  -4.201  0.00  0.00    -0.012 A 
ATOM      8  C   UNL     1       0.781   4.601  -5.392  0.00  0.00    +0.115 A 
ATOM      9  N   UNL     1       0.249   4.948  -6.548  0.00  0.00    -0.263 NA
ATOM     10  C   UNL     1      -0.862   5.654  -6.616  0.00  0.00    +0.111 A 
ATOM     11  C   UNL     1      -1.515   6.058  -5.467  0.00  0.00    +0.020 A 
ATOM     12  C   UNL     1      -0.989   5.707  -4.233  0.00  0.00    +0.008 A 
ENDBRANCH   3   7
TORSDOF 1
ENDMDL
MODEL 4
REMARK VINA RESULT:     0.000      5.578      7.842
REMARK INTER + INTRA:          -0.256
REMARK INTER:                   0.000
REMARK INTRA:                  -0.256
REMARK UNBOUND:                -0.256
REMARK  Name = Nicotine.pdb
REMARK  2 active torsions:
REMARK  status: ('A' for Active; 'I' for Inactive)
REMARK    1  A    between atoms: C_3  and  C_6
REMARK    2  A    between atoms: N_4  and  C_12
REMARK                            x       y       z     vdW  Elec       q    Type
REMARK                         _______ _______ _______ _____ _____    ______ ____
ROOT
ATOM      1  C   UNL     1       2.644   1.082  -0.605  0.00  0.00    +0.017 C 
ATOM      2  C   UNL     1       3.980   0.824  -1.352  0.00  0.00    +0.025 C 
ATOM      3  C   UNL     1       4.766   2.132  -1.118  0.00  0.00    +0.088 C 
ATOM      4  N   UNL     1       3.781   3.184  -0.809  0.00  0.00    -0.298 NA
ATOM      5  C   UNL     1       2.427   2.593  -0.866  0.00  0.00    +0.085 C 
ATOM      6  C   UNL     1       4.041   3.779   0.508  0.00  0.00    +0.105 C 
ENDROOT
BRANCH   3   7
ATOM      7  C   UNL     1       5.534   2.497  -2.362  0.00  0.00    -0.012 A 
ATOM      8  C   UNL     1       6.627   3.339  -2.286  0.00  0.00    +0.115 A 
ATOM      9  N   UNL     1       7.306   3.664  -3.369  0.00  0.00    -0.263 NA
ATOM     10  C   UNL     1       6.974   3.203  -4.559  0.00  0.00    +0.111 A 
ATOM     11  C   UNL     1       5.893   2.355  -4.712  0.00  0.00    +0.020 A 
ATOM     12  C   UNL     1       5.159   1.987  -3.595  0.00  0.00    +0.008 A 
ENDBRANCH   3   7
TORSDOF 1
ENDMDL
MODEL 5
REMARK VINA RESULT:     0.000      6.900      7.583
REMARK INTER + INTRA:          -0.256
REMARK INTER:                   0.000
REMARK INTRA:                  -0.256
REMARK UNBOUND:                -0.256
REMARK  Name = Nicotine.pdb
REMARK  2 active torsions:
REMARK  status: ('A' for Active; 'I' for Inactive)
REMARK    1  A    between atoms: C_3  and  C_6
REMARK    2  A    between atoms: N_4  and  C_12
REMARK                            x       y       z     vdW  Elec       q    Type
REMARK                         _______ _______ _______ _____ _____    ______ ____
ROOT
ATOM      1  C   UNL     1       6.399   1.789  -1.769  0.00  0.00    +0.017 C 
ATOM      2  C   UNL     1       6.482   1.281  -0.306  0.00  0.00    +0.025 C 
ATOM      3  C   UNL     1       7.786   0.454  -0.299  0.00  0.00    +0.088 C 
ATOM      4  N   UNL     1       8.062   0.062  -1.692  0.00  0.00    -0.298 NA
ATOM      5  C   UNL     1       6.979   0.584  -2.552  0.00  0.00    +0.085 C 
ATOM      6  C   UNL     1       9.371   0.562  -2.131  0.00  0.00    +0.105 C 
ENDROOT
BRANCH   3   7
ATOM      7  C   UNL     1       7.609  -0.774   0.556  0.00  0.00    -0.012 A 
ATOM      8  C   UNL     1       8.710  -1.427   1.077  0.00  0.00    +0.115 A 
ATOM      9  N   UNL     1       8.565  -2.502   1.826  0.00  0.00    -0.263 NA
ATOM     10  C   UNL     1       7.375  -2.996   2.107  0.00  0.00    +0.111 A 
ATOM     11  C   UNL     1       6.228  -2.396   1.621  0.00  0.00    +0.020 A 
ATOM     12  C   UNL     1       6.341  -1.260   0.835  0.00  0.00    +0.008 A 
ENDBRANCH   3   7
TORSDOF 1
ENDMDL
MODEL 6
REMARK VINA RESULT:     0.000      6.092      8.334
REMARK INTER + INTRA:          -0.256
REMARK INTER:                   0.000
REMARK INTRA:                  -0.256
REMARK UNBOUND:                -0.256
REMARK  Name = Nicotine.pdb
REMARK  2 active torsions:
REMARK  status: ('A' for Active; 'I' for Inactive)
REMARK    1  A    between atoms: C_3  and  C_6
REMARK    2  A    between atoms: N_4  and  C_12
REMARK                            x       y       z     vdW  Elec       q    Type
REMARK                         _______ _______ _______ _____ _____    ______ ____
ROOT
ATOM      1  C   UNL     1       5.103   2.274   5.019  0.00  0.00    +0.017 C 
ATOM      2  C   UNL     1       3.796   2.733   4.320  0.00  0.00    +0.025 C 
ATOM      3  C   UNL     1       3.443   1.530   3.420  0.00  0.00    +0.088 C 
ATOM      4  N   UNL     1       4.686   0.772   3.196  0.00  0.00    -0.298 NA
ATOM      5  C   UNL     1       5.792   1.463   3.892  0.00  0.00    +0.085 C 
ATOM      6  C   UNL     1       4.551  -0.613   3.666  0.00  0.00    +0.105 C 
ENDROOT
BRANCH   3   7
ATOM      7  C   UNL     1       2.893   2.018   2.105  0.00  0.00    -0.012 A 
ATOM      8  C   UNL     1       2.113   1.188   1.322  0.00  0.00    +0.115 A 
ATOM      9  N   UNL     1       1.628   1.608   0.169  0.00  0.00    -0.263 NA
ATOM     10  C   UNL     1       1.866   2.824  -0.281  0.00  0.00    +0.111 A 
ATOM     11  C   UNL     1       2.638   3.710   0.447  0.00  0.00    +0.020 A 
ATOM     12  C   UNL     1       3.160   3.306   1.666  0.00  0.00    +0.008 A 
ENDBRANCH   3   7
TORSDOF 1
ENDMDL
MODEL 7
REMARK VINA RESULT:     0.000      5.703      6.654
REMARK INTER + INTRA:          -0.256
REMARK INTER:                   0.000
REMARK INTRA:                  -0.256
REMARK UNBOUND:                -0.256
REMARK  Name = Nicotine.pdb
REMARK  2 active torsions:
REMARK  status: ('A' for Active; 'I' for Inactive)
REMARK    1  A    between atoms: C_3  and  C_6
REMARK    2  A    between atoms: N_4  and  C_12
REMARK                            x       y       z     vdW  Elec       q    Type
REMARK                         _______ _______ _______ _____ _____    ______ ____
ROOT
ATOM      1  C   UNL     1      -0.946   1.995  -4.956  0.00  0.00    +0.017 C 
ATOM      2  C   UNL     1       0.389   1.289  -4.601  0.00  0.00    +0.025 C 
ATOM      3  C   UNL     1       1.125   2.346  -3.751  0.00  0.00    +0.088 C 
ATOM      4  N   UNL     1       0.550   3.659  -4.093  0.00  0.00    -0.298 NA
ATOM      5  C   UNL     1      -0.487   3.464  -5.129  0.00  0.00    +0.085 C 
ATOM      6  C   UNL     1      -0.011   4.315  -2.904  0.00  0.00    +0.105 C 
ENDROOT
BRANCH   3   7
ATOM      7  C   UNL     1       2.597   2.330  -4.075  0.00  0.00    -0.012 A 
ATOM      8  C   UNL     1       3.515   2.840  -3.177  0.00  0.00    +0.115 A 
ATOM      9  N   UNL     1       4.805   2.830  -3.452  0.00  0.00    -0.263 NA
ATOM     10  C   UNL     1       5.268   2.338  -4.584  0.00  0.00    +0.111 A 
ATOM     11  C   UNL     1       4.409   1.810  -5.530  0.00  0.00    +0.020 A 
ATOM     12  C   UNL     1       3.047   1.798  -5.273  0.00  0.00    +0.008 A 
ENDBRANCH   3   7
TORSDOF 1
ENDMDL
MODEL 8
REMARK VINA RESULT:     0.000      9.235     11.065
REMARK INTER + INTRA:          -0.256
REMARK INTER:                   0.000
REMARK INTRA:                  -0.256
REMARK UNBOUND:                -0.256
REMARK  Name = Nicotine.pdb
REMARK  2 active torsions:
REMARK  status: ('A' for Active; 'I' for Inactive)
REMARK    1  A    between atoms: C_3  and  C_6
REMARK    2  A    between atoms: N_4  and  C_12
REMARK                            x       y       z     vdW  Elec       q    Type
REMARK                         _______ _______ _______ _____ _____    ______ ____
ROOT
ATOM      1  C   UNL     1       7.660   4.231   4.369  0.00  0.00    +0.017 C 
ATOM      2  C   UNL     1       6.302   4.311   3.624  0.00  0.00    +0.025 C 
ATOM      3  C   UNL     1       6.665   3.862   2.192  0.00  0.00    +0.088 C 
ATOM      4  N   UNL     1       8.112   4.084   2.018  0.00  0.00    -0.298 NA
ATOM      5  C   UNL     1       8.651   4.672   3.263  0.00  0.00    +0.085 C 
ATOM      6  C   UNL     1       8.801   2.831   1.684  0.00  0.00    +0.105 C 
ENDROOT
BRANCH   3   7
ATOM      7  C   UNL     1       5.895   4.679   1.188  0.00  0.00    -0.012 A 
ATOM      8  C   UNL     1       5.698   4.205  -0.096  0.00  0.00    +0.115 A 
ATOM      9  N   UNL     1       5.025   4.914  -0.981  0.00  0.00    -0.263 NA
ATOM     10  C   UNL     1       4.516   6.093  -0.683  0.00  0.00    +0.111 A 
ATOM     11  C   UNL     1       4.672   6.632   0.581  0.00  0.00    +0.020 A 
ATOM     12  C   UNL     1       5.369   5.913   1.540  0.00  0.00    +0.008 A 
ENDBRANCH   3   7
TORSDOF 1
ENDMDL
MODEL 9
REMARK VINA RESULT:     0.000      2.762      3.737
REMARK INTER + INTRA:          -0.256
REMARK INTER:                   0.000
REMARK INTRA:                  -0.256
REMARK UNBOUND:                -0.256
REMARK  Name = Nicotine.pdb
REMARK  2 active torsions:
REMARK  status: ('A' for Active; 'I' for Inactive)
REMARK    1  A    between atoms: C_3  and  C_6
REMARK    2  A    between atoms: N_4  and  C_12
REMARK                            x       y       z     vdW  Elec       q    Type
REMARK                         _______ _______ _______ _____ _____    ______ ____
ROOT
ATOM      1  C   UNL     1      -0.544  -0.707  -6.201  0.00  0.00    +0.017 C 
ATOM      2  C   UNL     1       0.135  -2.077  -6.466  0.00  0.00    +0.025 C 
ATOM      3  C   UNL     1       0.035  -2.785  -5.099  0.00  0.00    +0.088 C 
ATOM      4  N   UNL     1      -0.127  -1.737  -4.075  0.00  0.00    -0.298 NA
ATOM      5  C   UNL     1      -0.106  -0.418  -4.743  0.00  0.00    +0.085 C 
ATOM      6  C   UNL     1      -1.373  -1.926  -3.320  0.00  0.00    +0.105 C 
ENDROOT
BRANCH   3   7
ATOM      7  C   UNL     1       1.293  -3.571  -4.835  0.00  0.00    -0.012 A 
ATOM      8  C   UNL     1       1.288  -4.614  -3.929  0.00  0.00    +0.115 A 
ATOM      9  N   UNL     1       2.385  -5.307  -3.692  0.00  0.00    -0.263 NA
ATOM     10  C   UNL     1       3.522  -5.036  -4.304  0.00  0.00    +0.111 A 
ATOM     11  C   UNL     1       3.603  -4.007  -5.223  0.00  0.00    +0.020 A 
ATOM     12  C   UNL     1       2.469  -3.260  -5.501  0.00  0.00    +0.008 A 
ENDBRANCH   3   7
TORSDOF 1
ENDMDL
MODEL 10
REMARK VINA RESULT:     0.000      4.250      5.451
REMARK INTER + INTRA:          -0.256
REMARK INTER:                   0.000
REMARK INTRA:                  -0.256
REMARK UNBOUND:                -0.256
REMARK  Name = Nicotine.pdb
REMARK  2 active torsions:
REMARK  status: ('A' for Active; 'I' for Inactive)
REMARK    1  A    between atoms: C_3  and  C_6
REMARK    2  A    between atoms: N_4  and  C_12
REMARK                            x       y       z     vdW  Elec       q    Type
REMARK                         _______ _______ _______ _____ _____    ______ ____
ROOT
ATOM      1  C   UNL     1       6.182  -3.635  -6.381  0.00  0.00    +0.017 C 
ATOM      2  C   UNL     1       5.316  -2.625  -5.582  0.00  0.00    +0.025 C 
ATOM      3  C   UNL     1       4.763  -3.482  -4.423  0.00  0.00    +0.088 C 
ATOM      4  N   UNL     1       4.821  -4.890  -4.856  0.00  0.00    -0.298 NA
ATOM      5  C   UNL     1       5.359  -4.939  -6.232  0.00  0.00    +0.085 C 
ATOM      6  C   UNL     1       5.645  -5.689  -3.939  0.00  0.00    +0.105 C 
ENDROOT
BRANCH   3   7
ATOM      7  C   UNL     1       3.337  -3.092  -4.132  0.00  0.00    -0.012 A 
ATOM      8  C   UNL     1       2.772  -3.375  -2.903  0.00  0.00    +0.115 A 
ATOM      9  N   UNL     1       1.525  -3.036  -2.640  0.00  0.00    -0.263 NA
ATOM     10  C   UNL     1       0.772  -2.421  -3.530  0.00  0.00    +0.111 A 
ATOM     11  C   UNL     1       1.269  -2.105  -4.781  0.00  0.00    +0.020 A 
ATOM     12  C   UNL     1       2.577  -2.440  -5.091  0.00  0.00    +0.008 A 
ENDBRANCH   3   7
TORSDOF 1
ENDMDL
