MODEL 1
REMARK VINA RESULT:    -2.634      0.000      0.000
REMARK INTER + INTRA:          -3.021
REMARK INTER:                  -2.788
REMARK INTRA:                  -0.233
REMARK UNBOUND:                -0.233
REMARK  Name = Nicotine.pdb
REMARK  2 active torsions:
REMARK  status: ('A' for Active; 'I' for Inactive)
REMARK    1  A    between atoms: C_3  and  C_6
REMARK    2  A    between atoms: N_4  and  C_12
REMARK                            x       y       z     vdW  Elec       q    Type
REMARK                         _______ _______ _______ _____ _____    ______ ____
ROOT
ATOM      1  C   UNL     1       9.966  -1.908   0.505  0.00  0.00    +0.017 C 
ATOM      2  C   UNL     1      10.867  -1.087  -0.455  0.00  0.00    +0.025 C 
ATOM      3  C   UNL     1      10.952   0.288   0.240  0.00  0.00    +0.088 C 
ATOM      4  N   UNL     1       9.785   0.400   1.133  0.00  0.00    -0.298 NA
ATOM      5  C   UNL     1       8.972  -0.828   1.002  0.00  0.00    +0.085 C 
ATOM      6  C   UNL     1      10.204   0.609   2.525  0.00  0.00    +0.105 C 
ENDROOT
BRANCH   3   7
ATOM      7  C   UNL     1      10.919   1.387  -0.791  0.00  0.00    -0.012 A 
ATOM      8  C   UNL     1      10.867   2.711  -0.400  0.00  0.00    +0.115 A 
ATOM      9  N   UNL     1      10.837   3.679  -1.295  0.00  0.00    -0.263 NA
ATOM     10  C   UNL     1      10.855   3.426  -2.589  0.00  0.00    +0.111 A 
ATOM     11  C   UNL     1      10.906   2.126  -3.056  0.00  0.00    +0.020 A 
ATOM     12  C   UNL     1      10.944   1.082  -2.143  0.00  0.00    +0.008 A 
ENDBRANCH   3   7
TORSDOF 1
ENDMDL
MODEL 2
REMARK VINA RESULT:    -0.687      2.162      3.774
REMARK INTER + INTRA:          -0.960
REMARK INTER:                  -0.744
REMARK INTRA:                  -0.215
REMARK UNBOUND:                -0.233
REMARK  Name = Nicotine.pdb
REMARK  2 active torsions:
REMARK  status: ('A' for Active; 'I' for Inactive)
REMARK    1  A    between atoms: C_3  and  C_6
REMARK    2  A    between atoms: N_4  and  C_12
REMARK                            x       y       z     vdW  Elec       q    Type
REMARK                         _______ _______ _______ _____ _____    ______ ____
ROOT
ATOM      1  C   UNL     1       9.471  -2.384   0.226  0.00  0.00    +0.017 C 
ATOM      2  C   UNL     1       8.989  -1.175   1.069  0.00  0.00    +0.025 C 
ATOM      3  C   UNL     1       9.764   0.009   0.453  0.00  0.00    +0.088 C 
ATOM      4  N   UNL     1      10.949  -0.549  -0.223  0.00  0.00    -0.298 NA
ATOM      5  C   UNL     1      10.954  -2.015  -0.031  0.00  0.00    +0.085 C 
ATOM      6  C   UNL     1      10.953  -0.204  -1.650  0.00  0.00    +0.105 C 
ENDROOT
BRANCH   3   7
ATOM      7  C   UNL     1      10.192   0.962   1.539  0.00  0.00    -0.012 A 
ATOM      8  C   UNL     1      10.227   0.549   2.858  0.00  0.00    +0.115 A 
ATOM      9  N   UNL     1      10.601   1.376   3.814  0.00  0.00    -0.263 NA
ATOM     10  C   UNL     1      10.954   2.620   3.556  0.00  0.00    +0.111 A 
ATOM     11  C   UNL     1      10.945   3.104   2.261  0.00  0.00    +0.020 A 
ATOM     12  C   UNL     1      10.563   2.261   1.229  0.00  0.00    +0.008 A 
ENDBRANCH   3   7
TORSDOF 1
ENDMDL
MODEL 3
REMARK VINA RESULT:     0.187      2.321      4.404
REMARK INTER + INTRA:          -0.035
REMARK INTER:                   0.187
REMARK INTRA:                  -0.222
REMARK UNBOUND:                -0.233
REMARK  Name = Nicotine.pdb
REMARK  2 active torsions:
REMARK  status: ('A' for Active; 'I' for Inactive)
REMARK    1  A    between atoms: C_3  and  C_6
REMARK    2  A    between atoms: N_4  and  C_12
REMARK                            x       y       z     vdW  Elec       q    Type
REMARK                         _______ _______ _______ _____ _____    ______ ____
ROOT
ATOM      1  C   UNL     1       9.920   0.746  -0.680  0.00  0.00    +0.017 C 
ATOM      2  C   UNL     1      10.760   1.700   0.209  0.00  0.00    +0.025 C 
ATOM      3  C   UNL     1      10.948   0.888   1.508  0.00  0.00    +0.088 C 
ATOM      4  N   UNL     1       9.866  -0.111   1.560  0.00  0.00    -0.298 NA
ATOM      5  C   UNL     1       9.007   0.063   0.369  0.00  0.00    +0.085 C 
ATOM      6  C   UNL     1      10.410  -1.474   1.622  0.00  0.00    +0.105 C 
ENDROOT
BRANCH   3   7
ATOM      7  C   UNL     1      10.860   1.803   2.702  0.00  0.00    -0.012 A 
ATOM      8  C   UNL     1      10.690   1.282   3.971  0.00  0.00    +0.115 A 
ATOM      9  N   UNL     1      10.612   2.076   5.021  0.00  0.00    -0.263 NA
ATOM     10  C   UNL     1      10.692   3.387   4.907  0.00  0.00    +0.111 A 
ATOM     11  C   UNL     1      10.862   3.980   3.670  0.00  0.00    +0.020 A 
ATOM     12  C   UNL     1      10.954   3.177   2.543  0.00  0.00    +0.008 A 
ENDBRANCH   3   7
TORSDOF 1
ENDMDL
