MODEL 1
REMARK VINA RESULT:    -3.124      0.000      0.000
REMARK INTER + INTRA:          -3.550
REMARK INTER:                  -3.307
REMARK INTRA:                  -0.243
REMARK UNBOUND:                -0.243
REMARK  Name = Nicotine.pdb
REMARK  2 active torsions:
REMARK  status: ('A' for Active; 'I' for Inactive)
REMARK    1  A    between atoms: C_3  and  C_6
REMARK    2  A    between atoms: N_4  and  C_12
REMARK                            x       y       z     vdW  Elec       q    Type
REMARK                         _______ _______ _______ _____ _____    ______ ____
ROOT
ATOM      1  C   UNL     1      -0.885  -0.127  -3.370  0.00  0.00    +0.017 C 
ATOM      2  C   UNL     1      -0.480   0.630  -4.663  0.00  0.00    +0.025 C 
ATOM      3  C   UNL     1       0.545   1.665  -4.152  0.00  0.00    +0.088 C 
ATOM      4  N   UNL     1       0.292   1.857  -2.713  0.00  0.00    -0.298 NA
ATOM      5  C   UNL     1      -0.854   1.010  -2.319  0.00  0.00    +0.085 C 
ATOM      6  C   UNL     1       1.484   1.532  -1.920  0.00  0.00    +0.105 C 
ENDROOT
BRANCH   3   7
ATOM      7  C   UNL     1       0.364   2.969  -4.884  0.00  0.00    -0.012 A 
ATOM      8  C   UNL     1       1.210   4.034  -4.635  0.00  0.00    +0.115 A 
ATOM      9  N   UNL     1       1.059   5.179  -5.271  0.00  0.00    -0.263 NA
ATOM     10  C   UNL     1       0.104   5.355  -6.163  0.00  0.00    +0.111 A 
ATOM     11  C   UNL     1      -0.779   4.336  -6.466  0.00  0.00    +0.020 A 
ATOM     12  C   UNL     1      -0.648   3.116  -5.821  0.00  0.00    +0.008 A 
ENDBRANCH   3   7
TORSDOF 1
ENDMDL
MODEL 2
REMARK VINA RESULT:    -3.106      1.644      4.367
REMARK INTER + INTRA:          -3.531
REMARK INTER:                  -3.326
REMARK INTRA:                  -0.205
REMARK UNBOUND:                -0.243
REMARK  Name = Nicotine.pdb
REMARK  2 active torsions:
REMARK  status: ('A' for Active; 'I' for Inactive)
REMARK    1  A    between atoms: C_3  and  C_6
REMARK    2  A    between atoms: N_4  and  C_12
REMARK                            x       y       z     vdW  Elec       q    Type
REMARK                         _______ _______ _______ _____ _____    ______ ____
ROOT
ATOM      1  C   UNL     1      -0.294   5.019  -6.138  0.00  0.00    +0.017 C 
ATOM      2  C   UNL     1      -0.505   3.484  -6.062  0.00  0.00    +0.025 C 
ATOM      3  C   UNL     1      -0.271   3.175  -4.568  0.00  0.00    +0.088 C 
ATOM      4  N   UNL     1       0.542   4.274  -4.017  0.00  0.00    -0.298 NA
ATOM      5  C   UNL     1       0.840   5.231  -5.104  0.00  0.00    +0.085 C 
ATOM      6  C   UNL     1      -0.153   4.938  -2.907  0.00  0.00    +0.105 C 
ENDROOT
BRANCH   3   7
ATOM      7  C   UNL     1       0.466   1.869  -4.424  0.00  0.00    -0.012 A 
ATOM      8  C   UNL     1      -0.199   0.669  -4.590  0.00  0.00    +0.115 A 
ATOM      9  N   UNL     1       0.438  -0.479  -4.466  0.00  0.00    -0.263 NA
ATOM     10  C   UNL     1       1.724  -0.530  -4.181  0.00  0.00    +0.111 A 
ATOM     11  C   UNL     1       2.456   0.629  -4.002  0.00  0.00    +0.020 A 
ATOM     12  C   UNL     1       1.821   1.855  -4.130  0.00  0.00    +0.008 A 
ENDBRANCH   3   7
TORSDOF 1
ENDMDL
MODEL 3
REMARK VINA RESULT:    -3.101      2.287      3.051
REMARK INTER + INTRA:          -3.526
REMARK INTER:                  -3.305
REMARK INTRA:                  -0.220
REMARK UNBOUND:                -0.243
REMARK  Name = Nicotine.pdb
REMARK  2 active torsions:
REMARK  status: ('A' for Active; 'I' for Inactive)
REMARK    1  A    between atoms: C_3  and  C_6
REMARK    2  A    between atoms: N_4  and  C_12
REMARK                            x       y       z     vdW  Elec       q    Type
REMARK                         _______ _______ _______ _____ _____    ______ ____
ROOT
ATOM      1  C   UNL     1       3.855  -0.375  -4.599  0.00  0.00    +0.017 C 
ATOM      2  C   UNL     1       3.387   1.103  -4.648  0.00  0.00    +0.025 C 
ATOM      3  C   UNL     1       2.120   1.096  -3.766  0.00  0.00    +0.088 C 
ATOM      4  N   UNL     1       1.620  -0.290  -3.731  0.00  0.00    -0.298 NA
ATOM      5  C   UNL     1       2.502  -1.130  -4.569  0.00  0.00    +0.085 C 
ATOM      6  C   UNL     1       1.563  -0.796  -2.354  0.00  0.00    +0.105 C 
ENDROOT
BRANCH   3   7
ATOM      7  C   UNL     1       1.076   2.004  -4.361  0.00  0.00    -0.012 A 
ATOM      8  C   UNL     1      -0.224   1.564  -4.521  0.00  0.00    +0.115 A 
ATOM      9  N   UNL     1      -1.144   2.353  -5.042  0.00  0.00    -0.263 NA
ATOM     10  C   UNL     1      -0.865   3.583  -5.427  0.00  0.00    +0.111 A 
ATOM     11  C   UNL     1       0.413   4.092  -5.298  0.00  0.00    +0.020 A 
ATOM     12  C   UNL     1       1.406   3.294  -4.750  0.00  0.00    +0.008 A 
ENDBRANCH   3   7
TORSDOF 1
ENDMDL
MODEL 4
REMARK VINA RESULT:    -3.051      1.200      1.841
REMARK INTER + INTRA:          -3.473
REMARK INTER:                  -3.259
REMARK INTRA:                  -0.214
REMARK UNBOUND:                -0.243
REMARK  Name = Nicotine.pdb
REMARK  2 active torsions:
REMARK  status: ('A' for Active; 'I' for Inactive)
REMARK    1  A    between atoms: C_3  and  C_6
REMARK    2  A    between atoms: N_4  and  C_12
REMARK                            x       y       z     vdW  Elec       q    Type
REMARK                         _______ _______ _______ _____ _____    ______ ____
ROOT
ATOM      1  C   UNL     1       2.232  -0.122  -3.770  0.00  0.00    +0.017 C 
ATOM      2  C   UNL     1       2.256   1.422  -3.918  0.00  0.00    +0.025 C 
ATOM      3  C   UNL     1       0.777   1.814  -3.714  0.00  0.00    +0.088 C 
ATOM      4  N   UNL     1      -0.036   0.622  -4.013  0.00  0.00    -0.298 NA
ATOM      5  C   UNL     1       0.869  -0.476  -4.416  0.00  0.00    +0.085 C 
ATOM      6  C   UNL     1      -0.851   0.235  -2.854  0.00  0.00    +0.105 C 
ENDROOT
BRANCH   3   7
ATOM      7  C   UNL     1       0.410   2.935  -4.650  0.00  0.00    -0.012 A 
ATOM      8  C   UNL     1       1.018   4.171  -4.534  0.00  0.00    +0.115 A 
ATOM      9  N   UNL     1       0.703   5.158  -5.350  0.00  0.00    -0.263 NA
ATOM     10  C   UNL     1      -0.197   5.009  -6.301  0.00  0.00    +0.111 A 
ATOM     11  C   UNL     1      -0.847   3.802  -6.479  0.00  0.00    +0.020 A 
ATOM     12  C   UNL     1      -0.538   2.740  -5.643  0.00  0.00    +0.008 A 
ENDBRANCH   3   7
TORSDOF 1
ENDMDL
MODEL 5
REMARK VINA RESULT:    -2.897      1.654      4.543
REMARK INTER + INTRA:          -3.310
REMARK INTER:                  -3.099
REMARK INTRA:                  -0.211
REMARK UNBOUND:                -0.243
REMARK  Name = Nicotine.pdb
REMARK  2 active torsions:
REMARK  status: ('A' for Active; 'I' for Inactive)
REMARK    1  A    between atoms: C_3  and  C_6
REMARK    2  A    between atoms: N_4  and  C_12
REMARK                            x       y       z     vdW  Elec       q    Type
REMARK                         _______ _______ _______ _____ _____    ______ ____
ROOT
ATOM      1  C   UNL     1       0.986   6.639  -5.962  0.00  0.00    +0.017 C 
ATOM      2  C   UNL     1       0.079   5.392  -6.127  0.00  0.00    +0.025 C 
ATOM      3  C   UNL     1      -0.118   4.911  -4.673  0.00  0.00    +0.088 C 
ATOM      4  N   UNL     1       1.003   5.448  -3.880  0.00  0.00    -0.298 NA
ATOM      5  C   UNL     1       1.892   6.213  -4.779  0.00  0.00    +0.085 C 
ATOM      6  C   UNL     1       0.515   6.289  -2.780  0.00  0.00    +0.105 C 
ENDROOT
BRANCH   3   7
ATOM      7  C   UNL     1      -0.107   3.405  -4.625  0.00  0.00    -0.012 A 
ATOM      8  C   UNL     1      -0.975   2.674  -5.413  0.00  0.00    +0.115 A 
ATOM      9  N   UNL     1      -0.972   1.356  -5.378  0.00  0.00    -0.263 NA
ATOM     10  C   UNL     1      -0.149   0.686  -4.596  0.00  0.00    +0.111 A 
ATOM     11  C   UNL     1       0.749   1.349  -3.780  0.00  0.00    +0.020 A 
ATOM     12  C   UNL     1       0.778   2.735  -3.795  0.00  0.00    +0.008 A 
ENDBRANCH   3   7
TORSDOF 1
ENDMDL
MODEL 6
REMARK VINA RESULT:    -2.892      2.243      3.402
REMARK INTER + INTRA:          -3.304
REMARK INTER:                  -3.054
REMARK INTRA:                  -0.250
REMARK UNBOUND:                -0.243
REMARK  Name = Nicotine.pdb
REMARK  2 active torsions:
REMARK  status: ('A' for Active; 'I' for Inactive)
REMARK    1  A    between atoms: C_3  and  C_6
REMARK    2  A    between atoms: N_4  and  C_12
REMARK                            x       y       z     vdW  Elec       q    Type
REMARK                         _______ _______ _______ _____ _____    ______ ____
ROOT
ATOM      1  C   UNL     1       3.881   0.589  -2.389  0.00  0.00    +0.017 C 
ATOM      2  C   UNL     1       2.524   1.341  -2.388  0.00  0.00    +0.025 C 
ATOM      3  C   UNL     1       1.716   0.602  -3.476  0.00  0.00    +0.088 C 
ATOM      4  N   UNL     1       2.686  -0.063  -4.364  0.00  0.00    -0.298 NA
ATOM      5  C   UNL     1       4.051   0.253  -3.892  0.00  0.00    +0.085 C 
ATOM      6  C   UNL     1       2.463  -1.514  -4.398  0.00  0.00    +0.105 C 
ENDROOT
BRANCH   3   7
ATOM      7  C   UNL     1       0.891   1.588  -4.261  0.00  0.00    -0.012 A 
ATOM      8  C   UNL     1      -0.387   1.259  -4.672  0.00  0.00    +0.115 A 
ATOM      9  N   UNL     1      -1.116   2.116  -5.359  0.00  0.00    -0.263 NA
ATOM     10  C   UNL     1      -0.662   3.311  -5.681  0.00  0.00    +0.111 A 
ATOM     11  C   UNL     1       0.607   3.710  -5.304  0.00  0.00    +0.020 A 
ATOM     12  C   UNL     1       1.401   2.838  -4.576  0.00  0.00    +0.008 A 
ENDBRANCH   3   7
TORSDOF 1
ENDMDL
MODEL 7
REMARK VINA RESULT:    -2.759      1.544      4.510
REMARK INTER + INTRA:          -3.164
REMARK INTER:                  -2.945
REMARK INTRA:                  -0.219
REMARK UNBOUND:                -0.243
REMARK  Name = Nicotine.pdb
REMARK  2 active torsions:
REMARK  status: ('A' for Active; 'I' for Inactive)
REMARK    1  A    between atoms: C_3  and  C_6
REMARK    2  A    between atoms: N_4  and  C_12
REMARK                            x       y       z     vdW  Elec       q    Type
REMARK                         _______ _______ _______ _____ _____    ______ ____
ROOT
ATOM      1  C   UNL     1       1.228   6.152  -3.084  0.00  0.00    +0.017 C 
ATOM      2  C   UNL     1       1.695   4.681  -3.244  0.00  0.00    +0.025 C 
ATOM      3  C   UNL     1       1.131   4.286  -4.625  0.00  0.00    +0.088 C 
ATOM      4  N   UNL     1       0.010   5.197  -4.916  0.00  0.00    -0.298 NA
ATOM      5  C   UNL     1      -0.160   6.116  -3.771  0.00  0.00    +0.085 C 
ATOM      6  C   UNL     1       0.245   5.942  -6.160  0.00  0.00    +0.105 C 
ENDROOT
BRANCH   3   7
ATOM      7  C   UNL     1       0.641   2.861  -4.591  0.00  0.00    -0.012 A 
ATOM      8  C   UNL     1      -0.583   2.530  -5.139  0.00  0.00    +0.115 A 
ATOM      9  N   UNL     1      -1.019   1.286  -5.113  0.00  0.00    -0.263 NA
ATOM     10  C   UNL     1      -0.313   0.315  -4.568  0.00  0.00    +0.111 A 
ATOM     11  C   UNL     1       0.921   0.570  -4.001  0.00  0.00    +0.020 A 
ATOM     12  C   UNL     1       1.415   1.866  -4.014  0.00  0.00    +0.008 A 
ENDBRANCH   3   7
TORSDOF 1
ENDMDL
MODEL 8
REMARK VINA RESULT:    -2.633      2.223      4.256
REMARK INTER + INTRA:          -3.030
REMARK INTER:                  -2.809
REMARK INTRA:                  -0.222
REMARK UNBOUND:                -0.243
REMARK  Name = Nicotine.pdb
REMARK  2 active torsions:
REMARK  status: ('A' for Active; 'I' for Inactive)
REMARK    1  A    between atoms: C_3  and  C_6
REMARK    2  A    between atoms: N_4  and  C_12
REMARK                            x       y       z     vdW  Elec       q    Type
REMARK                         _______ _______ _______ _____ _____    ______ ____
ROOT
ATOM      1  C   UNL     1      -0.950   4.391  -1.999  0.00  0.00    +0.017 C 
ATOM      2  C   UNL     1       0.367   3.638  -2.323  0.00  0.00    +0.025 C 
ATOM      3  C   UNL     1       0.167   3.205  -3.791  0.00  0.00    +0.088 C 
ATOM      4  N   UNL     1      -1.284   3.191  -4.049  0.00  0.00    -0.298 NA
ATOM      5  C   UNL     1      -1.987   3.569  -2.804  0.00  0.00    +0.085 C 
ATOM      6  C   UNL     1      -1.634   4.099  -5.148  0.00  0.00    +0.105 C 
ENDROOT
BRANCH   3   7
ATOM      7  C   UNL     1       0.740   1.827  -4.002  0.00  0.00    -0.012 A 
ATOM      8  C   UNL     1      -0.076   0.784  -4.397  0.00  0.00    +0.115 A 
ATOM      9  N   UNL     1       0.418  -0.425  -4.584  0.00  0.00    -0.263 NA
ATOM     10  C   UNL     1       1.697  -0.686  -4.403  0.00  0.00    +0.111 A 
ATOM     11  C   UNL     1       2.574   0.307  -4.009  0.00  0.00    +0.020 A 
ATOM     12  C   UNL     1       2.093   1.591  -3.808  0.00  0.00    +0.008 A 
ENDBRANCH   3   7
TORSDOF 1
ENDMDL
MODEL 9
REMARK VINA RESULT:    -2.609      1.909      2.687
REMARK INTER + INTRA:          -3.004
REMARK INTER:                  -2.794
REMARK INTRA:                  -0.211
REMARK UNBOUND:                -0.243
REMARK  Name = Nicotine.pdb
REMARK  2 active torsions:
REMARK  status: ('A' for Active; 'I' for Inactive)
REMARK    1  A    between atoms: C_3  and  C_6
REMARK    2  A    between atoms: N_4  and  C_12
REMARK                            x       y       z     vdW  Elec       q    Type
REMARK                         _______ _______ _______ _____ _____    ______ ____
ROOT
ATOM      1  C   UNL     1       2.883   0.290  -2.756  0.00  0.00    +0.017 C 
ATOM      2  C   UNL     1       1.920   0.623  -3.925  0.00  0.00    +0.025 C 
ATOM      3  C   UNL     1       2.251   2.097  -4.240  0.00  0.00    +0.088 C 
ATOM      4  N   UNL     1       2.870   2.673  -3.032  0.00  0.00    -0.298 NA
ATOM      5  C   UNL     1       2.912   1.633  -1.983  0.00  0.00    +0.085 C 
ATOM      6  C   UNL     1       4.216   3.184  -3.322  0.00  0.00    +0.105 C 
ENDROOT
BRANCH   3   7
ATOM      7  C   UNL     1       0.988   2.846  -4.577  0.00  0.00    -0.012 A 
ATOM      8  C   UNL     1      -0.246   2.245  -4.413  0.00  0.00    +0.115 A 
ATOM      9  N   UNL     1      -1.356   2.894  -4.706  0.00  0.00    -0.263 NA
ATOM     10  C   UNL     1      -1.337   4.130  -5.163  0.00  0.00    +0.111 A 
ATOM     11  C   UNL     1      -0.140   4.796  -5.353  0.00  0.00    +0.020 A 
ATOM     12  C   UNL     1       1.048   4.148  -5.051  0.00  0.00    +0.008 A 
ENDBRANCH   3   7
TORSDOF 1
ENDMDL
MODEL 10
REMARK VINA RESULT:    -2.221      2.649      4.624
REMARK INTER + INTRA:          -2.594
REMARK INTER:                  -2.394
REMARK INTRA:                  -0.200
REMARK UNBOUND:                -0.243
REMARK  Name = Nicotine.pdb
REMARK  2 active torsions:
REMARK  status: ('A' for Active; 'I' for Inactive)
REMARK    1  A    between atoms: C_3  and  C_6
REMARK    2  A    between atoms: N_4  and  C_12
REMARK                            x       y       z     vdW  Elec       q    Type
REMARK                         _______ _______ _______ _____ _____    ______ ____
ROOT
ATOM      1  C   UNL     1       0.613   2.482  -1.308  0.00  0.00    +0.017 C 
ATOM      2  C   UNL     1       1.934   2.058  -2.003  0.00  0.00    +0.025 C 
ATOM      3  C   UNL     1       1.497   1.821  -3.464  0.00  0.00    +0.088 C 
ATOM      4  N   UNL     1       0.046   1.563  -3.450  0.00  0.00    -0.298 NA
ATOM      5  C   UNL     1      -0.426   1.604  -2.049  0.00  0.00    +0.085 C 
ATOM      6  C   UNL     1      -0.672   2.541  -4.277  0.00  0.00    +0.105 C 
ENDROOT
BRANCH   3   7
ATOM      7  C   UNL     1       2.225   0.630  -4.031  0.00  0.00    -0.012 A 
ATOM      8  C   UNL     1       1.576  -0.581  -4.179  0.00  0.00    +0.115 A 
ATOM      9  N   UNL     1       2.206  -1.628  -4.674  0.00  0.00    -0.263 NA
ATOM     10  C   UNL     1       3.470  -1.566  -5.045  0.00  0.00    +0.111 A 
ATOM     11  C   UNL     1       4.184  -0.388  -4.927  0.00  0.00    +0.020 A 
ATOM     12  C   UNL     1       3.553   0.736  -4.415  0.00  0.00    +0.008 A 
ENDBRANCH   3   7
TORSDOF 1
ENDMDL
