MODEL 1
REMARK VINA RESULT:     3.311      0.000      0.000
REMARK INTER + INTRA:           3.289
REMARK INTER:                   3.505
REMARK INTRA:                  -0.215
REMARK UNBOUND:                -0.215
REMARK  Name = Nicotine.pdb
REMARK  2 active torsions:
REMARK  status: ('A' for Active; 'I' for Inactive)
REMARK    1  A    between atoms: C_3  and  C_6
REMARK    2  A    between atoms: N_4  and  C_12
REMARK                            x       y       z     vdW  Elec       q    Type
REMARK                         _______ _______ _______ _____ _____    ______ ____
ROOT
ATOM      1  C   UNL     1       2.622  -5.261  -3.033  0.00  0.00    +0.017 C 
ATOM      2  C   UNL     1       2.343  -3.829  -3.561  0.00  0.00    +0.025 C 
ATOM      3  C   UNL     1       2.686  -3.939  -5.062  0.00  0.00    +0.088 C 
ATOM      4  N   UNL     1       3.595  -5.089  -5.219  0.00  0.00    -0.298 NA
ATOM      5  C   UNL     1       3.848  -5.675  -3.885  0.00  0.00    +0.085 C 
ATOM      6  C   UNL     1       3.029  -6.088  -6.135  0.00  0.00    +0.105 C 
ENDROOT
BRANCH   3   7
ATOM      7  C   UNL     1       3.368  -2.678  -5.527  0.00  0.00    -0.012 A 
ATOM      8  C   UNL     1       3.957  -1.825  -4.613  0.00  0.00    +0.115 A 
ATOM      9  N   UNL     1       4.556  -0.720  -5.011  0.00  0.00    -0.263 NA
ATOM     10  C   UNL     1       4.616  -0.384  -6.285  0.00  0.00    +0.111 A 
ATOM     11  C   UNL     1       4.049  -1.189  -7.256  0.00  0.00    +0.020 A 
ATOM     12  C   UNL     1       3.416  -2.362  -6.876  0.00  0.00    +0.008 A 
ENDBRANCH   3   7
TORSDOF 1
ENDMDL
MODEL 2
REMARK VINA RESULT:     5.103      1.070      4.708
REMARK INTER + INTRA:           5.186
REMARK INTER:                   5.382
REMARK INTRA:                  -0.196
REMARK UNBOUND:                -0.215
REMARK  Name = Nicotine.pdb
REMARK  2 active torsions:
REMARK  status: ('A' for Active; 'I' for Inactive)
REMARK    1  A    between atoms: C_3  and  C_6
REMARK    2  A    between atoms: N_4  and  C_12
REMARK                            x       y       z     vdW  Elec       q    Type
REMARK                         _______ _______ _______ _____ _____    ______ ____
ROOT
ATOM      1  C   UNL     1       4.418  -0.561  -7.152  0.00  0.00    +0.017 C 
ATOM      2  C   UNL     1       3.782  -1.972  -7.254  0.00  0.00    +0.025 C 
ATOM      3  C   UNL     1       3.028  -2.111  -5.914  0.00  0.00    +0.088 C 
ATOM      4  N   UNL     1       3.651  -1.173  -4.963  0.00  0.00    -0.298 NA
ATOM      5  C   UNL     1       4.768  -0.484  -5.644  0.00  0.00    +0.085 C 
ATOM      6  C   UNL     1       2.669  -0.208  -4.453  0.00  0.00    +0.105 C 
ENDROOT
BRANCH   3   7
ATOM      7  C   UNL     1       3.150  -3.522  -5.400  0.00  0.00    -0.012 A 
ATOM      8  C   UNL     1       3.002  -4.594  -6.259  0.00  0.00    +0.115 A 
ATOM      9  N   UNL     1       3.108  -5.832  -5.818  0.00  0.00    -0.263 NA
ATOM     10  C   UNL     1       3.356  -6.097  -4.550  0.00  0.00    +0.111 A 
ATOM     11  C   UNL     1       3.517  -5.076  -3.632  0.00  0.00    +0.020 A 
ATOM     12  C   UNL     1       3.418  -3.761  -4.061  0.00  0.00    +0.008 A 
ENDBRANCH   3   7
TORSDOF 1
ENDMDL
MODEL 3
REMARK VINA RESULT:     5.208      1.479      4.503
REMARK INTER + INTRA:           5.297
REMARK INTER:                   5.495
REMARK INTRA:                  -0.199
REMARK UNBOUND:                -0.215
REMARK  Name = Nicotine.pdb
REMARK  2 active torsions:
REMARK  status: ('A' for Active; 'I' for Inactive)
REMARK    1  A    between atoms: C_3  and  C_6
REMARK    2  A    between atoms: N_4  and  C_12
REMARK                            x       y       z     vdW  Elec       q    Type
REMARK                         _______ _______ _______ _____ _____    ______ ____
ROOT
ATOM      1  C   UNL     1       3.097   0.786  -5.868  0.00  0.00    +0.017 C 
ATOM      2  C   UNL     1       2.879  -0.561  -5.130  0.00  0.00    +0.025 C 
ATOM      3  C   UNL     1       4.021  -1.444  -5.677  0.00  0.00    +0.088 C 
ATOM      4  N   UNL     1       4.437  -0.870  -6.969  0.00  0.00    -0.298 NA
ATOM      5  C   UNL     1       3.591   0.307  -7.256  0.00  0.00    +0.085 C 
ATOM      6  C   UNL     1       5.860  -0.505  -6.950  0.00  0.00    +0.105 C 
ENDROOT
BRANCH   3   7
ATOM      7  C   UNL     1       3.529  -2.854  -5.875  0.00  0.00    -0.012 A 
ATOM      8  C   UNL     1       3.508  -3.743  -4.817  0.00  0.00    +0.115 A 
ATOM      9  N   UNL     1       3.079  -4.979  -4.982  0.00  0.00    -0.263 NA
ATOM     10  C   UNL     1       2.655  -5.415  -6.152  0.00  0.00    +0.111 A 
ATOM     11  C   UNL     1       2.646  -4.583  -7.256  0.00  0.00    +0.020 A 
ATOM     12  C   UNL     1       3.086  -3.275  -7.119  0.00  0.00    +0.008 A 
ENDBRANCH   3   7
TORSDOF 1
ENDMDL
MODEL 4
REMARK VINA RESULT:     5.413      1.237      4.502
REMARK INTER + INTRA:           5.514
REMARK INTER:                   5.741
REMARK INTRA:                  -0.227
REMARK UNBOUND:                -0.215
REMARK  Name = Nicotine.pdb
REMARK  2 active torsions:
REMARK  status: ('A' for Active; 'I' for Inactive)
REMARK    1  A    between atoms: C_3  and  C_6
REMARK    2  A    between atoms: N_4  and  C_12
REMARK                            x       y       z     vdW  Elec       q    Type
REMARK                         _______ _______ _______ _____ _____    ______ ____
ROOT
ATOM      1  C   UNL     1       3.872  -0.032  -7.235  0.00  0.00    +0.017 C 
ATOM      2  C   UNL     1       2.904  -1.244  -7.256  0.00  0.00    +0.025 C 
ATOM      3  C   UNL     1       3.085  -1.857  -5.851  0.00  0.00    +0.088 C 
ATOM      4  N   UNL     1       4.397  -1.414  -5.346  0.00  0.00    -0.298 NA
ATOM      5  C   UNL     1       5.043  -0.581  -6.383  0.00  0.00    +0.085 C 
ATOM      6  C   UNL     1       4.255  -0.673  -4.087  0.00  0.00    +0.105 C 
ENDROOT
BRANCH   3   7
ATOM      7  C   UNL     1       3.048  -3.360  -5.938  0.00  0.00    -0.012 A 
ATOM      8  C   UNL     1       3.388  -4.133  -4.844  0.00  0.00    +0.115 A 
ATOM      9  N   UNL     1       3.358  -5.450  -4.912  0.00  0.00    -0.263 NA
ATOM     10  C   UNL     1       3.007  -6.079  -6.016  0.00  0.00    +0.111 A 
ATOM     11  C   UNL     1       2.653  -5.373  -7.151  0.00  0.00    +0.020 A 
ATOM     12  C   UNL     1       2.667  -3.987  -7.115  0.00  0.00    +0.008 A 
ENDBRANCH   3   7
TORSDOF 1
ENDMDL
MODEL 5
REMARK VINA RESULT:     6.182      1.090      1.699
REMARK INTER + INTRA:           6.328
REMARK INTER:                   6.544
REMARK INTRA:                  -0.216
REMARK UNBOUND:                -0.215
REMARK  Name = Nicotine.pdb
REMARK  2 active torsions:
REMARK  status: ('A' for Active; 'I' for Inactive)
REMARK    1  A    between atoms: C_3  and  C_6
REMARK    2  A    between atoms: N_4  and  C_12
REMARK                            x       y       z     vdW  Elec       q    Type
REMARK                         _______ _______ _______ _____ _____    ______ ____
ROOT
ATOM      1  C   UNL     1       3.683  -6.083  -4.183  0.00  0.00    +0.017 C 
ATOM      2  C   UNL     1       3.502  -4.566  -3.912  0.00  0.00    +0.025 C 
ATOM      3  C   UNL     1       2.802  -4.066  -5.193  0.00  0.00    +0.088 C 
ATOM      4  N   UNL     1       3.098  -5.038  -6.261  0.00  0.00    -0.298 NA
ATOM      5  C   UNL     1       3.967  -6.097  -5.706  0.00  0.00    +0.085 C 
ATOM      6  C   UNL     1       1.862  -5.606  -6.815  0.00  0.00    +0.105 C 
ENDROOT
BRANCH   3   7
ATOM      7  C   UNL     1       3.334  -2.708  -5.572  0.00  0.00    -0.012 A 
ATOM      8  C   UNL     1       3.502  -2.368  -6.901  0.00  0.00    +0.115 A 
ATOM      9  N   UNL     1       3.967  -1.182  -7.241  0.00  0.00    -0.263 NA
ATOM     10  C   UNL     1       4.288  -0.279  -6.336  0.00  0.00    +0.111 A 
ATOM     11  C   UNL     1       4.147  -0.546  -4.987  0.00  0.00    +0.020 A 
ATOM     12  C   UNL     1       3.656  -1.781  -4.592  0.00  0.00    +0.008 A 
ENDBRANCH   3   7
TORSDOF 1
ENDMDL
