MODEL 1
REMARK VINA RESULT:    -4.326      0.000      0.000
REMARK INTER + INTRA:          -4.794
REMARK INTER:                  -4.579
REMARK INTRA:                  -0.215
REMARK UNBOUND:                -0.215
REMARK  Name = Nicotine.pdb
REMARK  2 active torsions:
REMARK  status: ('A' for Active; 'I' for Inactive)
REMARK    1  A    between atoms: C_3  and  C_6
REMARK    2  A    between atoms: N_4  and  C_12
REMARK                            x       y       z     vdW  Elec       q    Type
REMARK                         _______ _______ _______ _____ _____    ______ ____
ROOT
ATOM      1  C   UNL     1      10.817   0.827   4.564  0.00  0.00    +0.017 C 
ATOM      2  C   UNL     1       9.490   0.188   4.077  0.00  0.00    +0.025 C 
ATOM      3  C   UNL     1       8.421   0.940   4.897  0.00  0.00    +0.088 C 
ATOM      4  N   UNL     1       9.089   1.482   6.093  0.00  0.00    -0.298 NA
ATOM      5  C   UNL     1      10.511   1.079   6.062  0.00  0.00    +0.085 C 
ATOM      6  C   UNL     1       8.956   2.943   6.154  0.00  0.00    +0.105 C 
ENDROOT
BRANCH   3   7
ATOM      7  C   UNL     1       7.326  -0.012   5.307  0.00  0.00    -0.012 A 
ATOM      8  C   UNL     1       7.579  -1.367   5.407  0.00  0.00    +0.115 A 
ATOM      9  N   UNL     1       6.627  -2.206   5.765  0.00  0.00    -0.263 NA
ATOM     10  C   UNL     1       5.405  -1.792   6.039  0.00  0.00    +0.111 A 
ATOM     11  C   UNL     1       5.078  -0.451   5.961  0.00  0.00    +0.020 A 
ATOM     12  C   UNL     1       6.055   0.461   5.593  0.00  0.00    +0.008 A 
ENDBRANCH   3   7
TORSDOF 1
ENDMDL
MODEL 2
REMARK VINA RESULT:    -3.162      1.297      4.473
REMARK INTER + INTRA:          -3.562
REMARK INTER:                  -3.315
REMARK INTRA:                  -0.247
REMARK UNBOUND:                -0.215
REMARK  Name = Nicotine.pdb
REMARK  2 active torsions:
REMARK  status: ('A' for Active; 'I' for Inactive)
REMARK    1  A    between atoms: C_3  and  C_6
REMARK    2  A    between atoms: N_4  and  C_12
REMARK                            x       y       z     vdW  Elec       q    Type
REMARK                         _______ _______ _______ _____ _____    ______ ____
ROOT
ATOM      1  C   UNL     1       6.136  -2.349   6.160  0.00  0.00    +0.017 C 
ATOM      2  C   UNL     1       7.573  -1.770   6.233  0.00  0.00    +0.025 C 
ATOM      3  C   UNL     1       7.345  -0.252   6.079  0.00  0.00    +0.088 C 
ATOM      4  N   UNL     1       6.042  -0.071   5.413  0.00  0.00    -0.298 NA
ATOM      5  C   UNL     1       5.471  -1.405   5.127  0.00  0.00    +0.085 C 
ATOM      6  C   UNL     1       5.131   0.726   6.244  0.00  0.00    +0.105 C 
ENDROOT
BRANCH   3   7
ATOM      7  C   UNL     1       8.440   0.349   5.237  0.00  0.00    -0.012 A 
ATOM      8  C   UNL     1       8.995   1.568   5.578  0.00  0.00    +0.115 A 
ATOM      9  N   UNL     1       9.954   2.101   4.846  0.00  0.00    -0.263 NA
ATOM     10  C   UNL     1      10.421   1.499   3.770  0.00  0.00    +0.111 A 
ATOM     11  C   UNL     1       9.915   0.277   3.368  0.00  0.00    +0.020 A 
ATOM     12  C   UNL     1       8.909  -0.317   4.115  0.00  0.00    +0.008 A 
ENDBRANCH   3   7
TORSDOF 1
ENDMDL
MODEL 3
REMARK VINA RESULT:    -3.004      1.557      4.330
REMARK INTER + INTRA:          -3.395
REMARK INTER:                  -3.187
REMARK INTRA:                  -0.208
REMARK UNBOUND:                -0.215
REMARK  Name = Nicotine.pdb
REMARK  2 active torsions:
REMARK  status: ('A' for Active; 'I' for Inactive)
REMARK    1  A    between atoms: C_3  and  C_6
REMARK    2  A    between atoms: N_4  and  C_12
REMARK                            x       y       z     vdW  Elec       q    Type
REMARK                         _______ _______ _______ _____ _____    ______ ____
ROOT
ATOM      1  C   UNL     1       6.144  -2.339   6.224  0.00  0.00    +0.017 C 
ATOM      2  C   UNL     1       7.615  -1.847   6.242  0.00  0.00    +0.025 C 
ATOM      3  C   UNL     1       7.473  -0.322   6.049  0.00  0.00    +0.088 C 
ATOM      4  N   UNL     1       6.166  -0.082   5.412  0.00  0.00    -0.298 NA
ATOM      5  C   UNL     1       5.508  -1.386   5.181  0.00  0.00    +0.085 C 
ATOM      6  C   UNL     1       5.327   0.792   6.243  0.00  0.00    +0.105 C 
ENDROOT
BRANCH   3   7
ATOM      7  C   UNL     1       8.579   0.188   5.161  0.00  0.00    -0.012 A 
ATOM      8  C   UNL     1       8.981  -0.542   4.058  0.00  0.00    +0.115 A 
ATOM      9  N   UNL     1       9.948  -0.103   3.275  0.00  0.00    -0.263 NA
ATOM     10  C   UNL     1      10.565   1.038   3.509  0.00  0.00    +0.111 A 
ATOM     11  C   UNL     1      10.216   1.822   4.593  0.00  0.00    +0.020 A 
ATOM     12  C   UNL     1       9.201   1.396   5.436  0.00  0.00    +0.008 A 
ENDBRANCH   3   7
TORSDOF 1
ENDMDL
MODEL 4
REMARK VINA RESULT:    -2.754      1.354      4.484
REMARK INTER + INTRA:          -3.131
REMARK INTER:                  -2.944
REMARK INTRA:                  -0.186
REMARK UNBOUND:                -0.215
REMARK  Name = Nicotine.pdb
REMARK  2 active torsions:
REMARK  status: ('A' for Active; 'I' for Inactive)
REMARK    1  A    between atoms: C_3  and  C_6
REMARK    2  A    between atoms: N_4  and  C_12
REMARK                            x       y       z     vdW  Elec       q    Type
REMARK                         _______ _______ _______ _____ _____    ______ ____
ROOT
ATOM      1  C   UNL     1       5.658  -1.982   5.998  0.00  0.00    +0.017 C 
ATOM      2  C   UNL     1       5.682  -0.453   5.739  0.00  0.00    +0.025 C 
ATOM      3  C   UNL     1       7.010  -0.249   4.980  0.00  0.00    +0.088 C 
ATOM      4  N   UNL     1       7.878  -1.396   5.303  0.00  0.00    -0.298 NA
ATOM      5  C   UNL     1       7.158  -2.281   6.244  0.00  0.00    +0.085 C 
ATOM      6  C   UNL     1       8.266  -2.123   4.087  0.00  0.00    +0.105 C 
ENDROOT
BRANCH   3   7
ATOM      7  C   UNL     1       7.664   1.033   5.425  0.00  0.00    -0.012 A 
ATOM      8  C   UNL     1       6.895   2.100   5.848  0.00  0.00    +0.115 A 
ATOM      9  N   UNL     1       7.460   3.226   6.240  0.00  0.00    -0.263 NA
ATOM     10  C   UNL     1       8.769   3.379   6.244  0.00  0.00    +0.111 A 
ATOM     11  C   UNL     1       9.603   2.355   5.835  0.00  0.00    +0.020 A 
ATOM     12  C   UNL     1       9.045   1.155   5.421  0.00  0.00    +0.008 A 
ENDBRANCH   3   7
TORSDOF 1
ENDMDL
MODEL 5
REMARK VINA RESULT:    -1.378      1.750      4.091
REMARK INTER + INTRA:          -1.674
REMARK INTER:                  -1.459
REMARK INTRA:                  -0.215
REMARK UNBOUND:                -0.215
REMARK  Name = Nicotine.pdb
REMARK  2 active torsions:
REMARK  status: ('A' for Active; 'I' for Inactive)
REMARK    1  A    between atoms: C_3  and  C_6
REMARK    2  A    between atoms: N_4  and  C_12
REMARK                            x       y       z     vdW  Elec       q    Type
REMARK                         _______ _______ _______ _____ _____    ______ ____
ROOT
ATOM      1  C   UNL     1       4.838  -0.016   6.193  0.00  0.00    +0.017 C 
ATOM      2  C   UNL     1       6.282  -0.583   6.242  0.00  0.00    +0.025 C 
ATOM      3  C   UNL     1       7.156   0.677   6.068  0.00  0.00    +0.088 C 
ATOM      4  N   UNL     1       6.321   1.701   5.414  0.00  0.00    -0.298 NA
ATOM      5  C   UNL     1       4.985   1.123   5.154  0.00  0.00    +0.085 C 
ATOM      6  C   UNL     1       6.221   2.909   6.243  0.00  0.00    +0.105 C 
ENDROOT
BRANCH   3   7
ATOM      7  C   UNL     1       8.349   0.358   5.205  0.00  0.00    -0.012 A 
ATOM      8  C   UNL     1       8.385  -0.808   4.465  0.00  0.00    +0.115 A 
ATOM      9  N   UNL     1       9.426  -1.095   3.707  0.00  0.00    -0.263 NA
ATOM     10  C   UNL     1      10.465  -0.289   3.625  0.00  0.00    +0.111 A 
ATOM     11  C   UNL     1      10.501   0.896   4.335  0.00  0.00    +0.020 A 
ATOM     12  C   UNL     1       9.422   1.234   5.139  0.00  0.00    +0.008 A 
ENDBRANCH   3   7
TORSDOF 1
ENDMDL
