MODEL 1
REMARK VINA RESULT:    -4.235      0.000      0.000
REMARK INTER + INTRA:          -4.706
REMARK INTER:                  -4.483
REMARK INTRA:                  -0.223
REMARK UNBOUND:                -0.223
REMARK  Name = Nicotine.pdb
REMARK  2 active torsions:
REMARK  status: ('A' for Active; 'I' for Inactive)
REMARK    1  A    between atoms: C_3  and  C_6
REMARK    2  A    between atoms: N_4  and  C_12
REMARK                            x       y       z     vdW  Elec       q    Type
REMARK                         _______ _______ _______ _____ _____    ______ ____
ROOT
ATOM      1  C   UNL     1       2.011   3.895   1.970  0.00  0.00    +0.017 C 
ATOM      2  C   UNL     1       3.032   4.193   0.841  0.00  0.00    +0.025 C 
ATOM      3  C   UNL     1       2.675   5.635   0.422  0.00  0.00    +0.088 C 
ATOM      4  N   UNL     1       1.281   5.878   0.835  0.00  0.00    -0.298 NA
ATOM      5  C   UNL     1       0.755   4.647   1.463  0.00  0.00    +0.085 C 
ATOM      6  C   UNL     1       1.194   7.018   1.756  0.00  0.00    +0.105 C 
ENDROOT
BRANCH   3   7
ATOM      7  C   UNL     1       2.802   5.782  -1.072  0.00  0.00    -0.012 A 
ATOM      8  C   UNL     1       1.721   6.192  -1.829  0.00  0.00    +0.115 A 
ATOM      9  N   UNL     1       1.823   6.323  -3.137  0.00  0.00    -0.263 NA
ATOM     10  C   UNL     1       2.950   6.071  -3.772  0.00  0.00    +0.111 A 
ATOM     11  C   UNL     1       4.075   5.657  -3.082  0.00  0.00    +0.020 A 
ATOM     12  C   UNL     1       4.006   5.513  -1.705  0.00  0.00    +0.008 A 
ENDBRANCH   3   7
TORSDOF 1
ENDMDL
MODEL 2
REMARK VINA RESULT:    -4.233      5.333      7.680
REMARK INTER + INTRA:          -4.704
REMARK INTER:                  -4.515
REMARK INTRA:                  -0.188
REMARK UNBOUND:                -0.223
REMARK  Name = Nicotine.pdb
REMARK  2 active torsions:
REMARK  status: ('A' for Active; 'I' for Inactive)
REMARK    1  A    between atoms: C_3  and  C_6
REMARK    2  A    between atoms: N_4  and  C_12
REMARK                            x       y       z     vdW  Elec       q    Type
REMARK                         _______ _______ _______ _____ _____    ______ ____
ROOT
ATOM      1  C   UNL     1       5.630   6.150  -3.514  0.00  0.00    +0.017 C 
ATOM      2  C   UNL     1       7.085   5.611  -3.522  0.00  0.00    +0.025 C 
ATOM      3  C   UNL     1       7.404   5.496  -5.028  0.00  0.00    +0.088 C 
ATOM      4  N   UNL     1       6.118   5.405  -5.741  0.00  0.00    -0.298 NA
ATOM      5  C   UNL     1       5.024   5.433  -4.747  0.00  0.00    +0.085 C 
ATOM      6  C   UNL     1       5.975   6.497  -6.712  0.00  0.00    +0.105 C 
ENDROOT
BRANCH   3   7
ATOM      7  C   UNL     1       8.223   4.257  -5.285  0.00  0.00    -0.012 A 
ATOM      8  C   UNL     1       9.128   3.809  -4.341  0.00  0.00    +0.115 A 
ATOM      9  N   UNL     1       9.848   2.726  -4.558  0.00  0.00    -0.263 NA
ATOM     10  C   UNL     1       9.738   2.032  -5.673  0.00  0.00    +0.111 A 
ATOM     11  C   UNL     1       8.854   2.420  -6.663  0.00  0.00    +0.020 A 
ATOM     12  C   UNL     1       8.076   3.550  -6.468  0.00  0.00    +0.008 A 
ENDBRANCH   3   7
TORSDOF 1
ENDMDL
MODEL 3
REMARK VINA RESULT:    -4.221      5.310      8.027
REMARK INTER + INTRA:          -4.691
REMARK INTER:                  -4.503
REMARK INTRA:                  -0.188
REMARK UNBOUND:                -0.223
REMARK  Name = Nicotine.pdb
REMARK  2 active torsions:
REMARK  status: ('A' for Active; 'I' for Inactive)
REMARK    1  A    between atoms: C_3  and  C_6
REMARK    2  A    between atoms: N_4  and  C_12
REMARK                            x       y       z     vdW  Elec       q    Type
REMARK                         _______ _______ _______ _____ _____    ______ ____
ROOT
ATOM      1  C   UNL     1       9.295   2.153  -6.401  0.00  0.00    +0.017 C 
ATOM      2  C   UNL     1       8.042   3.059  -6.523  0.00  0.00    +0.025 C 
ATOM      3  C   UNL     1       8.479   4.354  -5.805  0.00  0.00    +0.088 C 
ATOM      4  N   UNL     1       9.583   3.999  -4.896  0.00  0.00    -0.298 NA
ATOM      5  C   UNL     1       9.829   2.545  -5.000  0.00  0.00    +0.085 C 
ATOM      6  C   UNL     1      10.795   4.763  -5.214  0.00  0.00    +0.105 C 
ENDROOT
BRANCH   3   7
ATOM      7  C   UNL     1       7.325   4.918  -5.018  0.00  0.00    -0.012 A 
ATOM      8  C   UNL     1       6.029   4.778  -5.478  0.00  0.00    +0.115 A 
ATOM      9  N   UNL     1       5.013   5.268  -4.795  0.00  0.00    -0.263 NA
ATOM     10  C   UNL     1       5.189   5.907  -3.655  0.00  0.00    +0.111 A 
ATOM     11  C   UNL     1       6.456   6.085  -3.131  0.00  0.00    +0.020 A 
ATOM     12  C   UNL     1       7.548   5.578  -3.819  0.00  0.00    +0.008 A 
ENDBRANCH   3   7
TORSDOF 1
ENDMDL
MODEL 4
REMARK VINA RESULT:    -4.020      1.675      2.828
REMARK INTER + INTRA:          -4.478
REMARK INTER:                  -4.264
REMARK INTRA:                  -0.215
REMARK UNBOUND:                -0.223
REMARK  Name = Nicotine.pdb
REMARK  2 active torsions:
REMARK  status: ('A' for Active; 'I' for Inactive)
REMARK    1  A    between atoms: C_3  and  C_6
REMARK    2  A    between atoms: N_4  and  C_12
REMARK                            x       y       z     vdW  Elec       q    Type
REMARK                         _______ _______ _______ _____ _____    ______ ____
ROOT
ATOM      1  C   UNL     1       0.893   6.449  -0.641  0.00  0.00    +0.017 C 
ATOM      2  C   UNL     1       1.384   6.023  -2.050  0.00  0.00    +0.025 C 
ATOM      3  C   UNL     1       2.603   5.129  -1.736  0.00  0.00    +0.088 C 
ATOM      4  N   UNL     1       3.080   5.496  -0.391  0.00  0.00    -0.298 NA
ATOM      5  C   UNL     1       2.231   6.589   0.128  0.00  0.00    +0.085 C 
ATOM      6  C   UNL     1       3.057   4.337   0.511  0.00  0.00    +0.105 C 
ENDROOT
BRANCH   3   7
ATOM      7  C   UNL     1       3.690   5.370  -2.751  0.00  0.00    -0.012 A 
ATOM      8  C   UNL     1       3.477   5.080  -4.086  0.00  0.00    +0.115 A 
ATOM      9  N   UNL     1       4.424   5.288  -4.980  0.00  0.00    -0.263 NA
ATOM     10  C   UNL     1       5.601   5.776  -4.643  0.00  0.00    +0.111 A 
ATOM     11  C   UNL     1       5.886   6.090  -3.327  0.00  0.00    +0.020 A 
ATOM     12  C   UNL     1       4.914   5.890  -2.360  0.00  0.00    +0.008 A 
ENDBRANCH   3   7
TORSDOF 1
ENDMDL
MODEL 5
REMARK VINA RESULT:    -3.935      1.346      4.650
REMARK INTER + INTRA:          -4.388
REMARK INTER:                  -4.174
REMARK INTRA:                  -0.214
REMARK UNBOUND:                -0.223
REMARK  Name = Nicotine.pdb
REMARK  2 active torsions:
REMARK  status: ('A' for Active; 'I' for Inactive)
REMARK    1  A    between atoms: C_3  and  C_6
REMARK    2  A    between atoms: N_4  and  C_12
REMARK                            x       y       z     vdW  Elec       q    Type
REMARK                         _______ _______ _______ _____ _____    ______ ____
ROOT
ATOM      1  C   UNL     1       2.745   6.701  -4.356  0.00  0.00    +0.017 C 
ATOM      2  C   UNL     1       2.244   7.023  -2.924  0.00  0.00    +0.025 C 
ATOM      3  C   UNL     1       3.459   6.666  -2.042  0.00  0.00    +0.088 C 
ATOM      4  N   UNL     1       4.290   5.719  -2.807  0.00  0.00    -0.298 NA
ATOM      5  C   UNL     1       3.633   5.457  -4.105  0.00  0.00    +0.085 C 
ATOM      6  C   UNL     1       5.647   6.246  -3.000  0.00  0.00    +0.105 C 
ENDROOT
BRANCH   3   7
ATOM      7  C   UNL     1       2.993   6.023  -0.762  0.00  0.00    -0.012 A 
ATOM      8  C   UNL     1       2.218   6.734   0.136  0.00  0.00    +0.115 A 
ATOM      9  N   UNL     1       1.806   6.178   1.258  0.00  0.00    -0.263 NA
ATOM     10  C   UNL     1       2.112   4.934   1.569  0.00  0.00    +0.111 A 
ATOM     11  C   UNL     1       2.882   4.161   0.721  0.00  0.00    +0.020 A 
ATOM     12  C   UNL     1       3.329   4.710  -0.472  0.00  0.00    +0.008 A 
ENDBRANCH   3   7
TORSDOF 1
ENDMDL
MODEL 6
REMARK VINA RESULT:    -3.920      2.086      3.237
REMARK INTER + INTRA:          -4.372
REMARK INTER:                  -4.154
REMARK INTRA:                  -0.218
REMARK UNBOUND:                -0.223
REMARK  Name = Nicotine.pdb
REMARK  2 active torsions:
REMARK  status: ('A' for Active; 'I' for Inactive)
REMARK    1  A    between atoms: C_3  and  C_6
REMARK    2  A    between atoms: N_4  and  C_12
REMARK                            x       y       z     vdW  Elec       q    Type
REMARK                         _______ _______ _______ _____ _____    ______ ____
ROOT
ATOM      1  C   UNL     1      -0.022   2.204   4.074  0.00  0.00    +0.017 C 
ATOM      2  C   UNL     1       1.203   2.456   3.157  0.00  0.00    +0.025 C 
ATOM      3  C   UNL     1       1.215   3.992   3.007  0.00  0.00    +0.088 C 
ATOM      4  N   UNL     1      -0.149   4.469   3.296  0.00  0.00    -0.298 NA
ATOM      5  C   UNL     1      -1.005   3.300   3.592  0.00  0.00    +0.085 C 
ATOM      6  C   UNL     1      -0.149   5.418   4.417  0.00  0.00    +0.105 C 
ENDROOT
BRANCH   3   7
ATOM      7  C   UNL     1       1.603   4.367   1.601  0.00  0.00    -0.012 A 
ATOM      8  C   UNL     1       0.700   5.006   0.773  0.00  0.00    +0.115 A 
ATOM      9  N   UNL     1       1.032   5.338  -0.460  0.00  0.00    -0.263 NA
ATOM     10  C   UNL     1       2.227   5.076  -0.950  0.00  0.00    +0.111 A 
ATOM     11  C   UNL     1       3.184   4.440  -0.180  0.00  0.00    +0.020 A 
ATOM     12  C   UNL     1       2.873   4.081   1.122  0.00  0.00    +0.008 A 
ENDBRANCH   3   7
TORSDOF 1
ENDMDL
MODEL 7
REMARK VINA RESULT:    -3.851      4.195      7.081
REMARK INTER + INTRA:          -4.299
REMARK INTER:                  -4.047
REMARK INTRA:                  -0.252
REMARK UNBOUND:                -0.223
REMARK  Name = Nicotine.pdb
REMARK  2 active torsions:
REMARK  status: ('A' for Active; 'I' for Inactive)
REMARK    1  A    between atoms: C_3  and  C_6
REMARK    2  A    between atoms: N_4  and  C_12
REMARK                            x       y       z     vdW  Elec       q    Type
REMARK                         _______ _______ _______ _____ _____    ______ ____
ROOT
ATOM      1  C   UNL     1       9.826   5.536  -3.905  0.00  0.00    +0.017 C 
ATOM      2  C   UNL     1       8.509   4.757  -3.650  0.00  0.00    +0.025 C 
ATOM      3  C   UNL     1       7.662   5.088  -4.897  0.00  0.00    +0.088 C 
ATOM      4  N   UNL     1       8.190   6.342  -5.463  0.00  0.00    -0.298 NA
ATOM      5  C   UNL     1       9.302   6.812  -4.610  0.00  0.00    +0.085 C 
ATOM      6  C   UNL     1       8.633   6.149  -6.850  0.00  0.00    +0.105 C 
ENDROOT
BRANCH   3   7
ATOM      7  C   UNL     1       6.219   5.268  -4.504  0.00  0.00    -0.012 A 
ATOM      8  C   UNL     1       5.207   4.835  -5.340  0.00  0.00    +0.115 A 
ATOM      9  N   UNL     1       3.942   4.989  -5.004  0.00  0.00    -0.263 NA
ATOM     10  C   UNL     1       3.591   5.556  -3.866  0.00  0.00    +0.111 A 
ATOM     11  C   UNL     1       4.547   6.013  -2.979  0.00  0.00    +0.020 A 
ATOM     12  C   UNL     1       5.889   5.864  -3.296  0.00  0.00    +0.008 A 
ENDBRANCH   3   7
TORSDOF 1
ENDMDL
MODEL 8
REMARK VINA RESULT:    -3.759      1.461      4.623
REMARK INTER + INTRA:          -4.202
REMARK INTER:                  -3.982
REMARK INTRA:                  -0.220
REMARK UNBOUND:                -0.223
REMARK  Name = Nicotine.pdb
REMARK  2 active torsions:
REMARK  status: ('A' for Active; 'I' for Inactive)
REMARK    1  A    between atoms: C_3  and  C_6
REMARK    2  A    between atoms: N_4  and  C_12
REMARK                            x       y       z     vdW  Elec       q    Type
REMARK                         _______ _______ _______ _____ _____    ______ ____
ROOT
ATOM      1  C   UNL     1       3.704   5.576  -1.500  0.00  0.00    +0.017 C 
ATOM      2  C   UNL     1       3.256   4.697  -0.303  0.00  0.00    +0.025 C 
ATOM      3  C   UNL     1       1.740   4.977  -0.216  0.00  0.00    +0.088 C 
ATOM      4  N   UNL     1       1.496   6.273  -0.872  0.00  0.00    -0.298 NA
ATOM      5  C   UNL     1       2.790   6.817  -1.337  0.00  0.00    +0.085 C 
ATOM      6  C   UNL     1       0.554   6.129  -1.989  0.00  0.00    +0.105 C 
ENDROOT
BRANCH   3   7
ATOM      7  C   UNL     1       1.314   5.043   1.228  0.00  0.00    -0.012 A 
ATOM      8  C   UNL     1       0.514   6.079   1.673  0.00  0.00    +0.115 A 
ATOM      9  N   UNL     1       0.136   6.145   2.935  0.00  0.00    -0.263 NA
ATOM     10  C   UNL     1       0.502   5.235   3.817  0.00  0.00    +0.111 A 
ATOM     11  C   UNL     1       1.301   4.170   3.444  0.00  0.00    +0.020 A 
ATOM     12  C   UNL     1       1.714   4.065   2.125  0.00  0.00    +0.008 A 
ENDBRANCH   3   7
TORSDOF 1
ENDMDL
MODEL 9
REMARK VINA RESULT:    -3.729      2.258      5.174
REMARK INTER + INTRA:          -4.170
REMARK INTER:                  -3.963
REMARK INTRA:                  -0.208
REMARK UNBOUND:                -0.223
REMARK  Name = Nicotine.pdb
REMARK  2 active torsions:
REMARK  status: ('A' for Active; 'I' for Inactive)
REMARK    1  A    between atoms: C_3  and  C_6
REMARK    2  A    between atoms: N_4  and  C_12
REMARK                            x       y       z     vdW  Elec       q    Type
REMARK                         _______ _______ _______ _____ _____    ______ ____
ROOT
ATOM      1  C   UNL     1       3.214   4.845  -0.725  0.00  0.00    +0.017 C 
ATOM      2  C   UNL     1       3.088   4.016   0.581  0.00  0.00    +0.025 C 
ATOM      3  C   UNL     1       1.817   4.594   1.238  0.00  0.00    +0.088 C 
ATOM      4  N   UNL     1       1.614   5.945   0.684  0.00  0.00    -0.298 NA
ATOM      5  C   UNL     1       2.712   6.236  -0.262  0.00  0.00    +0.085 C 
ATOM      6  C   UNL     1       0.307   6.053   0.024  0.00  0.00    +0.105 C 
ENDROOT
BRANCH   3   7
ATOM      7  C   UNL     1       2.002   4.672   2.731  0.00  0.00    -0.012 A 
ATOM      8  C   UNL     1       1.224   3.901   3.574  0.00  0.00    +0.115 A 
ATOM      9  N   UNL     1       1.380   3.964   4.882  0.00  0.00    -0.263 NA
ATOM     10  C   UNL     1       2.275   4.757   5.436  0.00  0.00    +0.111 A 
ATOM     11  C   UNL     1       3.090   5.557   4.657  0.00  0.00    +0.020 A 
ATOM     12  C   UNL     1       2.959   5.514   3.277  0.00  0.00    +0.008 A 
ENDBRANCH   3   7
TORSDOF 1
ENDMDL
MODEL 10
REMARK VINA RESULT:    -3.712      2.305      3.285
REMARK INTER + INTRA:          -4.152
REMARK INTER:                  -3.951
REMARK INTRA:                  -0.201
REMARK UNBOUND:                -0.223
REMARK  Name = Nicotine.pdb
REMARK  2 active torsions:
REMARK  status: ('A' for Active; 'I' for Inactive)
REMARK    1  A    between atoms: C_3  and  C_6
REMARK    2  A    between atoms: N_4  and  C_12
REMARK                            x       y       z     vdW  Elec       q    Type
REMARK                         _______ _______ _______ _____ _____    ______ ____
ROOT
ATOM      1  C   UNL     1       2.694   5.128   5.458  0.00  0.00    +0.017 C 
ATOM      2  C   UNL     1       3.259   5.817   4.188  0.00  0.00    +0.025 C 
ATOM      3  C   UNL     1       2.024   5.912   3.266  0.00  0.00    +0.088 C 
ATOM      4  N   UNL     1       1.065   4.886   3.714  0.00  0.00    -0.298 NA
ATOM      5  C   UNL     1       1.659   4.149   4.849  0.00  0.00    +0.085 C 
ATOM      6  C   UNL     1      -0.217   5.494   4.093  0.00  0.00    +0.105 C 
ENDROOT
BRANCH   3   7
ATOM      7  C   UNL     1       2.429   5.649   1.839  0.00  0.00    -0.012 A 
ATOM      8  C   UNL     1       2.419   6.672   0.910  0.00  0.00    +0.115 A 
ATOM      9  N   UNL     1       2.771   6.450  -0.342  0.00  0.00    -0.263 NA
ATOM     10  C   UNL     1       3.145   5.255  -0.755  0.00  0.00    +0.111 A 
ATOM     11  C   UNL     1       3.181   4.184   0.118  0.00  0.00    +0.020 A 
ATOM     12  C   UNL     1       2.822   4.380   1.442  0.00  0.00    +0.008 A 
ENDBRANCH   3   7
TORSDOF 1
ENDMDL
