MODEL 1
REMARK VINA RESULT:     6.263      0.000      0.000
REMARK INTER + INTRA:           6.405
REMARK INTER:                   6.629
REMARK INTRA:                  -0.224
REMARK UNBOUND:                -0.224
REMARK  Name = Nicotine.pdb
REMARK  2 active torsions:
REMARK  status: ('A' for Active; 'I' for Inactive)
REMARK    1  A    between atoms: C_3  and  C_6
REMARK    2  A    between atoms: N_4  and  C_12
REMARK                            x       y       z     vdW  Elec       q    Type
REMARK                         _______ _______ _______ _____ _____    ______ ____
ROOT
ATOM      1  C   UNL     1      -4.488   3.072   4.645  0.00  0.00    +0.017 C 
ATOM      2  C   UNL     1      -3.277   3.194   5.608  0.00  0.00    +0.025 C 
ATOM      3  C   UNL     1      -3.285   4.690   5.987  0.00  0.00    +0.088 C 
ATOM      4  N   UNL     1      -4.012   5.407   4.924  0.00  0.00    -0.298 NA
ATOM      5  C   UNL     1      -4.431   4.428   3.898  0.00  0.00    +0.085 C 
ATOM      6  C   UNL     1      -5.171   6.125   5.471  0.00  0.00    +0.105 C 
ENDROOT
BRANCH   3   7
ATOM      7  C   UNL     1      -1.871   5.203   6.078  0.00  0.00    -0.012 A 
ATOM      8  C   UNL     1      -1.623   6.560   6.155  0.00  0.00    +0.115 A 
ATOM      9  N   UNL     1      -0.389   7.017   6.235  0.00  0.00    -0.263 NA
ATOM     10  C   UNL     1       0.651   6.207   6.244  0.00  0.00    +0.111 A 
ATOM     11  C   UNL     1       0.481   4.837   6.170  0.00  0.00    +0.020 A 
ATOM     12  C   UNL     1      -0.802   4.319   6.091  0.00  0.00    +0.008 A 
ENDBRANCH   3   7
TORSDOF 1
ENDMDL
