MODEL 1
REMARK VINA RESULT:    -3.434      0.000      0.000
REMARK INTER + INTRA:          -3.851
REMARK INTER:                  -3.635
REMARK INTRA:                  -0.216
REMARK UNBOUND:                -0.216
REMARK  Name = Nicotine.pdb
REMARK  2 active torsions:
REMARK  status: ('A' for Active; 'I' for Inactive)
REMARK    1  A    between atoms: C_3  and  C_6
REMARK    2  A    between atoms: N_4  and  C_12
REMARK                            x       y       z     vdW  Elec       q    Type
REMARK                         _______ _______ _______ _____ _____    ______ ____
ROOT
ATOM      1  C   UNL     1       9.859  -0.273  -5.144  0.00  0.00    +0.017 C 
ATOM      2  C   UNL     1       9.671   1.130  -4.508  0.00  0.00    +0.025 C 
ATOM      3  C   UNL     1       8.733   1.841  -5.506  0.00  0.00    +0.088 C 
ATOM      4  N   UNL     1       8.869   1.151  -6.801  0.00  0.00    -0.298 NA
ATOM      5  C   UNL     1       9.864   0.067  -6.655  0.00  0.00    +0.085 C 
ATOM      6  C   UNL     1       7.577   0.622  -7.256  0.00  0.00    +0.105 C 
ENDROOT
BRANCH   3   7
ATOM      7  C   UNL     1       9.135   3.286  -5.648  0.00  0.00    -0.012 A 
ATOM      8  C   UNL     1       8.807   3.994  -6.788  0.00  0.00    +0.115 A 
ATOM      9  N   UNL     1       9.156   5.259  -6.920  0.00  0.00    -0.263 NA
ATOM     10  C   UNL     1       9.825   5.895  -5.980  0.00  0.00    +0.111 A 
ATOM     11  C   UNL     1      10.187   5.252  -4.811  0.00  0.00    +0.020 A 
ATOM     12  C   UNL     1       9.834   3.923  -4.634  0.00  0.00    +0.008 A 
ENDBRANCH   3   7
TORSDOF 1
ENDMDL
MODEL 2
REMARK VINA RESULT:    -3.406      1.535      2.444
REMARK INTER + INTRA:          -3.822
REMARK INTER:                  -3.654
REMARK INTRA:                  -0.168
REMARK UNBOUND:                -0.216
REMARK  Name = Nicotine.pdb
REMARK  2 active torsions:
REMARK  status: ('A' for Active; 'I' for Inactive)
REMARK    1  A    between atoms: C_3  and  C_6
REMARK    2  A    between atoms: N_4  and  C_12
REMARK                            x       y       z     vdW  Elec       q    Type
REMARK                         _______ _______ _______ _____ _____    ______ ____
ROOT
ATOM      1  C   UNL     1       7.576  -0.601  -7.151  0.00  0.00    +0.017 C 
ATOM      2  C   UNL     1       7.698   0.946  -7.168  0.00  0.00    +0.025 C 
ATOM      3  C   UNL     1       9.217   1.175  -7.014  0.00  0.00    +0.088 C 
ATOM      4  N   UNL     1       9.782  -0.038  -6.396  0.00  0.00    -0.298 NA
ATOM      5  C   UNL     1       8.681  -0.991  -6.138  0.00  0.00    +0.085 C 
ATOM      6  C   UNL     1      10.809  -0.638  -7.256  0.00  0.00    +0.105 C 
ENDROOT
BRANCH   3   7
ATOM      7  C   UNL     1       9.468   2.368  -6.129  0.00  0.00    -0.012 A 
ATOM      8  C   UNL     1       9.310   2.269  -4.760  0.00  0.00    +0.115 A 
ATOM      9  N   UNL     1       9.528   3.308  -3.978  0.00  0.00    -0.263 NA
ATOM     10  C   UNL     1       9.902   4.475  -4.464  0.00  0.00    +0.111 A 
ATOM     11  C   UNL     1      10.082   4.650  -5.823  0.00  0.00    +0.020 A 
ATOM     12  C   UNL     1       9.867   3.578  -6.676  0.00  0.00    +0.008 A 
ENDBRANCH   3   7
TORSDOF 1
ENDMDL
MODEL 3
REMARK VINA RESULT:    -3.373      1.742      2.648
REMARK INTER + INTRA:          -3.787
REMARK INTER:                  -3.569
REMARK INTRA:                  -0.218
REMARK UNBOUND:                -0.216
REMARK  Name = Nicotine.pdb
REMARK  2 active torsions:
REMARK  status: ('A' for Active; 'I' for Inactive)
REMARK    1  A    between atoms: C_3  and  C_6
REMARK    2  A    between atoms: N_4  and  C_12
REMARK                            x       y       z     vdW  Elec       q    Type
REMARK                         _______ _______ _______ _____ _____    ______ ____
ROOT
ATOM      1  C   UNL     1       7.969   1.264  -5.845  0.00  0.00    +0.017 C 
ATOM      2  C   UNL     1       8.375   2.609  -6.503  0.00  0.00    +0.025 C 
ATOM      3  C   UNL     1       9.749   2.905  -5.866  0.00  0.00    +0.088 C 
ATOM      4  N   UNL     1       9.816   2.153  -4.600  0.00  0.00    -0.298 NA
ATOM      5  C   UNL     1       8.540   1.430  -4.415  0.00  0.00    +0.085 C 
ATOM      6  C   UNL     1      10.954   1.225  -4.597  0.00  0.00    +0.105 C 
ENDROOT
BRANCH   3   7
ATOM      7  C   UNL     1       9.881   4.381  -5.595  0.00  0.00    -0.012 A 
ATOM      8  C   UNL     1      10.425   4.828  -4.405  0.00  0.00    +0.115 A 
ATOM      9  N   UNL     1      10.544   6.118  -4.160  0.00  0.00    -0.263 NA
ATOM     10  C   UNL     1      10.153   7.028  -5.030  0.00  0.00    +0.111 A 
ATOM     11  C   UNL     1       9.600   6.657  -6.242  0.00  0.00    +0.020 A 
ATOM     12  C   UNL     1       9.464   5.309  -6.537  0.00  0.00    +0.008 A 
ENDBRANCH   3   7
TORSDOF 1
ENDMDL
MODEL 4
REMARK VINA RESULT:    -3.372      1.556      2.246
REMARK INTER + INTRA:          -3.786
REMARK INTER:                  -3.583
REMARK INTRA:                  -0.203
REMARK UNBOUND:                -0.216
REMARK  Name = Nicotine.pdb
REMARK  2 active torsions:
REMARK  status: ('A' for Active; 'I' for Inactive)
REMARK    1  A    between atoms: C_3  and  C_6
REMARK    2  A    between atoms: N_4  and  C_12
REMARK                            x       y       z     vdW  Elec       q    Type
REMARK                         _______ _______ _______ _____ _____    ______ ____
ROOT
ATOM      1  C   UNL     1       7.950   1.173  -5.689  0.00  0.00    +0.017 C 
ATOM      2  C   UNL     1       8.324   2.491  -6.417  0.00  0.00    +0.025 C 
ATOM      3  C   UNL     1       9.703   2.839  -5.817  0.00  0.00    +0.088 C 
ATOM      4  N   UNL     1       9.801   2.150  -4.518  0.00  0.00    -0.298 NA
ATOM      5  C   UNL     1       8.540   1.416  -4.278  0.00  0.00    +0.085 C 
ATOM      6  C   UNL     1      10.954   1.240  -4.490  0.00  0.00    +0.105 C 
ENDROOT
BRANCH   3   7
ATOM      7  C   UNL     1       9.814   4.328  -5.619  0.00  0.00    -0.012 A 
ATOM      8  C   UNL     1       9.470   5.197  -6.637  0.00  0.00    +0.115 A 
ATOM      9  N   UNL     1       9.564   6.502  -6.471  0.00  0.00    -0.263 NA
ATOM     10  C   UNL     1       9.988   7.028  -5.339  0.00  0.00    +0.111 A 
ATOM     11  C   UNL     1      10.350   6.222  -4.276  0.00  0.00    +0.020 A 
ATOM     12  C   UNL     1      10.258   4.845  -4.411  0.00  0.00    +0.008 A 
ENDBRANCH   3   7
TORSDOF 1
ENDMDL
MODEL 5
REMARK VINA RESULT:    -3.226      1.810      4.961
REMARK INTER + INTRA:          -3.631
REMARK INTER:                  -3.399
REMARK INTRA:                  -0.232
REMARK UNBOUND:                -0.216
REMARK  Name = Nicotine.pdb
REMARK  2 active torsions:
REMARK  status: ('A' for Active; 'I' for Inactive)
REMARK    1  A    between atoms: C_3  and  C_6
REMARK    2  A    between atoms: N_4  and  C_12
REMARK                            x       y       z     vdW  Elec       q    Type
REMARK                         _______ _______ _______ _____ _____    ______ ____
ROOT
ATOM      1  C   UNL     1       9.074   2.981  -4.221  0.00  0.00    +0.017 C 
ATOM      2  C   UNL     1       9.039   1.430  -4.200  0.00  0.00    +0.025 C 
ATOM      3  C   UNL     1       9.735   1.050  -5.524  0.00  0.00    +0.088 C 
ATOM      4  N   UNL     1       9.626   2.212  -6.425  0.00  0.00    -0.298 NA
ATOM      5  C   UNL     1       8.876   3.278  -5.728  0.00  0.00    +0.085 C 
ATOM      6  C   UNL     1      10.954   2.684  -6.837  0.00  0.00    +0.105 C 
ENDROOT
BRANCH   3   7
ATOM      7  C   UNL     1       9.050  -0.143  -6.139  0.00  0.00    -0.012 A 
ATOM      8  C   UNL     1       9.783  -1.248  -6.526  0.00  0.00    +0.115 A 
ATOM      9  N   UNL     1       9.191  -2.296  -7.065  0.00  0.00    -0.263 NA
ATOM     10  C   UNL     1       7.887  -2.334  -7.256  0.00  0.00    +0.111 A 
ATOM     11  C   UNL     1       7.088  -1.265  -6.894  0.00  0.00    +0.020 A 
ATOM     12  C   UNL     1       7.675  -0.148  -6.319  0.00  0.00    +0.008 A 
ENDBRANCH   3   7
TORSDOF 1
ENDMDL
MODEL 6
REMARK VINA RESULT:    -3.022      1.406      4.550
REMARK INTER + INTRA:          -3.415
REMARK INTER:                  -3.202
REMARK INTRA:                  -0.213
REMARK UNBOUND:                -0.216
REMARK  Name = Nicotine.pdb
REMARK  2 active torsions:
REMARK  status: ('A' for Active; 'I' for Inactive)
REMARK    1  A    between atoms: C_3  and  C_6
REMARK    2  A    between atoms: N_4  and  C_12
REMARK                            x       y       z     vdW  Elec       q    Type
REMARK                         _______ _______ _______ _____ _____    ______ ____
ROOT
ATOM      1  C   UNL     1       8.798   4.579  -7.051  0.00  0.00    +0.017 C 
ATOM      2  C   UNL     1       8.311   3.231  -6.458  0.00  0.00    +0.025 C 
ATOM      3  C   UNL     1       9.362   2.931  -5.369  0.00  0.00    +0.088 C 
ATOM      4  N   UNL     1      10.580   3.685  -5.717  0.00  0.00    -0.298 NA
ATOM      5  C   UNL     1      10.337   4.414  -6.980  0.00  0.00    +0.085 C 
ATOM      6  C   UNL     1      10.954   4.609  -4.639  0.00  0.00    +0.105 C 
ENDROOT
BRANCH   3   7
ATOM      7  C   UNL     1       9.663   1.454  -5.339  0.00  0.00    -0.012 A 
ATOM      8  C   UNL     1       9.210   0.629  -6.351  0.00  0.00    +0.115 A 
ATOM      9  N   UNL     1       9.469  -0.664  -6.333  0.00  0.00    -0.263 NA
ATOM     10  C   UNL     1      10.163  -1.219  -5.359  0.00  0.00    +0.111 A 
ATOM     11  C   UNL     1      10.649  -0.456  -4.314  0.00  0.00    +0.020 A 
ATOM     12  C   UNL     1      10.402   0.908  -4.301  0.00  0.00    +0.008 A 
ENDBRANCH   3   7
TORSDOF 1
ENDMDL
MODEL 7
REMARK VINA RESULT:    -2.527      1.366      1.803
REMARK INTER + INTRA:          -2.891
REMARK INTER:                  -2.677
REMARK INTRA:                  -0.213
REMARK UNBOUND:                -0.216
REMARK  Name = Nicotine.pdb
REMARK  2 active torsions:
REMARK  status: ('A' for Active; 'I' for Inactive)
REMARK    1  A    between atoms: C_3  and  C_6
REMARK    2  A    between atoms: N_4  and  C_12
REMARK                            x       y       z     vdW  Elec       q    Type
REMARK                         _______ _______ _______ _____ _____    ______ ____
ROOT
ATOM      1  C   UNL     1      10.859  -0.846  -4.135  0.00  0.00    +0.017 C 
ATOM      2  C   UNL     1      10.416   0.594  -3.764  0.00  0.00    +0.025 C 
ATOM      3  C   UNL     1       9.465   0.974  -4.918  0.00  0.00    +0.088 C 
ATOM      4  N   UNL     1       9.803   0.112  -6.065  0.00  0.00    -0.298 NA
ATOM      5  C   UNL     1      10.933  -0.761  -5.680  0.00  0.00    +0.085 C 
ATOM      6  C   UNL     1       8.643  -0.683  -6.488  0.00  0.00    +0.105 C 
ENDROOT
BRANCH   3   7
ATOM      7  C   UNL     1       9.660   2.421  -5.288  0.00  0.00    -0.012 A 
ATOM      8  C   UNL     1       9.464   3.415  -4.348  0.00  0.00    +0.115 A 
ATOM      9  N   UNL     1       9.632   4.685  -4.663  0.00  0.00    -0.263 NA
ATOM     10  C   UNL     1       9.990   5.056  -5.876  0.00  0.00    +0.111 A 
ATOM     11  C   UNL     1      10.205   4.118  -6.869  0.00  0.00    +0.020 A 
ATOM     12  C   UNL     1      10.043   2.773  -6.573  0.00  0.00    +0.008 A 
ENDBRANCH   3   7
TORSDOF 1
ENDMDL
