MODEL 1
REMARK VINA RESULT:    -2.998      0.000      0.000
REMARK INTER + INTRA:          -3.420
REMARK INTER:                  -3.173
REMARK INTRA:                  -0.246
REMARK UNBOUND:                -0.246
REMARK  Name = Nicotine.pdb
REMARK  2 active torsions:
REMARK  status: ('A' for Active; 'I' for Inactive)
REMARK    1  A    between atoms: C_3  and  C_6
REMARK    2  A    between atoms: N_4  and  C_12
REMARK                            x       y       z     vdW  Elec       q    Type
REMARK                         _______ _______ _______ _____ _____    ______ ____
ROOT
ATOM      1  C   UNL     1       7.563  -0.162  -2.281  0.00  0.00    +0.017 C 
ATOM      2  C   UNL     1       7.069  -1.631  -2.349  0.00  0.00    +0.025 C 
ATOM      3  C   UNL     1       8.235  -2.357  -3.054  0.00  0.00    +0.088 C 
ATOM      4  N   UNL     1       8.992  -1.340  -3.805  0.00  0.00    -0.298 NA
ATOM      5  C   UNL     1       8.335  -0.029  -3.618  0.00  0.00    +0.085 C 
ATOM      6  C   UNL     1      10.393  -1.295  -3.366  0.00  0.00    +0.105 C 
ENDROOT
BRANCH   3   7
ATOM      7  C   UNL     1       7.694  -3.398  -4.000  0.00  0.00    -0.012 A 
ATOM      8  C   UNL     1       8.553  -4.249  -4.669  0.00  0.00    +0.115 A 
ATOM      9  N   UNL     1       8.088  -5.162  -5.498  0.00  0.00    -0.263 NA
ATOM     10  C   UNL     1       6.796  -5.301  -5.723  0.00  0.00    +0.111 A 
ATOM     11  C   UNL     1       5.876  -4.487  -5.089  0.00  0.00    +0.020 A 
ATOM     12  C   UNL     1       6.328  -3.518  -4.206  0.00  0.00    +0.008 A 
ENDBRANCH   3   7
TORSDOF 1
ENDMDL
MODEL 2
REMARK VINA RESULT:    -2.949      7.158      8.286
REMARK INTER + INTRA:          -3.368
REMARK INTER:                  -3.165
REMARK INTRA:                  -0.203
REMARK UNBOUND:                -0.246
REMARK  Name = Nicotine.pdb
REMARK  2 active torsions:
REMARK  status: ('A' for Active; 'I' for Inactive)
REMARK    1  A    between atoms: C_3  and  C_6
REMARK    2  A    between atoms: N_4  and  C_12
REMARK                            x       y       z     vdW  Elec       q    Type
REMARK                         _______ _______ _______ _____ _____    ______ ____
ROOT
ATOM      1  C   UNL     1       6.770   4.626  -3.600  0.00  0.00    +0.017 C 
ATOM      2  C   UNL     1       6.467   3.551  -2.522  0.00  0.00    +0.025 C 
ATOM      3  C   UNL     1       6.441   4.370  -1.214  0.00  0.00    +0.088 C 
ATOM      4  N   UNL     1       7.212   5.603  -1.454  0.00  0.00    -0.298 NA
ATOM      5  C   UNL     1       7.732   5.571  -2.838  0.00  0.00    +0.085 C 
ATOM      6  C   UNL     1       6.384   6.795  -1.231  0.00  0.00    +0.105 C 
ENDROOT
BRANCH   3   7
ATOM      7  C   UNL     1       7.073   3.577  -0.100  0.00  0.00    -0.012 A 
ATOM      8  C   UNL     1       6.364   2.576   0.535  0.00  0.00    +0.115 A 
ATOM      9  N   UNL     1       6.910   1.877   1.511  0.00  0.00    -0.263 NA
ATOM     10  C   UNL     1       8.144   2.101   1.918  0.00  0.00    +0.111 A 
ATOM     11  C   UNL     1       8.915   3.087   1.330  0.00  0.00    +0.020 A 
ATOM     12  C   UNL     1       8.376   3.838   0.297  0.00  0.00    +0.008 A 
ENDBRANCH   3   7
TORSDOF 1
ENDMDL
MODEL 3
REMARK VINA RESULT:    -2.871      7.409      8.044
REMARK INTER + INTRA:          -3.286
REMARK INTER:                  -3.048
REMARK INTRA:                  -0.238
REMARK UNBOUND:                -0.246
REMARK  Name = Nicotine.pdb
REMARK  2 active torsions:
REMARK  status: ('A' for Active; 'I' for Inactive)
REMARK    1  A    between atoms: C_3  and  C_6
REMARK    2  A    between atoms: N_4  and  C_12
REMARK                            x       y       z     vdW  Elec       q    Type
REMARK                         _______ _______ _______ _____ _____    ______ ____
ROOT
ATOM      1  C   UNL     1       6.524   6.473  -2.384  0.00  0.00    +0.017 C 
ATOM      2  C   UNL     1       6.759   6.020  -0.919  0.00  0.00    +0.025 C 
ATOM      3  C   UNL     1       7.874   4.961  -1.059  0.00  0.00    +0.088 C 
ATOM      4  N   UNL     1       7.835   4.466  -2.446  0.00  0.00    -0.298 NA
ATOM      5  C   UNL     1       6.735   5.148  -3.159  0.00  0.00    +0.085 C 
ATOM      6  C   UNL     1       9.120   4.689  -3.122  0.00  0.00    +0.105 C 
ENDROOT
BRANCH   3   7
ATOM      7  C   UNL     1       7.626   3.826  -0.100  0.00  0.00    -0.012 A 
ATOM      8  C   UNL     1       8.649   3.350   0.699  0.00  0.00    +0.115 A 
ATOM      9  N   UNL     1       8.440   2.356   1.541  0.00  0.00    -0.263 NA
ATOM     10  C   UNL     1       7.259   1.781   1.655  0.00  0.00    +0.111 A 
ATOM     11  C   UNL     1       6.189   2.204   0.889  0.00  0.00    +0.020 A 
ATOM     12  C   UNL     1       6.369   3.250  -0.003  0.00  0.00    +0.008 A 
ENDBRANCH   3   7
TORSDOF 1
ENDMDL
MODEL 4
REMARK VINA RESULT:    -2.862      6.648      7.791
REMARK INTER + INTRA:          -3.275
REMARK INTER:                  -3.057
REMARK INTRA:                  -0.218
REMARK UNBOUND:                -0.246
REMARK  Name = Nicotine.pdb
REMARK  2 active torsions:
REMARK  status: ('A' for Active; 'I' for Inactive)
REMARK    1  A    between atoms: C_3  and  C_6
REMARK    2  A    between atoms: N_4  and  C_12
REMARK                            x       y       z     vdW  Elec       q    Type
REMARK                         _______ _______ _______ _____ _____    ______ ____
ROOT
ATOM      1  C   UNL     1       9.096   4.176   0.891  0.00  0.00    +0.017 C 
ATOM      2  C   UNL     1       8.360   5.061  -0.149  0.00  0.00    +0.025 C 
ATOM      3  C   UNL     1       7.124   4.212  -0.515  0.00  0.00    +0.088 C 
ATOM      4  N   UNL     1       7.444   2.811  -0.186  0.00  0.00    -0.298 NA
ATOM      5  C   UNL     1       8.824   2.754   0.340  0.00  0.00    +0.085 C 
ATOM      6  C   UNL     1       6.486   2.266   0.786  0.00  0.00    +0.105 C 
ENDROOT
BRANCH   3   7
ATOM      7  C   UNL     1       6.832   4.340  -1.987  0.00  0.00    -0.012 A 
ATOM      8  C   UNL     1       6.516   3.223  -2.737  0.00  0.00    +0.115 A 
ATOM      9  N   UNL     1       6.258   3.327  -4.026  0.00  0.00    -0.263 NA
ATOM     10  C   UNL     1       6.291   4.489  -4.648  0.00  0.00    +0.111 A 
ATOM     11  C   UNL     1       6.598   5.650  -3.964  0.00  0.00    +0.020 A 
ATOM     12  C   UNL     1       6.870   5.581  -2.606  0.00  0.00    +0.008 A 
ENDBRANCH   3   7
TORSDOF 1
ENDMDL
MODEL 5
REMARK VINA RESULT:    -2.853      7.564      9.028
REMARK INTER + INTRA:          -3.266
REMARK INTER:                  -3.091
REMARK INTRA:                  -0.175
REMARK UNBOUND:                -0.246
REMARK  Name = Nicotine.pdb
REMARK  2 active torsions:
REMARK  status: ('A' for Active; 'I' for Inactive)
REMARK    1  A    between atoms: C_3  and  C_6
REMARK    2  A    between atoms: N_4  and  C_12
REMARK                            x       y       z     vdW  Elec       q    Type
REMARK                         _______ _______ _______ _____ _____    ______ ____
ROOT
ATOM      1  C   UNL     1       9.144  -0.590   4.767  0.00  0.00    +0.017 C 
ATOM      2  C   UNL     1       9.635   0.425   3.701  0.00  0.00    +0.025 C 
ATOM      3  C   UNL     1       8.681   1.622   3.896  0.00  0.00    +0.088 C 
ATOM      4  N   UNL     1       7.465   1.109   4.552  0.00  0.00    -0.298 NA
ATOM      5  C   UNL     1       7.614  -0.349   4.747  0.00  0.00    +0.085 C 
ATOM      6  C   UNL     1       7.229   1.791   5.832  0.00  0.00    +0.105 C 
ENDROOT
BRANCH   3   7
ATOM      7  C   UNL     1       8.329   2.221   2.559  0.00  0.00    -0.012 A 
ATOM      8  C   UNL     1       7.254   1.738   1.837  0.00  0.00    +0.115 A 
ATOM      9  N   UNL     1       6.940   2.257   0.666  0.00  0.00    -0.263 NA
ATOM     10  C   UNL     1       7.631   3.247   0.139  0.00  0.00    +0.111 A 
ATOM     11  C   UNL     1       8.720   3.782   0.803  0.00  0.00    +0.020 A 
ATOM     12  C   UNL     1       9.077   3.266   2.039  0.00  0.00    +0.008 A 
ENDBRANCH   3   7
TORSDOF 1
ENDMDL
MODEL 6
REMARK VINA RESULT:    -2.823      5.826      8.309
REMARK INTER + INTRA:          -3.234
REMARK INTER:                  -3.012
REMARK INTRA:                  -0.223
REMARK UNBOUND:                -0.246
REMARK  Name = Nicotine.pdb
REMARK  2 active torsions:
REMARK  status: ('A' for Active; 'I' for Inactive)
REMARK    1  A    between atoms: C_3  and  C_6
REMARK    2  A    between atoms: N_4  and  C_12
REMARK                            x       y       z     vdW  Elec       q    Type
REMARK                         _______ _______ _______ _____ _____    ______ ____
ROOT
ATOM      1  C   UNL     1       7.116   5.065  -1.556  0.00  0.00    +0.017 C 
ATOM      2  C   UNL     1       8.055   4.920  -0.330  0.00  0.00    +0.025 C 
ATOM      3  C   UNL     1       8.325   3.401  -0.277  0.00  0.00    +0.088 C 
ATOM      4  N   UNL     1       7.221   2.736  -0.992  0.00  0.00    -0.298 NA
ATOM      5  C   UNL     1       6.272   3.769  -1.459  0.00  0.00    +0.085 C 
ATOM      6  C   UNL     1       7.726   1.937  -2.117  0.00  0.00    +0.105 C 
ENDROOT
BRANCH   3   7
ATOM      7  C   UNL     1       8.364   2.936   1.155  0.00  0.00    -0.012 A 
ATOM      8  C   UNL     1       7.588   1.868   1.565  0.00  0.00    +0.115 A 
ATOM      9  N   UNL     1       7.616   1.454   2.817  0.00  0.00    -0.263 NA
ATOM     10  C   UNL     1       8.377   2.037   3.722  0.00  0.00    +0.111 A 
ATOM     11  C   UNL     1       9.181   3.110   3.386  0.00  0.00    +0.020 A 
ATOM     12  C   UNL     1       9.182   3.570   2.078  0.00  0.00    +0.008 A 
ENDBRANCH   3   7
TORSDOF 1
ENDMDL
MODEL 7
REMARK VINA RESULT:    -2.756      5.682      7.743
REMARK INTER + INTRA:          -3.164
REMARK INTER:                  -2.911
REMARK INTRA:                  -0.253
REMARK UNBOUND:                -0.246
REMARK  Name = Nicotine.pdb
REMARK  2 active torsions:
REMARK  status: ('A' for Active; 'I' for Inactive)
REMARK    1  A    between atoms: C_3  and  C_6
REMARK    2  A    between atoms: N_4  and  C_12
REMARK                            x       y       z     vdW  Elec       q    Type
REMARK                         _______ _______ _______ _____ _____    ______ ____
ROOT
ATOM      1  C   UNL     1       7.647   1.757   1.540  0.00  0.00    +0.017 C 
ATOM      2  C   UNL     1       6.601   2.489   0.659  0.00  0.00    +0.025 C 
ATOM      3  C   UNL     1       7.245   2.455  -0.743  0.00  0.00    +0.088 C 
ATOM      4  N   UNL     1       8.695   2.273  -0.555  0.00  0.00    -0.298 NA
ATOM      5  C   UNL     1       8.978   2.218   0.896  0.00  0.00    +0.085 C 
ATOM      6  C   UNL     1       9.165   1.056  -1.229  0.00  0.00    +0.105 C 
ENDROOT
BRANCH   3   7
ATOM      7  C   UNL     1       6.979   3.753  -1.461  0.00  0.00    -0.012 A 
ATOM      8  C   UNL     1       6.780   3.768  -2.828  0.00  0.00    +0.115 A 
ATOM      9  N   UNL     1       6.547   4.900  -3.464  0.00  0.00    -0.263 NA
ATOM     10  C   UNL     1       6.495   6.054  -2.828  0.00  0.00    +0.111 A 
ATOM     11  C   UNL     1       6.684   6.117  -1.460  0.00  0.00    +0.020 A 
ATOM     12  C   UNL     1       6.926   4.947  -0.758  0.00  0.00    +0.008 A 
ENDBRANCH   3   7
TORSDOF 1
ENDMDL
MODEL 8
REMARK VINA RESULT:    -2.721      1.465      4.422
REMARK INTER + INTRA:          -3.126
REMARK INTER:                  -2.873
REMARK INTRA:                  -0.253
REMARK UNBOUND:                -0.246
REMARK  Name = Nicotine.pdb
REMARK  2 active torsions:
REMARK  status: ('A' for Active; 'I' for Inactive)
REMARK    1  A    between atoms: C_3  and  C_6
REMARK    2  A    between atoms: N_4  and  C_12
REMARK                            x       y       z     vdW  Elec       q    Type
REMARK                         _______ _______ _______ _____ _____    ______ ____
ROOT
ATOM      1  C   UNL     1       6.083  -5.098  -7.010  0.00  0.00    +0.017 C 
ATOM      2  C   UNL     1       6.334  -3.741  -6.301  0.00  0.00    +0.025 C 
ATOM      3  C   UNL     1       7.789  -3.873  -5.804  0.00  0.00    +0.088 C 
ATOM      4  N   UNL     1       8.092  -5.313  -5.718  0.00  0.00    -0.298 NA
ATOM      5  C   UNL     1       6.887  -6.072  -6.114  0.00  0.00    +0.085 C 
ATOM      6  C   UNL     1       9.238  -5.661  -6.567  0.00  0.00    +0.105 C 
ENDROOT
BRANCH   3   7
ATOM      7  C   UNL     1       7.925  -3.236  -4.445  0.00  0.00    -0.012 A 
ATOM      8  C   UNL     1       9.176  -3.014  -3.900  0.00  0.00    +0.115 A 
ATOM      9  N   UNL     1       9.304  -2.458  -2.711  0.00  0.00    -0.263 NA
ATOM     10  C   UNL     1       8.256  -2.094  -1.999  0.00  0.00    +0.111 A 
ATOM     11  C   UNL     1       6.974  -2.284  -2.480  0.00  0.00    +0.020 A 
ATOM     12  C   UNL     1       6.799  -2.861  -3.728  0.00  0.00    +0.008 A 
ENDBRANCH   3   7
TORSDOF 1
ENDMDL
MODEL 9
REMARK VINA RESULT:    -2.618      3.151      6.170
REMARK INTER + INTRA:          -3.018
REMARK INTER:                  -2.832
REMARK INTRA:                  -0.186
REMARK UNBOUND:                -0.246
REMARK  Name = Nicotine.pdb
REMARK  2 active torsions:
REMARK  status: ('A' for Active; 'I' for Inactive)
REMARK    1  A    between atoms: C_3  and  C_6
REMARK    2  A    between atoms: N_4  and  C_12
REMARK                            x       y       z     vdW  Elec       q    Type
REMARK                         _______ _______ _______ _____ _____    ______ ____
ROOT
ATOM      1  C   UNL     1       8.258  -1.172  -3.845  0.00  0.00    +0.017 C 
ATOM      2  C   UNL     1       8.097   0.371  -3.861  0.00  0.00    +0.025 C 
ATOM      3  C   UNL     1       8.594   0.787  -2.461  0.00  0.00    +0.088 C 
ATOM      4  N   UNL     1       8.476  -0.393  -1.586  0.00  0.00    -0.298 NA
ATOM      5  C   UNL     1       7.907  -1.507  -2.374  0.00  0.00    +0.085 C 
ATOM      6  C   UNL     1       9.780  -0.761  -1.019  0.00  0.00    +0.105 C 
ENDROOT
BRANCH   3   7
ATOM      7  C   UNL     1       7.743   1.910  -1.927  0.00  0.00    -0.012 A 
ATOM      8  C   UNL     1       6.936   2.641  -2.778  0.00  0.00    +0.115 A 
ATOM      9  N   UNL     1       6.188   3.625  -2.319  0.00  0.00    -0.263 NA
ATOM     10  C   UNL     1       6.178   3.950  -1.042  0.00  0.00    +0.111 A 
ATOM     11  C   UNL     1       6.958   3.263  -0.130  0.00  0.00    +0.020 A 
ATOM     12  C   UNL     1       7.754   2.219  -0.575  0.00  0.00    +0.008 A 
ENDBRANCH   3   7
TORSDOF 1
ENDMDL
MODEL 10
REMARK VINA RESULT:    -2.600      5.751      8.583
REMARK INTER + INTRA:          -2.998
REMARK INTER:                  -2.784
REMARK INTRA:                  -0.215
REMARK UNBOUND:                -0.246
REMARK  Name = Nicotine.pdb
REMARK  2 active torsions:
REMARK  status: ('A' for Active; 'I' for Inactive)
REMARK    1  A    between atoms: C_3  and  C_6
REMARK    2  A    between atoms: N_4  and  C_12
REMARK                            x       y       z     vdW  Elec       q    Type
REMARK                         _______ _______ _______ _____ _____    ______ ____
ROOT
ATOM      1  C   UNL     1       5.751   2.509   0.902  0.00  0.00    +0.017 C 
ATOM      2  C   UNL     1       5.634   3.668  -0.123  0.00  0.00    +0.025 C 
ATOM      3  C   UNL     1       6.780   3.372  -1.113  0.00  0.00    +0.088 C 
ATOM      4  N   UNL     1       7.760   2.527  -0.407  0.00  0.00    -0.298 NA
ATOM      5  C   UNL     1       7.285   2.310   0.976  0.00  0.00    +0.085 C 
ATOM      6  C   UNL     1       7.954   1.250  -1.105  0.00  0.00    +0.105 C 
ENDROOT
BRANCH   3   7
ATOM      7  C   UNL     1       7.430   4.662  -1.545  0.00  0.00    -0.012 A 
ATOM      8  C   UNL     1       7.185   5.833  -0.855  0.00  0.00    +0.115 A 
ATOM      9  N   UNL     1       7.749   6.966  -1.226  0.00  0.00    -0.263 NA
ATOM     10  C   UNL     1       8.563   7.028  -2.262  0.00  0.00    +0.111 A 
ATOM     11  C   UNL     1       8.856   5.896  -3.000  0.00  0.00    +0.020 A 
ATOM     12  C   UNL     1       8.285   4.687  -2.636  0.00  0.00    +0.008 A 
ENDBRANCH   3   7
TORSDOF 1
ENDMDL
