MODEL 1
REMARK VINA RESULT:    -2.289      0.000      0.000
REMARK INTER + INTRA:          -2.610
REMARK INTER:                  -2.423
REMARK INTRA:                  -0.187
REMARK UNBOUND:                -0.187
REMARK  Name = Nicotine.pdb
REMARK  2 active torsions:
REMARK  status: ('A' for Active; 'I' for Inactive)
REMARK    1  A    between atoms: C_3  and  C_6
REMARK    2  A    between atoms: N_4  and  C_12
REMARK                            x       y       z     vdW  Elec       q    Type
REMARK                         _______ _______ _______ _____ _____    ______ ____
ROOT
ATOM      1  C   UNL     1       5.610  -3.010   6.013  0.00  0.00    +0.017 C 
ATOM      2  C   UNL     1       6.789  -3.991   6.243  0.00  0.00    +0.025 C 
ATOM      3  C   UNL     1       8.029  -3.111   5.979  0.00  0.00    +0.088 C 
ATOM      4  N   UNL     1       7.592  -1.982   5.138  0.00  0.00    -0.298 NA
ATOM      5  C   UNL     1       6.150  -2.138   4.852  0.00  0.00    +0.085 C 
ATOM      6  C   UNL     1       7.863  -0.698   5.798  0.00  0.00    +0.105 C 
ENDROOT
BRANCH   3   7
ATOM      7  C   UNL     1       9.082  -3.912   5.257  0.00  0.00    -0.012 A 
ATOM      8  C   UNL     1       9.190  -3.845   3.881  0.00  0.00    +0.115 A 
ATOM      9  N   UNL     1      10.109  -4.543   3.242  0.00  0.00    -0.263 NA
ATOM     10  C   UNL     1      10.954  -5.326   3.882  0.00  0.00    +0.111 A 
ATOM     11  C   UNL     1      10.906  -5.444   5.258  0.00  0.00    +0.020 A 
ATOM     12  C   UNL     1       9.957  -4.722   5.965  0.00  0.00    +0.008 A 
ENDBRANCH   3   7
TORSDOF 1
ENDMDL
MODEL 2
REMARK VINA RESULT:    -1.818      1.785      4.212
REMARK INTER + INTRA:          -2.111
REMARK INTER:                  -1.898
REMARK INTRA:                  -0.214
REMARK UNBOUND:                -0.187
REMARK  Name = Nicotine.pdb
REMARK  2 active torsions:
REMARK  status: ('A' for Active; 'I' for Inactive)
REMARK    1  A    between atoms: C_3  and  C_6
REMARK    2  A    between atoms: N_4  and  C_12
REMARK                            x       y       z     vdW  Elec       q    Type
REMARK                         _______ _______ _______ _____ _____    ______ ____
ROOT
ATOM      1  C   UNL     1      10.780  -3.546   4.849  0.00  0.00    +0.017 C 
ATOM      2  C   UNL     1       9.372  -3.624   4.203  0.00  0.00    +0.025 C 
ATOM      3  C   UNL     1       8.671  -2.360   4.745  0.00  0.00    +0.088 C 
ATOM      4  N   UNL     1       9.373  -1.967   5.980  0.00  0.00    -0.298 NA
ATOM      5  C   UNL     1      10.454  -2.942   6.238  0.00  0.00    +0.085 C 
ATOM      6  C   UNL     1       9.907  -0.603   5.872  0.00  0.00    +0.105 C 
ENDROOT
BRANCH   3   7
ATOM      7  C   UNL     1       7.227  -2.664   5.049  0.00  0.00    -0.012 A 
ATOM      8  C   UNL     1       6.216  -1.995   4.384  0.00  0.00    +0.115 A 
ATOM      9  N   UNL     1       4.950  -2.256   4.644  0.00  0.00    -0.263 NA
ATOM     10  C   UNL     1       4.598  -3.157   5.540  0.00  0.00    +0.111 A 
ATOM     11  C   UNL     1       5.553  -3.866   6.244  0.00  0.00    +0.020 A 
ATOM     12  C   UNL     1       6.895  -3.623   5.994  0.00  0.00    +0.008 A 
ENDBRANCH   3   7
TORSDOF 1
ENDMDL
MODEL 3
REMARK VINA RESULT:    -1.760      1.597      4.550
REMARK INTER + INTRA:          -2.050
REMARK INTER:                  -1.805
REMARK INTRA:                  -0.245
REMARK UNBOUND:                -0.187
REMARK  Name = Nicotine.pdb
REMARK  2 active torsions:
REMARK  status: ('A' for Active; 'I' for Inactive)
REMARK    1  A    between atoms: C_3  and  C_6
REMARK    2  A    between atoms: N_4  and  C_12
REMARK                            x       y       z     vdW  Elec       q    Type
REMARK                         _______ _______ _______ _____ _____    ______ ____
ROOT
ATOM      1  C   UNL     1      10.898  -1.872   4.463  0.00  0.00    +0.017 C 
ATOM      2  C   UNL     1       9.545  -1.426   5.078  0.00  0.00    +0.025 C 
ATOM      3  C   UNL     1       9.047  -2.704   5.786  0.00  0.00    +0.088 C 
ATOM      4  N   UNL     1       9.723  -3.848   5.148  0.00  0.00    -0.298 NA
ATOM      5  C   UNL     1      10.592  -3.338   4.066  0.00  0.00    +0.085 C 
ATOM      6  C   UNL     1      10.499  -4.617   6.130  0.00  0.00    +0.105 C 
ENDROOT
BRANCH   3   7
ATOM      7  C   UNL     1       7.555  -2.832   5.623  0.00  0.00    -0.012 A 
ATOM      8  C   UNL     1       6.869  -3.858   6.244  0.00  0.00    +0.115 A 
ATOM      9  N   UNL     1       5.563  -3.977   6.106  0.00  0.00    -0.263 NA
ATOM     10  C   UNL     1       4.863  -3.131   5.378  0.00  0.00    +0.111 A 
ATOM     11  C   UNL     1       5.480  -2.078   4.727  0.00  0.00    +0.020 A 
ATOM     12  C   UNL     1       6.851  -1.918   4.853  0.00  0.00    +0.008 A 
ENDBRANCH   3   7
TORSDOF 1
ENDMDL
MODEL 4
REMARK VINA RESULT:    -0.311      2.425      3.700
REMARK INTER + INTRA:          -0.516
REMARK INTER:                  -0.264
REMARK INTRA:                  -0.253
REMARK UNBOUND:                -0.187
REMARK  Name = Nicotine.pdb
REMARK  2 active torsions:
REMARK  status: ('A' for Active; 'I' for Inactive)
REMARK    1  A    between atoms: C_3  and  C_6
REMARK    2  A    between atoms: N_4  and  C_12
REMARK                            x       y       z     vdW  Elec       q    Type
REMARK                         _______ _______ _______ _____ _____    ______ ____
ROOT
ATOM      1  C   UNL     1       4.890  -2.767   4.714  0.00  0.00    +0.017 C 
ATOM      2  C   UNL     1       6.158  -2.028   4.210  0.00  0.00    +0.025 C 
ATOM      3  C   UNL     1       7.295  -2.713   4.998  0.00  0.00    +0.088 C 
ATOM      4  N   UNL     1       6.692  -3.318   6.199  0.00  0.00    -0.298 NA
ATOM      5  C   UNL     1       5.244  -3.017   6.201  0.00  0.00    +0.085 C 
ATOM      6  C   UNL     1       6.929  -4.767   6.234  0.00  0.00    +0.105 C 
ENDROOT
BRANCH   3   7
ATOM      7  C   UNL     1       8.328  -1.692   5.400  0.00  0.00    -0.012 A 
ATOM      8  C   UNL     1       9.668  -2.027   5.429  0.00  0.00    +0.115 A 
ATOM      9  N   UNL     1      10.578  -1.140   5.780  0.00  0.00    -0.263 NA
ATOM     10  C   UNL     1      10.251   0.092   6.115  0.00  0.00    +0.111 A 
ATOM     11  C   UNL     1       8.930   0.501   6.110  0.00  0.00    +0.020 A 
ATOM     12  C   UNL     1       7.946  -0.404   5.741  0.00  0.00    +0.008 A 
ENDBRANCH   3   7
TORSDOF 1
ENDMDL
