MODEL 1
REMARK VINA RESULT:    -3.593      0.000      0.000
REMARK INTER + INTRA:          -4.011
REMARK INTER:                  -3.803
REMARK INTRA:                  -0.207
REMARK UNBOUND:                -0.207
REMARK  Name = Nicotine.pdb
REMARK  2 active torsions:
REMARK  status: ('A' for Active; 'I' for Inactive)
REMARK    1  A    between atoms: C_3  and  C_6
REMARK    2  A    between atoms: N_4  and  C_12
REMARK                            x       y       z     vdW  Elec       q    Type
REMARK                         _______ _______ _______ _____ _____    ______ ____
ROOT
ATOM      1  C   UNL     1       9.746   5.951  -4.320  0.00  0.00    +0.017 C 
ATOM      2  C   UNL     1       9.598   4.447  -4.671  0.00  0.00    +0.025 C 
ATOM      3  C   UNL     1       8.773   4.474  -5.975  0.00  0.00    +0.088 C 
ATOM      4  N   UNL     1       8.056   5.761  -6.011  0.00  0.00    -0.298 NA
ATOM      5  C   UNL     1       8.380   6.515  -4.782  0.00  0.00    +0.085 C 
ATOM      6  C   UNL     1       8.412   6.530  -7.211  0.00  0.00    +0.105 C 
ENDROOT
BRANCH   3   7
ATOM      7  C   UNL     1       7.786   3.335  -5.981  0.00  0.00    -0.012 A 
ATOM      8  C   UNL     1       7.660   2.513  -4.877  0.00  0.00    +0.115 A 
ATOM      9  N   UNL     1       6.799   1.515  -4.875  0.00  0.00    -0.263 NA
ATOM     10  C   UNL     1       6.030   1.260  -5.914  0.00  0.00    +0.111 A 
ATOM     11  C   UNL     1       6.099   2.040  -7.054  0.00  0.00    +0.020 A 
ATOM     12  C   UNL     1       6.989   3.102  -7.092  0.00  0.00    +0.008 A 
ENDBRANCH   3   7
TORSDOF 1
ENDMDL
MODEL 2
REMARK VINA RESULT:    -3.554      8.829     10.141
REMARK INTER + INTRA:          -3.969
REMARK INTER:                  -3.787
REMARK INTRA:                  -0.182
REMARK UNBOUND:                -0.207
REMARK  Name = Nicotine.pdb
REMARK  2 active torsions:
REMARK  status: ('A' for Active; 'I' for Inactive)
REMARK    1  A    between atoms: C_3  and  C_6
REMARK    2  A    between atoms: N_4  and  C_12
REMARK                            x       y       z     vdW  Elec       q    Type
REMARK                         _______ _______ _______ _____ _____    ______ ____
ROOT
ATOM      1  C   UNL     1      10.953   4.011   5.228  0.00  0.00    +0.017 C 
ATOM      2  C   UNL     1      10.366   4.367   3.837  0.00  0.00    +0.025 C 
ATOM      3  C   UNL     1       9.561   5.654   4.120  0.00  0.00    +0.088 C 
ATOM      4  N   UNL     1       9.251   5.667   5.561  0.00  0.00    -0.298 NA
ATOM      5  C   UNL     1       9.803   4.440   6.173  0.00  0.00    +0.085 C 
ATOM      6  C   UNL     1       9.795   6.869   6.206  0.00  0.00    +0.105 C 
ENDROOT
BRANCH   3   7
ATOM      7  C   UNL     1       8.285   5.646   3.319  0.00  0.00    -0.012 A 
ATOM      8  C   UNL     1       7.376   4.615   3.461  0.00  0.00    +0.115 A 
ATOM      9  N   UNL     1       6.257   4.601   2.764  0.00  0.00    -0.263 NA
ATOM     10  C   UNL     1       5.960   5.560   1.910  0.00  0.00    +0.111 A 
ATOM     11  C   UNL     1       6.820   6.625   1.715  0.00  0.00    +0.020 A 
ATOM     12  C   UNL     1       8.004   6.677   2.434  0.00  0.00    +0.008 A 
ENDBRANCH   3   7
TORSDOF 1
ENDMDL
MODEL 3
REMARK VINA RESULT:    -3.234      8.574      9.854
REMARK INTER + INTRA:          -3.630
REMARK INTER:                  -3.425
REMARK INTRA:                  -0.205
REMARK UNBOUND:                -0.207
REMARK  Name = Nicotine.pdb
REMARK  2 active torsions:
REMARK  status: ('A' for Active; 'I' for Inactive)
REMARK    1  A    between atoms: C_3  and  C_6
REMARK    2  A    between atoms: N_4  and  C_12
REMARK                            x       y       z     vdW  Elec       q    Type
REMARK                         _______ _______ _______ _____ _____    ______ ____
ROOT
ATOM      1  C   UNL     1       8.708   3.756   6.244  0.00  0.00    +0.017 C 
ATOM      2  C   UNL     1       7.712   3.663   5.058  0.00  0.00    +0.025 C 
ATOM      3  C   UNL     1       8.549   4.162   3.861  0.00  0.00    +0.088 C 
ATOM      4  N   UNL     1       9.647   4.980   4.407  0.00  0.00    -0.298 NA
ATOM      5  C   UNL     1       9.511   5.029   5.878  0.00  0.00    +0.085 C 
ATOM      6  C   UNL     1      10.954   4.436   4.017  0.00  0.00    +0.105 C 
ENDROOT
BRANCH   3   7
ATOM      7  C   UNL     1       7.690   4.997   2.948  0.00  0.00    -0.012 A 
ATOM      8  C   UNL     1       6.465   4.526   2.516  0.00  0.00    +0.115 A 
ATOM      9  N   UNL     1       5.707   5.251   1.716  0.00  0.00    -0.263 NA
ATOM     10  C   UNL     1       6.083   6.444   1.299  0.00  0.00    +0.111 A 
ATOM     11  C   UNL     1       7.295   6.981   1.690  0.00  0.00    +0.020 A 
ATOM     12  C   UNL     1       8.116   6.250   2.534  0.00  0.00    +0.008 A 
ENDBRANCH   3   7
TORSDOF 1
ENDMDL
MODEL 4
REMARK VINA RESULT:    -2.833      6.866      8.957
REMARK INTER + INTRA:          -3.205
REMARK INTER:                  -2.990
REMARK INTRA:                  -0.215
REMARK UNBOUND:                -0.207
REMARK  Name = Nicotine.pdb
REMARK  2 active torsions:
REMARK  status: ('A' for Active; 'I' for Inactive)
REMARK    1  A    between atoms: C_3  and  C_6
REMARK    2  A    between atoms: N_4  and  C_12
REMARK                            x       y       z     vdW  Elec       q    Type
REMARK                         _______ _______ _______ _____ _____    ______ ____
ROOT
ATOM      1  C   UNL     1       8.307  -5.978  -1.361  0.00  0.00    +0.017 C 
ATOM      2  C   UNL     1       8.464  -5.880  -2.902  0.00  0.00    +0.025 C 
ATOM      3  C   UNL     1       9.337  -4.620  -3.082  0.00  0.00    +0.088 C 
ATOM      4  N   UNL     1       9.180  -3.802  -1.866  0.00  0.00    -0.298 NA
ATOM      5  C   UNL     1       8.233  -4.484  -0.958  0.00  0.00    +0.085 C 
ATOM      6  C   UNL     1      10.474  -3.580  -1.208  0.00  0.00    +0.105 C 
ENDROOT
BRANCH   3   7
ATOM      7  C   UNL     1       8.875  -3.843  -4.287  0.00  0.00    -0.012 A 
ATOM      8  C   UNL     1       7.587  -3.997  -4.766  0.00  0.00    +0.115 A 
ATOM      9  N   UNL     1       7.174  -3.321  -5.820  0.00  0.00    -0.263 NA
ATOM     10  C   UNL     1       7.964  -2.479  -6.456  0.00  0.00    +0.111 A 
ATOM     11  C   UNL     1       9.264  -2.272  -6.035  0.00  0.00    +0.020 A 
ATOM     12  C   UNL     1       9.732  -2.961  -4.927  0.00  0.00    +0.008 A 
ENDBRANCH   3   7
TORSDOF 1
ENDMDL
MODEL 5
REMARK VINA RESULT:    -2.681      2.503      3.018
REMARK INTER + INTRA:          -3.045
REMARK INTER:                  -2.824
REMARK INTRA:                  -0.220
REMARK UNBOUND:                -0.207
REMARK  Name = Nicotine.pdb
REMARK  2 active torsions:
REMARK  status: ('A' for Active; 'I' for Inactive)
REMARK    1  A    between atoms: C_3  and  C_6
REMARK    2  A    between atoms: N_4  and  C_12
REMARK                            x       y       z     vdW  Elec       q    Type
REMARK                         _______ _______ _______ _____ _____    ______ ____
ROOT
ATOM      1  C   UNL     1       9.690   3.690  -4.496  0.00  0.00    +0.017 C 
ATOM      2  C   UNL     1      10.042   2.358  -5.209  0.00  0.00    +0.025 C 
ATOM      3  C   UNL     1       8.973   2.265  -6.319  0.00  0.00    +0.088 C 
ATOM      4  N   UNL     1       7.836   3.105  -5.902  0.00  0.00    -0.298 NA
ATOM      5  C   UNL     1       8.143   3.689  -4.579  0.00  0.00    +0.085 C 
ATOM      6  C   UNL     1       7.566   4.155  -6.892  0.00  0.00    +0.105 C 
ENDROOT
BRANCH   3   7
ATOM      7  C   UNL     1       8.525   0.836  -6.481  0.00  0.00    -0.012 A 
ATOM      8  C   UNL     1       7.179   0.529  -6.547  0.00  0.00    +0.115 A 
ATOM      9  N   UNL     1       6.778  -0.720  -6.688  0.00  0.00    -0.263 NA
ATOM     10  C   UNL     1       7.635  -1.718  -6.771  0.00  0.00    +0.111 A 
ATOM     11  C   UNL     1       8.997  -1.488  -6.713  0.00  0.00    +0.020 A 
ATOM     12  C   UNL     1       9.456  -0.188  -6.570  0.00  0.00    +0.008 A 
ENDBRANCH   3   7
TORSDOF 1
ENDMDL
MODEL 6
REMARK VINA RESULT:    -2.671      2.197      3.582
REMARK INTER + INTRA:          -3.034
REMARK INTER:                  -2.818
REMARK INTRA:                  -0.215
REMARK UNBOUND:                -0.207
REMARK  Name = Nicotine.pdb
REMARK  2 active torsions:
REMARK  status: ('A' for Active; 'I' for Inactive)
REMARK    1  A    between atoms: C_3  and  C_6
REMARK    2  A    between atoms: N_4  and  C_12
REMARK                            x       y       z     vdW  Elec       q    Type
REMARK                         _______ _______ _______ _____ _____    ______ ____
ROOT
ATOM      1  C   UNL     1       6.858   3.918  -7.158  0.00  0.00    +0.017 C 
ATOM      2  C   UNL     1       6.915   2.662  -6.249  0.00  0.00    +0.025 C 
ATOM      3  C   UNL     1       7.884   3.090  -5.126  0.00  0.00    +0.088 C 
ATOM      4  N   UNL     1       8.709   4.190  -5.657  0.00  0.00    -0.298 NA
ATOM      5  C   UNL     1       8.312   4.442  -7.059  0.00  0.00    +0.085 C 
ATOM      6  C   UNL     1       8.560   5.402  -4.840  0.00  0.00    +0.105 C 
ENDROOT
BRANCH   3   7
ATOM      7  C   UNL     1       8.763   1.929  -4.738  0.00  0.00    -0.012 A 
ATOM      8  C   UNL     1       8.882   0.833  -5.570  0.00  0.00    +0.115 A 
ATOM      9  N   UNL     1       9.649  -0.187  -5.238  0.00  0.00    -0.263 NA
ATOM     10  C   UNL     1      10.329  -0.203  -4.108  0.00  0.00    +0.111 A 
ATOM     11  C   UNL     1      10.260   0.858  -3.225  0.00  0.00    +0.020 A 
ATOM     12  C   UNL     1       9.468   1.950  -3.544  0.00  0.00    +0.008 A 
ENDBRANCH   3   7
TORSDOF 1
ENDMDL
MODEL 7
REMARK VINA RESULT:    -2.666      7.259      9.383
REMARK INTER + INTRA:          -3.030
REMARK INTER:                  -2.836
REMARK INTRA:                  -0.193
REMARK UNBOUND:                -0.207
REMARK  Name = Nicotine.pdb
REMARK  2 active torsions:
REMARK  status: ('A' for Active; 'I' for Inactive)
REMARK    1  A    between atoms: C_3  and  C_6
REMARK    2  A    between atoms: N_4  and  C_12
REMARK                            x       y       z     vdW  Elec       q    Type
REMARK                         _______ _______ _______ _____ _____    ______ ____
ROOT
ATOM      1  C   UNL     1       8.428  -5.639  -5.510  0.00  0.00    +0.017 C 
ATOM      2  C   UNL     1       7.973  -5.394  -4.047  0.00  0.00    +0.025 C 
ATOM      3  C   UNL     1       8.486  -3.967  -3.758  0.00  0.00    +0.088 C 
ATOM      4  N   UNL     1       9.585  -3.699  -4.703  0.00  0.00    -0.298 NA
ATOM      5  C   UNL     1       9.789  -4.900  -5.542  0.00  0.00    +0.085 C 
ATOM      6  C   UNL     1       9.293  -2.522  -5.531  0.00  0.00    +0.105 C 
ENDROOT
BRANCH   3   7
ATOM      7  C   UNL     1       8.994  -3.882  -2.342  0.00  0.00    -0.012 A 
ATOM      8  C   UNL     1       8.315  -4.514  -1.317  0.00  0.00    +0.115 A 
ATOM      9  N   UNL     1       8.753  -4.445  -0.075  0.00  0.00    -0.263 NA
ATOM     10  C   UNL     1       9.845  -3.776   0.239  0.00  0.00    +0.111 A 
ATOM     11  C   UNL     1      10.577  -3.120  -0.733  0.00  0.00    +0.020 A 
ATOM     12  C   UNL     1      10.150  -3.175  -2.051  0.00  0.00    +0.008 A 
ENDBRANCH   3   7
TORSDOF 1
ENDMDL
MODEL 8
REMARK VINA RESULT:    -2.583      7.421      9.649
REMARK INTER + INTRA:          -2.941
REMARK INTER:                  -2.695
REMARK INTRA:                  -0.246
REMARK UNBOUND:                -0.207
REMARK  Name = Nicotine.pdb
REMARK  2 active torsions:
REMARK  status: ('A' for Active; 'I' for Inactive)
REMARK    1  A    between atoms: C_3  and  C_6
REMARK    2  A    between atoms: N_4  and  C_12
REMARK                            x       y       z     vdW  Elec       q    Type
REMARK                         _______ _______ _______ _____ _____    ______ ____
ROOT
ATOM      1  C   UNL     1       6.845  -5.748  -6.558  0.00  0.00    +0.017 C 
ATOM      2  C   UNL     1       6.700  -5.712  -5.014  0.00  0.00    +0.025 C 
ATOM      3  C   UNL     1       7.477  -4.437  -4.622  0.00  0.00    +0.088 C 
ATOM      4  N   UNL     1       8.420  -4.147  -5.717  0.00  0.00    -0.298 NA
ATOM      5  C   UNL     1       8.279  -5.195  -6.751  0.00  0.00    +0.085 C 
ATOM      6  C   UNL     1       8.178  -2.813  -6.282  0.00  0.00    +0.105 C 
ENDROOT
BRANCH   3   7
ATOM      7  C   UNL     1       8.234  -4.672  -3.341  0.00  0.00    -0.012 A 
ATOM      8  C   UNL     1       8.922  -3.637  -2.736  0.00  0.00    +0.115 A 
ATOM      9  N   UNL     1       9.587  -3.834  -1.614  0.00  0.00    -0.263 NA
ATOM     10  C   UNL     1       9.624  -5.014  -1.028  0.00  0.00    +0.111 A 
ATOM     11  C   UNL     1       8.959  -6.097  -1.575  0.00  0.00    +0.020 A 
ATOM     12  C   UNL     1       8.245  -5.926  -2.751  0.00  0.00    +0.008 A 
ENDBRANCH   3   7
TORSDOF 1
ENDMDL
