MODEL 1
REMARK VINA RESULT:    -3.809      0.000      0.000
REMARK INTER + INTRA:          -4.283
REMARK INTER:                  -4.031
REMARK INTRA:                  -0.252
REMARK UNBOUND:                -0.252
REMARK  Name = Nicotine.pdb
REMARK  2 active torsions:
REMARK  status: ('A' for Active; 'I' for Inactive)
REMARK    1  A    between atoms: C_3  and  C_6
REMARK    2  A    between atoms: N_4  and  C_12
REMARK                            x       y       z     vdW  Elec       q    Type
REMARK                         _______ _______ _______ _____ _____    ______ ____
ROOT
ATOM      1  C   UNL     1      10.099   4.972  -0.627  0.00  0.00    +0.017 C 
ATOM      2  C   UNL     1       9.455   3.671  -0.079  0.00  0.00    +0.025 C 
ATOM      3  C   UNL     1       8.004   4.102   0.221  0.00  0.00    +0.088 C 
ATOM      4  N   UNL     1       8.008   5.566   0.387  0.00  0.00    -0.298 NA
ATOM      5  C   UNL     1       9.395   6.054   0.230  0.00  0.00    +0.085 C 
ATOM      6  C   UNL     1       7.110   6.210  -0.580  0.00  0.00    +0.105 C 
ENDROOT
BRANCH   3   7
ATOM      7  C   UNL     1       7.524   3.442   1.488  0.00  0.00    -0.012 A 
ATOM      8  C   UNL     1       6.192   3.507   1.849  0.00  0.00    +0.115 A 
ATOM      9  N   UNL     1       5.764   2.932   2.956  0.00  0.00    -0.263 NA
ATOM     10  C   UNL     1       6.581   2.278   3.757  0.00  0.00    +0.111 A 
ATOM     11  C   UNL     1       7.927   2.170   3.461  0.00  0.00    +0.020 A 
ATOM     12  C   UNL     1       8.412   2.757   2.303  0.00  0.00    +0.008 A 
ENDBRANCH   3   7
TORSDOF 1
ENDMDL
MODEL 2
REMARK VINA RESULT:    -3.784      1.749      4.380
REMARK INTER + INTRA:          -4.258
REMARK INTER:                  -4.036
REMARK INTRA:                  -0.222
REMARK UNBOUND:                -0.252
REMARK  Name = Nicotine.pdb
REMARK  2 active torsions:
REMARK  status: ('A' for Active; 'I' for Inactive)
REMARK    1  A    between atoms: C_3  and  C_6
REMARK    2  A    between atoms: N_4  and  C_12
REMARK                            x       y       z     vdW  Elec       q    Type
REMARK                         _______ _______ _______ _____ _____    ______ ____
ROOT
ATOM      1  C   UNL     1       7.820   2.479   2.851  0.00  0.00    +0.017 C 
ATOM      2  C   UNL     1       8.272   3.213   1.561  0.00  0.00    +0.025 C 
ATOM      3  C   UNL     1       8.117   4.702   1.936  0.00  0.00    +0.088 C 
ATOM      4  N   UNL     1       7.151   4.775   3.047  0.00  0.00    -0.298 NA
ATOM      5  C   UNL     1       6.686   3.406   3.356  0.00  0.00    +0.085 C 
ATOM      6  C   UNL     1       7.753   5.406   4.228  0.00  0.00    +0.105 C 
ENDROOT
BRANCH   3   7
ATOM      7  C   UNL     1       7.598   5.478   0.753  0.00  0.00    -0.012 A 
ATOM      8  C   UNL     1       6.515   6.325   0.892  0.00  0.00    +0.115 A 
ATOM      9  N   UNL     1       6.055   7.007  -0.138  0.00  0.00    -0.263 NA
ATOM     10  C   UNL     1       6.603   6.911  -1.333  0.00  0.00    +0.111 A 
ATOM     11  C   UNL     1       7.690   6.084  -1.549  0.00  0.00    +0.020 A 
ATOM     12  C   UNL     1       8.204   5.355  -0.488  0.00  0.00    +0.008 A 
ENDBRANCH   3   7
TORSDOF 1
ENDMDL
MODEL 3
REMARK VINA RESULT:    -3.699      1.155      2.187
REMARK INTER + INTRA:          -4.167
REMARK INTER:                  -3.983
REMARK INTRA:                  -0.184
REMARK UNBOUND:                -0.252
REMARK  Name = Nicotine.pdb
REMARK  2 active torsions:
REMARK  status: ('A' for Active; 'I' for Inactive)
REMARK    1  A    between atoms: C_3  and  C_6
REMARK    2  A    between atoms: N_4  and  C_12
REMARK                            x       y       z     vdW  Elec       q    Type
REMARK                         _______ _______ _______ _____ _____    ______ ____
ROOT
ATOM      1  C   UNL     1       6.966   6.980  -1.276  0.00  0.00    +0.017 C 
ATOM      2  C   UNL     1       6.620   6.548   0.173  0.00  0.00    +0.025 C 
ATOM      3  C   UNL     1       7.947   5.943   0.680  0.00  0.00    +0.088 C 
ATOM      4  N   UNL     1       8.728   5.547  -0.505  0.00  0.00    -0.298 NA
ATOM      5  C   UNL     1       7.936   5.855  -1.715  0.00  0.00    +0.085 C 
ATOM      6  C   UNL     1      10.026   6.234  -0.535  0.00  0.00    +0.105 C 
ENDROOT
BRANCH   3   7
ATOM      7  C   UNL     1       7.665   4.736   1.537  0.00  0.00    -0.012 A 
ATOM      8  C   UNL     1       6.474   4.632   2.229  0.00  0.00    +0.115 A 
ATOM      9  N   UNL     1       6.219   3.579   2.981  0.00  0.00    -0.263 NA
ATOM     10  C   UNL     1       7.083   2.591   3.104  0.00  0.00    +0.111 A 
ATOM     11  C   UNL     1       8.296   2.624   2.441  0.00  0.00    +0.020 A 
ATOM     12  C   UNL     1       8.596   3.713   1.637  0.00  0.00    +0.008 A 
ENDBRANCH   3   7
TORSDOF 1
ENDMDL
MODEL 4
REMARK VINA RESULT:    -3.650      1.492      4.677
REMARK INTER + INTRA:          -4.115
REMARK INTER:                  -3.859
REMARK INTRA:                  -0.256
REMARK UNBOUND:                -0.252
REMARK  Name = Nicotine.pdb
REMARK  2 active torsions:
REMARK  status: ('A' for Active; 'I' for Inactive)
REMARK    1  A    between atoms: C_3  and  C_6
REMARK    2  A    between atoms: N_4  and  C_12
REMARK                            x       y       z     vdW  Elec       q    Type
REMARK                         _______ _______ _______ _____ _____    ______ ____
ROOT
ATOM      1  C   UNL     1       6.274   3.027   3.140  0.00  0.00    +0.017 C 
ATOM      2  C   UNL     1       6.173   3.320   1.620  0.00  0.00    +0.025 C 
ATOM      3  C   UNL     1       7.621   3.699   1.242  0.00  0.00    +0.088 C 
ATOM      4  N   UNL     1       8.294   4.139   2.478  0.00  0.00    -0.298 NA
ATOM      5  C   UNL     1       7.323   4.073   3.592  0.00  0.00    +0.085 C 
ATOM      6  C   UNL     1       9.474   3.311   2.758  0.00  0.00    +0.105 C 
ENDROOT
BRANCH   3   7
ATOM      7  C   UNL     1       7.611   4.819   0.235  0.00  0.00    -0.012 A 
ATOM      8  C   UNL     1       8.707   5.036  -0.579  0.00  0.00    +0.115 A 
ATOM      9  N   UNL     1       8.707   6.015  -1.463  0.00  0.00    -0.263 NA
ATOM     10  C   UNL     1       7.673   6.819  -1.607  0.00  0.00    +0.111 A 
ATOM     11  C   UNL     1       6.541   6.663  -0.828  0.00  0.00    +0.020 A 
ATOM     12  C   UNL     1       6.503   5.642   0.109  0.00  0.00    +0.008 A 
ENDBRANCH   3   7
TORSDOF 1
ENDMDL
MODEL 5
REMARK VINA RESULT:    -3.446      1.861      2.811
REMARK INTER + INTRA:          -3.899
REMARK INTER:                  -3.702
REMARK INTRA:                  -0.196
REMARK UNBOUND:                -0.252
REMARK  Name = Nicotine.pdb
REMARK  2 active torsions:
REMARK  status: ('A' for Active; 'I' for Inactive)
REMARK    1  A    between atoms: C_3  and  C_6
REMARK    2  A    between atoms: N_4  and  C_12
REMARK                            x       y       z     vdW  Elec       q    Type
REMARK                         _______ _______ _______ _____ _____    ______ ____
ROOT
ATOM      1  C   UNL     1       6.772   4.799   0.632  0.00  0.00    +0.017 C 
ATOM      2  C   UNL     1       6.161   3.622   1.437  0.00  0.00    +0.025 C 
ATOM      3  C   UNL     1       6.642   3.900   2.877  0.00  0.00    +0.088 C 
ATOM      4  N   UNL     1       7.837   4.757   2.780  0.00  0.00    -0.298 NA
ATOM      5  C   UNL     1       8.129   4.999   1.351  0.00  0.00    +0.085 C 
ATOM      6  C   UNL     1       7.637   6.022   3.499  0.00  0.00    +0.105 C 
ENDROOT
BRANCH   3   7
ATOM      7  C   UNL     1       6.993   2.603   3.559  0.00  0.00    -0.012 A 
ATOM      8  C   UNL     1       6.021   1.874   4.217  0.00  0.00    +0.115 A 
ATOM      9  N   UNL     1       6.320   0.738   4.817  0.00  0.00    -0.263 NA
ATOM     10  C   UNL     1       7.547   0.255   4.814  0.00  0.00    +0.111 A 
ATOM     11  C   UNL     1       8.571   0.929   4.176  0.00  0.00    +0.020 A 
ATOM     12  C   UNL     1       8.294   2.124   3.530  0.00  0.00    +0.008 A 
ENDBRANCH   3   7
TORSDOF 1
ENDMDL
MODEL 6
REMARK VINA RESULT:    -3.438      2.062      4.732
REMARK INTER + INTRA:          -3.891
REMARK INTER:                  -3.676
REMARK INTRA:                  -0.215
REMARK UNBOUND:                -0.252
REMARK  Name = Nicotine.pdb
REMARK  2 active torsions:
REMARK  status: ('A' for Active; 'I' for Inactive)
REMARK    1  A    between atoms: C_3  and  C_6
REMARK    2  A    between atoms: N_4  and  C_12
REMARK                            x       y       z     vdW  Elec       q    Type
REMARK                         _______ _______ _______ _____ _____    ______ ____
ROOT
ATOM      1  C   UNL     1       7.643   5.900   4.217  0.00  0.00    +0.017 C 
ATOM      2  C   UNL     1       7.222   6.581   2.887  0.00  0.00    +0.025 C 
ATOM      3  C   UNL     1       6.835   5.384   1.992  0.00  0.00    +0.088 C 
ATOM      4  N   UNL     1       7.515   4.195   2.535  0.00  0.00    -0.298 NA
ATOM      5  C   UNL     1       8.321   4.605   3.704  0.00  0.00    +0.085 C 
ATOM      6  C   UNL     1       6.545   3.155   2.902  0.00  0.00    +0.105 C 
ENDROOT
BRANCH   3   7
ATOM      7  C   UNL     1       7.288   5.635   0.577  0.00  0.00    -0.012 A 
ATOM      8  C   UNL     1       8.287   4.862   0.016  0.00  0.00    +0.115 A 
ATOM      9  N   UNL     1       8.689   5.075  -1.222  0.00  0.00    -0.263 NA
ATOM     10  C   UNL     1       8.162   6.025  -1.969  0.00  0.00    +0.111 A 
ATOM     11  C   UNL     1       7.158   6.838  -1.475  0.00  0.00    +0.020 A 
ATOM     12  C   UNL     1       6.705   6.640  -0.180  0.00  0.00    +0.008 A 
ENDBRANCH   3   7
TORSDOF 1
ENDMDL
MODEL 7
REMARK VINA RESULT:    -3.427      1.720      4.875
REMARK INTER + INTRA:          -3.880
REMARK INTER:                  -3.624
REMARK INTRA:                  -0.256
REMARK UNBOUND:                -0.252
REMARK  Name = Nicotine.pdb
REMARK  2 active torsions:
REMARK  status: ('A' for Active; 'I' for Inactive)
REMARK    1  A    between atoms: C_3  and  C_6
REMARK    2  A    between atoms: N_4  and  C_12
REMARK                            x       y       z     vdW  Elec       q    Type
REMARK                         _______ _______ _______ _____ _____    ______ ____
ROOT
ATOM      1  C   UNL     1       9.159   0.505   5.150  0.00  0.00    +0.017 C 
ATOM      2  C   UNL     1       9.266   1.930   4.545  0.00  0.00    +0.025 C 
ATOM      3  C   UNL     1       7.796   2.288   4.238  0.00  0.00    +0.088 C 
ATOM      4  N   UNL     1       7.052   1.020   4.126  0.00  0.00    -0.298 NA
ATOM      5  C   UNL     1       7.997  -0.100   4.323  0.00  0.00    +0.085 C 
ATOM      6  C   UNL     1       5.957   0.964   5.102  0.00  0.00    +0.105 C 
ENDROOT
BRANCH   3   7
ATOM      7  C   UNL     1       7.714   3.049   2.940  0.00  0.00    -0.012 A 
ATOM      8  C   UNL     1       6.638   3.876   2.682  0.00  0.00    +0.115 A 
ATOM      9  N   UNL     1       6.558   4.546   1.549  0.00  0.00    -0.263 NA
ATOM     10  C   UNL     1       7.493   4.455   0.623  0.00  0.00    +0.111 A 
ATOM     11  C   UNL     1       8.599   3.648   0.811  0.00  0.00    +0.020 A 
ATOM     12  C   UNL     1       8.720   2.933   1.992  0.00  0.00    +0.008 A 
ENDBRANCH   3   7
TORSDOF 1
ENDMDL
MODEL 8
REMARK VINA RESULT:    -3.342      2.430      2.756
REMARK INTER + INTRA:          -3.789
REMARK INTER:                  -3.576
REMARK INTRA:                  -0.214
REMARK UNBOUND:                -0.252
REMARK  Name = Nicotine.pdb
REMARK  2 active torsions:
REMARK  status: ('A' for Active; 'I' for Inactive)
REMARK    1  A    between atoms: C_3  and  C_6
REMARK    2  A    between atoms: N_4  and  C_12
REMARK                            x       y       z     vdW  Elec       q    Type
REMARK                         _______ _______ _______ _____ _____    ______ ____
ROOT
ATOM      1  C   UNL     1       8.560   5.532  -1.499  0.00  0.00    +0.017 C 
ATOM      2  C   UNL     1       8.370   4.799  -0.145  0.00  0.00    +0.025 C 
ATOM      3  C   UNL     1       7.120   5.482   0.448  0.00  0.00    +0.088 C 
ATOM      4  N   UNL     1       6.997   6.802  -0.196  0.00  0.00    -0.298 NA
ATOM      5  C   UNL     1       8.124   6.974  -1.138  0.00  0.00    +0.085 C 
ATOM      6  C   UNL     1       5.708   6.933  -0.888  0.00  0.00    +0.105 C 
ENDROOT
BRANCH   3   7
ATOM      7  C   UNL     1       7.285   5.650   1.936  0.00  0.00    -0.012 A 
ATOM      8  C   UNL     1       7.361   4.543   2.760  0.00  0.00    +0.115 A 
ATOM      9  N   UNL     1       7.506   4.681   4.064  0.00  0.00    -0.263 NA
ATOM     10  C   UNL     1       7.583   5.869   4.631  0.00  0.00    +0.111 A 
ATOM     11  C   UNL     1       7.515   7.021   3.871  0.00  0.00    +0.020 A 
ATOM     12  C   UNL     1       7.368   6.916   2.496  0.00  0.00    +0.008 A 
ENDBRANCH   3   7
TORSDOF 1
ENDMDL
MODEL 9
REMARK VINA RESULT:    -3.280      1.553      4.769
REMARK INTER + INTRA:          -3.724
REMARK INTER:                  -3.468
REMARK INTRA:                  -0.256
REMARK UNBOUND:                -0.252
REMARK  Name = Nicotine.pdb
REMARK  2 active torsions:
REMARK  status: ('A' for Active; 'I' for Inactive)
REMARK    1  A    between atoms: C_3  and  C_6
REMARK    2  A    between atoms: N_4  and  C_12
REMARK                            x       y       z     vdW  Elec       q    Type
REMARK                         _______ _______ _______ _____ _____    ______ ____
ROOT
ATOM      1  C   UNL     1       6.443   2.493   5.047  0.00  0.00    +0.017 C 
ATOM      2  C   UNL     1       6.224   2.578   3.514  0.00  0.00    +0.025 C 
ATOM      3  C   UNL     1       7.660   2.512   2.953  0.00  0.00    +0.088 C 
ATOM      4  N   UNL     1       8.570   2.939   4.032  0.00  0.00    -0.298 NA
ATOM      5  C   UNL     1       7.762   3.289   5.219  0.00  0.00    +0.085 C 
ATOM      6  C   UNL     1       9.544   1.886   4.348  0.00  0.00    +0.105 C 
ENDROOT
BRANCH   3   7
ATOM      7  C   UNL     1       7.793   3.438   1.772  0.00  0.00    -0.012 A 
ATOM      8  C   UNL     1       8.851   3.303   0.894  0.00  0.00    +0.115 A 
ATOM      9  N   UNL     1       8.974   4.109  -0.143  0.00  0.00    -0.263 NA
ATOM     10  C   UNL     1       8.102   5.068  -0.382  0.00  0.00    +0.111 A 
ATOM     11  C   UNL     1       7.017   5.263   0.452  0.00  0.00    +0.020 A 
ATOM     12  C   UNL     1       6.852   4.431   1.549  0.00  0.00    +0.008 A 
ENDBRANCH   3   7
TORSDOF 1
ENDMDL
MODEL 10
REMARK VINA RESULT:    -3.277      1.618      4.489
REMARK INTER + INTRA:          -3.721
REMARK INTER:                  -3.494
REMARK INTRA:                  -0.226
REMARK UNBOUND:                -0.252
REMARK  Name = Nicotine.pdb
REMARK  2 active torsions:
REMARK  status: ('A' for Active; 'I' for Inactive)
REMARK    1  A    between atoms: C_3  and  C_6
REMARK    2  A    between atoms: N_4  and  C_12
REMARK                            x       y       z     vdW  Elec       q    Type
REMARK                         _______ _______ _______ _____ _____    ______ ____
ROOT
ATOM      1  C   UNL     1       8.965   3.543   3.113  0.00  0.00    +0.017 C 
ATOM      2  C   UNL     1       9.205   4.718   2.129  0.00  0.00    +0.025 C 
ATOM      3  C   UNL     1       7.976   4.646   1.197  0.00  0.00    +0.088 C 
ATOM      4  N   UNL     1       7.448   3.272   1.275  0.00  0.00    -0.298 NA
ATOM      5  C   UNL     1       8.307   2.489   2.188  0.00  0.00    +0.085 C 
ATOM      6  C   UNL     1       6.052   3.269   1.730  0.00  0.00    +0.105 C 
ENDROOT
BRANCH   3   7
ATOM      7  C   UNL     1       8.387   4.960  -0.218  0.00  0.00    -0.012 A 
ATOM      8  C   UNL     1       7.748   5.961  -0.926  0.00  0.00    +0.115 A 
ATOM      9  N   UNL     1       8.102   6.242  -2.165  0.00  0.00    -0.263 NA
ATOM     10  C   UNL     1       9.069   5.588  -2.775  0.00  0.00    +0.111 A 
ATOM     11  C   UNL     1       9.754   4.574  -2.130  0.00  0.00    +0.020 A 
ATOM     12  C   UNL     1       9.414   4.254  -0.825  0.00  0.00    +0.008 A 
ENDBRANCH   3   7
TORSDOF 1
ENDMDL
