MODEL 1
REMARK VINA RESULT:    -3.473      0.000      0.000
REMARK INTER + INTRA:          -3.921
REMARK INTER:                  -3.676
REMARK INTRA:                  -0.245
REMARK UNBOUND:                -0.245
REMARK  Name = Nicotine.pdb
REMARK  2 active torsions:
REMARK  status: ('A' for Active; 'I' for Inactive)
REMARK    1  A    between atoms: C_3  and  C_6
REMARK    2  A    between atoms: N_4  and  C_12
REMARK                            x       y       z     vdW  Elec       q    Type
REMARK                         _______ _______ _______ _____ _____    ______ ____
ROOT
ATOM      1  C   UNL     1       4.429  -1.041  -1.424  0.00  0.00    +0.017 C 
ATOM      2  C   UNL     1       3.295  -0.037  -1.763  0.00  0.00    +0.025 C 
ATOM      3  C   UNL     1       3.882   0.763  -2.946  0.00  0.00    +0.088 C 
ATOM      4  N   UNL     1       5.349   0.632  -2.876  0.00  0.00    -0.298 NA
ATOM      5  C   UNL     1       5.693  -0.188  -1.695  0.00  0.00    +0.085 C 
ATOM      6  C   UNL     1       5.883   0.035  -4.107  0.00  0.00    +0.105 C 
ENDROOT
BRANCH   3   7
ATOM      7  C   UNL     1       3.489   2.213  -2.828  0.00  0.00    -0.012 A 
ATOM      8  C   UNL     1       3.080   2.918  -3.944  0.00  0.00    +0.115 A 
ATOM      9  N   UNL     1       2.734   4.188  -3.850  0.00  0.00    -0.263 NA
ATOM     10  C   UNL     1       2.764   4.831  -2.700  0.00  0.00    +0.111 A 
ATOM     11  C   UNL     1       3.162   4.191  -1.541  0.00  0.00    +0.020 A 
ATOM     12  C   UNL     1       3.528   2.855  -1.600  0.00  0.00    +0.008 A 
ENDBRANCH   3   7
TORSDOF 1
ENDMDL
MODEL 2
REMARK VINA RESULT:    -3.382      1.634      4.733
REMARK INTER + INTRA:          -3.826
REMARK INTER:                  -3.592
REMARK INTRA:                  -0.233
REMARK UNBOUND:                -0.245
REMARK  Name = Nicotine.pdb
REMARK  2 active torsions:
REMARK  status: ('A' for Active; 'I' for Inactive)
REMARK    1  A    between atoms: C_3  and  C_6
REMARK    2  A    between atoms: N_4  and  C_12
REMARK                            x       y       z     vdW  Elec       q    Type
REMARK                         _______ _______ _______ _____ _____    ______ ____
ROOT
ATOM      1  C   UNL     1       2.823   4.511  -2.713  0.00  0.00    +0.017 C 
ATOM      2  C   UNL     1       3.093   3.055  -3.174  0.00  0.00    +0.025 C 
ATOM      3  C   UNL     1       2.583   2.214  -1.985  0.00  0.00    +0.088 C 
ATOM      4  N   UNL     1       2.592   3.087  -0.797  0.00  0.00    -0.298 NA
ATOM      5  C   UNL     1       3.106   4.415  -1.193  0.00  0.00    +0.085 C 
ATOM      6  C   UNL     1       1.249   3.194  -0.212  0.00  0.00    +0.105 C 
ENDROOT
BRANCH   3   7
ATOM      7  C   UNL     1       3.494   1.035  -1.763  0.00  0.00    -0.012 A 
ATOM      8  C   UNL     1       2.973  -0.240  -1.652  0.00  0.00    +0.115 A 
ATOM      9  N   UNL     1       3.763  -1.278  -1.458  0.00  0.00    -0.263 NA
ATOM     10  C   UNL     1       5.071  -1.144  -1.361  0.00  0.00    +0.111 A 
ATOM     11  C   UNL     1       5.665   0.100  -1.463  0.00  0.00    +0.020 A 
ATOM     12  C   UNL     1       4.866   1.214  -1.672  0.00  0.00    +0.008 A 
ENDBRANCH   3   7
TORSDOF 1
ENDMDL
MODEL 3
REMARK VINA RESULT:    -3.360      1.029      1.625
REMARK INTER + INTRA:          -3.802
REMARK INTER:                  -3.591
REMARK INTRA:                  -0.211
REMARK UNBOUND:                -0.245
REMARK  Name = Nicotine.pdb
REMARK  2 active torsions:
REMARK  status: ('A' for Active; 'I' for Inactive)
REMARK    1  A    between atoms: C_3  and  C_6
REMARK    2  A    between atoms: N_4  and  C_12
REMARK                            x       y       z     vdW  Elec       q    Type
REMARK                         _______ _______ _______ _____ _____    ______ ____
ROOT
ATOM      1  C   UNL     1       5.685  -0.832  -2.370  0.00  0.00    +0.017 C 
ATOM      2  C   UNL     1       5.286   0.486  -1.655  0.00  0.00    +0.025 C 
ATOM      3  C   UNL     1       3.790   0.632  -2.005  0.00  0.00    +0.088 C 
ATOM      4  N   UNL     1       3.548  -0.157  -3.226  0.00  0.00    -0.298 NA
ATOM      5  C   UNL     1       4.827  -0.761  -3.658  0.00  0.00    +0.085 C 
ATOM      6  C   UNL     1       2.530  -1.190  -2.993  0.00  0.00    +0.105 C 
ENDROOT
BRANCH   3   7
ATOM      7  C   UNL     1       3.461   2.081  -2.256  0.00  0.00    -0.012 A 
ATOM      8  C   UNL     1       3.166   2.520  -3.533  0.00  0.00    +0.115 A 
ATOM      9  N   UNL     1       2.877   3.786  -3.761  0.00  0.00    -0.263 NA
ATOM     10  C   UNL     1       2.858   4.678  -2.790  0.00  0.00    +0.111 A 
ATOM     11  C   UNL     1       3.143   4.313  -1.488  0.00  0.00    +0.020 A 
ATOM     12  C   UNL     1       3.446   2.989  -1.209  0.00  0.00    +0.008 A 
ENDBRANCH   3   7
TORSDOF 1
ENDMDL
MODEL 4
REMARK VINA RESULT:    -3.305      4.253      5.963
REMARK INTER + INTRA:          -3.743
REMARK INTER:                  -3.544
REMARK INTRA:                  -0.199
REMARK UNBOUND:                -0.245
REMARK  Name = Nicotine.pdb
REMARK  2 active torsions:
REMARK  status: ('A' for Active; 'I' for Inactive)
REMARK    1  A    between atoms: C_3  and  C_6
REMARK    2  A    between atoms: N_4  and  C_12
REMARK                            x       y       z     vdW  Elec       q    Type
REMARK                         _______ _______ _______ _____ _____    ______ ____
ROOT
ATOM      1  C   UNL     1       1.878   2.625  -0.624  0.00  0.00    +0.017 C 
ATOM      2  C   UNL     1       1.237   3.310   0.611  0.00  0.00    +0.025 C 
ATOM      3  C   UNL     1       1.533   4.806   0.371  0.00  0.00    +0.088 C 
ATOM      4  N   UNL     1       2.686   4.881  -0.543  0.00  0.00    -0.298 NA
ATOM      5  C   UNL     1       3.130   3.506  -0.856  0.00  0.00    +0.085 C 
ATOM      6  C   UNL     1       2.342   5.615  -1.768  0.00  0.00    +0.105 C 
ENDROOT
BRANCH   3   7
ATOM      7  C   UNL     1       1.866   5.479   1.677  0.00  0.00    -0.012 A 
ATOM      8  C   UNL     1       0.859   5.944   2.501  0.00  0.00    +0.115 A 
ATOM      9  N   UNL     1       1.142   6.534   3.646  0.00  0.00    -0.263 NA
ATOM     10  C   UNL     1       2.386   6.704   4.049  0.00  0.00    +0.111 A 
ATOM     11  C   UNL     1       3.446   6.264   3.278  0.00  0.00    +0.020 A 
ATOM     12  C   UNL     1       3.187   5.634   2.070  0.00  0.00    +0.008 A 
ENDBRANCH   3   7
TORSDOF 1
ENDMDL
MODEL 5
REMARK VINA RESULT:    -3.198      1.433      2.187
REMARK INTER + INTRA:          -3.630
REMARK INTER:                  -3.410
REMARK INTRA:                  -0.220
REMARK UNBOUND:                -0.245
REMARK  Name = Nicotine.pdb
REMARK  2 active torsions:
REMARK  status: ('A' for Active; 'I' for Inactive)
REMARK    1  A    between atoms: C_3  and  C_6
REMARK    2  A    between atoms: N_4  and  C_12
REMARK                            x       y       z     vdW  Elec       q    Type
REMARK                         _______ _______ _______ _____ _____    ______ ____
ROOT
ATOM      1  C   UNL     1       2.626  -1.920  -2.749  0.00  0.00    +0.017 C 
ATOM      2  C   UNL     1       2.704  -0.604  -3.566  0.00  0.00    +0.025 C 
ATOM      3  C   UNL     1       3.859   0.160  -2.884  0.00  0.00    +0.088 C 
ATOM      4  N   UNL     1       3.996  -0.382  -1.520  0.00  0.00    -0.298 NA
ATOM      5  C   UNL     1       2.965  -1.424  -1.322  0.00  0.00    +0.085 C 
ATOM      6  C   UNL     1       5.343  -0.925  -1.302  0.00  0.00    +0.105 C 
ENDROOT
BRANCH   3   7
ATOM      7  C   UNL     1       3.536   1.630  -2.823  0.00  0.00    -0.012 A 
ATOM      8  C   UNL     1       3.685   2.330  -1.641  0.00  0.00    +0.115 A 
ATOM      9  N   UNL     1       3.404   3.617  -1.579  0.00  0.00    -0.263 NA
ATOM     10  C   UNL     1       2.974   4.284  -2.631  0.00  0.00    +0.111 A 
ATOM     11  C   UNL     1       2.802   3.651  -3.848  0.00  0.00    +0.020 A 
ATOM     12  C   UNL     1       3.092   2.300  -3.953  0.00  0.00    +0.008 A 
ENDBRANCH   3   7
TORSDOF 1
ENDMDL
MODEL 6
REMARK VINA RESULT:    -3.077      2.490      4.333
REMARK INTER + INTRA:          -3.503
REMARK INTER:                  -3.287
REMARK INTRA:                  -0.216
REMARK UNBOUND:                -0.245
REMARK  Name = Nicotine.pdb
REMARK  2 active torsions:
REMARK  status: ('A' for Active; 'I' for Inactive)
REMARK    1  A    between atoms: C_3  and  C_6
REMARK    2  A    between atoms: N_4  and  C_12
REMARK                            x       y       z     vdW  Elec       q    Type
REMARK                         _______ _______ _______ _____ _____    ______ ____
ROOT
ATOM      1  C   UNL     1       0.834  -2.329  -4.345  0.00  0.00    +0.017 C 
ATOM      2  C   UNL     1       1.635  -2.191  -3.024  0.00  0.00    +0.025 C 
ATOM      3  C   UNL     1       1.836  -0.666  -2.898  0.00  0.00    +0.088 C 
ATOM      4  N   UNL     1       1.699  -0.094  -4.249  0.00  0.00    -0.298 NA
ATOM      5  C   UNL     1       1.448  -1.195  -5.203  0.00  0.00    +0.085 C 
ATOM      6  C   UNL     1       0.617   0.899  -4.293  0.00  0.00    +0.105 C 
ENDROOT
BRANCH   3   7
ATOM      7  C   UNL     1       3.210  -0.374  -2.353  0.00  0.00    -0.012 A 
ATOM      8  C   UNL     1       3.815   0.844  -2.599  0.00  0.00    +0.115 A 
ATOM      9  N   UNL     1       5.018   1.108  -2.126  0.00  0.00    -0.263 NA
ATOM     10  C   UNL     1       5.687   0.230  -1.406  0.00  0.00    +0.111 A 
ATOM     11  C   UNL     1       5.146  -1.009  -1.118  0.00  0.00    +0.020 A 
ATOM     12  C   UNL     1       3.882  -1.321  -1.594  0.00  0.00    +0.008 A 
ENDBRANCH   3   7
TORSDOF 1
ENDMDL
MODEL 7
REMARK VINA RESULT:    -3.073      2.817      5.245
REMARK INTER + INTRA:          -3.498
REMARK INTER:                  -3.283
REMARK INTRA:                  -0.215
REMARK UNBOUND:                -0.245
REMARK  Name = Nicotine.pdb
REMARK  2 active torsions:
REMARK  status: ('A' for Active; 'I' for Inactive)
REMARK    1  A    between atoms: C_3  and  C_6
REMARK    2  A    between atoms: N_4  and  C_12
REMARK                            x       y       z     vdW  Elec       q    Type
REMARK                         _______ _______ _______ _____ _____    ______ ____
ROOT
ATOM      1  C   UNL     1       4.169  -0.660  -4.528  0.00  0.00    +0.017 C 
ATOM      2  C   UNL     1       5.567  -0.925  -5.146  0.00  0.00    +0.025 C 
ATOM      3  C   UNL     1       6.532  -0.397  -4.063  0.00  0.00    +0.088 C 
ATOM      4  N   UNL     1       5.779   0.565  -3.239  0.00  0.00    -0.298 NA
ATOM      5  C   UNL     1       4.407   0.675  -3.778  0.00  0.00    +0.085 C 
ATOM      6  C   UNL     1       5.761   0.152  -1.830  0.00  0.00    +0.105 C 
ENDROOT
BRANCH   3   7
ATOM      7  C   UNL     1       7.706   0.289  -4.712  0.00  0.00    -0.012 A 
ATOM      8  C   UNL     1       7.659   0.639  -6.049  0.00  0.00    +0.115 A 
ATOM      9  N   UNL     1       8.682   1.240  -6.624  0.00  0.00    -0.263 NA
ATOM     10  C   UNL     1       9.782   1.529  -5.957  0.00  0.00    +0.111 A 
ATOM     11  C   UNL     1       9.900   1.210  -4.617  0.00  0.00    +0.020 A 
ATOM     12  C   UNL     1       8.843   0.583  -3.976  0.00  0.00    +0.008 A 
ENDBRANCH   3   7
TORSDOF 1
ENDMDL
MODEL 8
REMARK VINA RESULT:    -2.954      3.500      4.763
REMARK INTER + INTRA:          -3.372
REMARK INTER:                  -3.183
REMARK INTRA:                  -0.188
REMARK UNBOUND:                -0.245
REMARK  Name = Nicotine.pdb
REMARK  2 active torsions:
REMARK  status: ('A' for Active; 'I' for Inactive)
REMARK    1  A    between atoms: C_3  and  C_6
REMARK    2  A    between atoms: N_4  and  C_12
REMARK                            x       y       z     vdW  Elec       q    Type
REMARK                         _______ _______ _______ _____ _____    ______ ____
ROOT
ATOM      1  C   UNL     1       7.475  -2.662  -6.424  0.00  0.00    +0.017 C 
ATOM      2  C   UNL     1       6.101  -2.375  -5.765  0.00  0.00    +0.025 C 
ATOM      3  C   UNL     1       6.288  -0.961  -5.173  0.00  0.00    +0.088 C 
ATOM      4  N   UNL     1       7.737  -0.748  -5.003  0.00  0.00    -0.298 NA
ATOM      5  C   UNL     1       8.447  -1.970  -5.436  0.00  0.00    +0.085 C 
ATOM      6  C   UNL     1       8.190   0.423  -5.763  0.00  0.00    +0.105 C 
ENDROOT
BRANCH   3   7
ATOM      7  C   UNL     1       5.595  -0.868  -3.839  0.00  0.00    -0.012 A 
ATOM      8  C   UNL     1       4.417  -1.556  -3.614  0.00  0.00    +0.115 A 
ATOM      9  N   UNL     1       3.803  -1.479  -2.449  0.00  0.00    -0.263 NA
ATOM     10  C   UNL     1       4.282  -0.750  -1.460  0.00  0.00    +0.111 A 
ATOM     11  C   UNL     1       5.455  -0.035  -1.611  0.00  0.00    +0.020 A 
ATOM     12  C   UNL     1       6.131  -0.095  -2.820  0.00  0.00    +0.008 A 
ENDBRANCH   3   7
TORSDOF 1
ENDMDL
MODEL 9
REMARK VINA RESULT:    -2.935      5.338      8.215
REMARK INTER + INTRA:          -3.352
REMARK INTER:                  -3.128
REMARK INTRA:                  -0.224
REMARK UNBOUND:                -0.245
REMARK  Name = Nicotine.pdb
REMARK  2 active torsions:
REMARK  status: ('A' for Active; 'I' for Inactive)
REMARK    1  A    between atoms: C_3  and  C_6
REMARK    2  A    between atoms: N_4  and  C_12
REMARK                            x       y       z     vdW  Elec       q    Type
REMARK                         _______ _______ _______ _____ _____    ______ ____
ROOT
ATOM      1  C   UNL     1       9.570   0.753  -4.284  0.00  0.00    +0.017 C 
ATOM      2  C   UNL     1      10.232  -0.367  -5.129  0.00  0.00    +0.025 C 
ATOM      3  C   UNL     1       9.157  -0.685  -6.189  0.00  0.00    +0.088 C 
ATOM      4  N   UNL     1       7.861  -0.240  -5.644  0.00  0.00    -0.298 NA
ATOM      5  C   UNL     1       8.084   0.312  -4.291  0.00  0.00    +0.085 C 
ATOM      6  C   UNL     1       7.233   0.755  -6.523  0.00  0.00    +0.105 C 
ENDROOT
BRANCH   3   7
ATOM      7  C   UNL     1       9.121  -2.167  -6.455  0.00  0.00    -0.012 A 
ATOM      8  C   UNL     1       7.939  -2.873  -6.323  0.00  0.00    +0.115 A 
ATOM      9  N   UNL     1       7.899  -4.171  -6.554  0.00  0.00    -0.263 NA
ATOM     10  C   UNL     1       8.974  -4.844  -6.916  0.00  0.00    +0.111 A 
ATOM     11  C   UNL     1      10.191  -4.206  -7.068  0.00  0.00    +0.020 A 
ATOM     12  C   UNL     1      10.270  -2.840  -6.839  0.00  0.00    +0.008 A 
ENDBRANCH   3   7
TORSDOF 1
ENDMDL
MODEL 10
REMARK VINA RESULT:    -2.902      2.214      4.784
REMARK INTER + INTRA:          -3.317
REMARK INTER:                  -3.062
REMARK INTRA:                  -0.254
REMARK UNBOUND:                -0.245
REMARK  Name = Nicotine.pdb
REMARK  2 active torsions:
REMARK  status: ('A' for Active; 'I' for Inactive)
REMARK    1  A    between atoms: C_3  and  C_6
REMARK    2  A    between atoms: N_4  and  C_12
REMARK                            x       y       z     vdW  Elec       q    Type
REMARK                         _______ _______ _______ _____ _____    ______ ____
ROOT
ATOM      1  C   UNL     1       0.210   3.742   0.636  0.00  0.00    +0.017 C 
ATOM      2  C   UNL     1       1.519   2.962   0.344  0.00  0.00    +0.025 C 
ATOM      3  C   UNL     1       2.001   3.579  -0.987  0.00  0.00    +0.088 C 
ATOM      4  N   UNL     1       0.825   4.180  -1.641  0.00  0.00    -0.298 NA
ATOM      5  C   UNL     1      -0.361   3.941  -0.790  0.00  0.00    +0.085 C 
ATOM      6  C   UNL     1       1.026   5.616  -1.872  0.00  0.00    +0.105 C 
ENDROOT
BRANCH   3   7
ATOM      7  C   UNL     1       2.587   2.506  -1.867  0.00  0.00    -0.012 A 
ATOM      8  C   UNL     1       3.320   2.844  -2.989  0.00  0.00    +0.115 A 
ATOM      9  N   UNL     1       3.836   1.911  -3.765  0.00  0.00    -0.263 NA
ATOM     10  C   UNL     1       3.676   0.628  -3.506  0.00  0.00    +0.111 A 
ATOM     11  C   UNL     1       2.955   0.214  -2.402  0.00  0.00    +0.020 A 
ATOM     12  C   UNL     1       2.402   1.166  -1.560  0.00  0.00    +0.008 A 
ENDBRANCH   3   7
TORSDOF 1
ENDMDL
