MODEL 1
REMARK VINA RESULT:    -4.128      0.000      0.000
REMARK INTER + INTRA:          -4.586
REMARK INTER:                  -4.369
REMARK INTRA:                  -0.216
REMARK UNBOUND:                -0.216
REMARK  Name = Nicotine.pdb
REMARK  2 active torsions:
REMARK  status: ('A' for Active; 'I' for Inactive)
REMARK    1  A    between atoms: C_3  and  C_6
REMARK    2  A    between atoms: N_4  and  C_12
REMARK                            x       y       z     vdW  Elec       q    Type
REMARK                         _______ _______ _______ _____ _____    ______ ____
ROOT
ATOM      1  C   UNL     1       8.796   7.028   1.554  0.00  0.00    +0.017 C 
ATOM      2  C   UNL     1       7.975   6.586   0.314  0.00  0.00    +0.025 C 
ATOM      3  C   UNL     1       8.778   5.383  -0.224  0.00  0.00    +0.088 C 
ATOM      4  N   UNL     1      10.156   5.517   0.281  0.00  0.00    -0.298 NA
ATOM      5  C   UNL     1      10.246   6.757   1.081  0.00  0.00    +0.085 C 
ATOM      6  C   UNL     1      10.541   4.345   1.079  0.00  0.00    +0.105 C 
ENDROOT
BRANCH   3   7
ATOM      7  C   UNL     1       8.778   5.399  -1.730  0.00  0.00    -0.012 A 
ATOM      8  C   UNL     1       9.952   5.615  -2.427  0.00  0.00    +0.115 A 
ATOM      9  N   UNL     1       9.961   5.630  -3.745  0.00  0.00    -0.263 NA
ATOM     10  C   UNL     1       8.862   5.442  -4.448  0.00  0.00    +0.111 A 
ATOM     11  C   UNL     1       7.650   5.219  -3.821  0.00  0.00    +0.020 A 
ATOM     12  C   UNL     1       7.603   5.191  -2.436  0.00  0.00    +0.008 A 
ENDBRANCH   3   7
TORSDOF 1
ENDMDL
MODEL 2
REMARK VINA RESULT:    -3.820     10.145     11.715
REMARK INTER + INTRA:          -4.260
REMARK INTER:                  -4.044
REMARK INTRA:                  -0.216
REMARK UNBOUND:                -0.216
REMARK  Name = Nicotine.pdb
REMARK  2 active torsions:
REMARK  status: ('A' for Active; 'I' for Inactive)
REMARK    1  A    between atoms: C_3  and  C_6
REMARK    2  A    between atoms: N_4  and  C_12
REMARK                            x       y       z     vdW  Elec       q    Type
REMARK                         _______ _______ _______ _____ _____    ______ ____
ROOT
ATOM      1  C   UNL     1       8.130  -0.961   4.611  0.00  0.00    +0.017 C 
ATOM      2  C   UNL     1       6.945  -1.533   5.432  0.00  0.00    +0.025 C 
ATOM      3  C   UNL     1       7.180  -3.057   5.368  0.00  0.00    +0.088 C 
ATOM      4  N   UNL     1       8.020  -3.319   4.185  0.00  0.00    -0.298 NA
ATOM      5  C   UNL     1       8.291  -2.034   3.505  0.00  0.00    +0.085 C 
ATOM      6  C   UNL     1       9.271  -3.989   4.565  0.00  0.00    +0.105 C 
ENDROOT
BRANCH   3   7
ATOM      7  C   UNL     1       5.862  -3.774   5.232  0.00  0.00    -0.012 A 
ATOM      8  C   UNL     1       5.811  -5.045   4.691  0.00  0.00    +0.115 A 
ATOM      9  N   UNL     1       4.661  -5.680   4.569  0.00  0.00    -0.263 NA
ATOM     10  C   UNL     1       3.524  -5.134   4.952  0.00  0.00    +0.111 A 
ATOM     11  C   UNL     1       3.497  -3.866   5.502  0.00  0.00    +0.020 A 
ATOM     12  C   UNL     1       4.687  -3.170   5.652  0.00  0.00    +0.008 A 
ENDBRANCH   3   7
TORSDOF 1
ENDMDL
MODEL 3
REMARK VINA RESULT:    -3.672      1.328      4.519
REMARK INTER + INTRA:          -4.103
REMARK INTER:                  -3.907
REMARK INTRA:                  -0.196
REMARK UNBOUND:                -0.216
REMARK  Name = Nicotine.pdb
REMARK  2 active torsions:
REMARK  status: ('A' for Active; 'I' for Inactive)
REMARK    1  A    between atoms: C_3  and  C_6
REMARK    2  A    between atoms: N_4  and  C_12
REMARK                            x       y       z     vdW  Elec       q    Type
REMARK                         _______ _______ _______ _____ _____    ______ ____
ROOT
ATOM      1  C   UNL     1       7.996   5.149  -3.524  0.00  0.00    +0.017 C 
ATOM      2  C   UNL     1       7.609   5.700  -2.126  0.00  0.00    +0.025 C 
ATOM      3  C   UNL     1       8.914   6.367  -1.642  0.00  0.00    +0.088 C 
ATOM      4  N   UNL     1      10.023   5.752  -2.393  0.00  0.00    -0.298 NA
ATOM      5  C   UNL     1       9.467   4.721  -3.296  0.00  0.00    +0.085 C 
ATOM      6  C   UNL     1      10.774   6.763  -3.147  0.00  0.00    +0.105 C 
ENDROOT
BRANCH   3   7
ATOM      7  C   UNL     1       9.097   6.126  -0.166  0.00  0.00    -0.012 A 
ATOM      8  C   UNL     1       8.527   6.982   0.757  0.00  0.00    +0.115 A 
ATOM      9  N   UNL     1       8.682   6.778   2.051  0.00  0.00    -0.263 NA
ATOM     10  C   UNL     1       9.380   5.760   2.514  0.00  0.00    +0.111 A 
ATOM     11  C   UNL     1       9.978   4.862   1.650  0.00  0.00    +0.020 A 
ATOM     12  C   UNL     1       9.833   5.040   0.283  0.00  0.00    +0.008 A 
ENDBRANCH   3   7
TORSDOF 1
ENDMDL
MODEL 4
REMARK VINA RESULT:    -3.630      1.248      2.117
REMARK INTER + INTRA:          -4.058
REMARK INTER:                  -3.864
REMARK INTRA:                  -0.194
REMARK UNBOUND:                -0.216
REMARK  Name = Nicotine.pdb
REMARK  2 active torsions:
REMARK  status: ('A' for Active; 'I' for Inactive)
REMARK    1  A    between atoms: C_3  and  C_6
REMARK    2  A    between atoms: N_4  and  C_12
REMARK                            x       y       z     vdW  Elec       q    Type
REMARK                         _______ _______ _______ _____ _____    ______ ____
ROOT
ATOM      1  C   UNL     1      10.953   3.771   0.972  0.00  0.00    +0.017 C 
ATOM      2  C   UNL     1      10.814   3.744  -0.573  0.00  0.00    +0.025 C 
ATOM      3  C   UNL     1      10.435   5.201  -0.912  0.00  0.00    +0.088 C 
ATOM      4  N   UNL     1       9.857   5.798   0.305  0.00  0.00    -0.298 NA
ATOM      5  C   UNL     1       9.839   4.771   1.369  0.00  0.00    +0.085 C 
ATOM      6  C   UNL     1      10.619   6.980   0.726  0.00  0.00    +0.105 C 
ENDROOT
BRANCH   3   7
ATOM      7  C   UNL     1       9.420   5.221  -2.026  0.00  0.00    -0.012 A 
ATOM      8  C   UNL     1       9.830   5.270  -3.345  0.00  0.00    +0.115 A 
ATOM      9  N   UNL     1       8.949   5.287  -4.325  0.00  0.00    -0.263 NA
ATOM     10  C   UNL     1       7.652   5.258  -4.092  0.00  0.00    +0.111 A 
ATOM     11  C   UNL     1       7.166   5.208  -2.798  0.00  0.00    +0.020 A 
ATOM     12  C   UNL     1       8.064   5.183  -1.741  0.00  0.00    +0.008 A 
ENDBRANCH   3   7
TORSDOF 1
ENDMDL
MODEL 5
REMARK VINA RESULT:    -3.627     10.531     12.257
REMARK INTER + INTRA:          -4.055
REMARK INTER:                  -3.841
REMARK INTRA:                  -0.214
REMARK UNBOUND:                -0.216
REMARK  Name = Nicotine.pdb
REMARK  2 active torsions:
REMARK  status: ('A' for Active; 'I' for Inactive)
REMARK    1  A    between atoms: C_3  and  C_6
REMARK    2  A    between atoms: N_4  and  C_12
REMARK                            x       y       z     vdW  Elec       q    Type
REMARK                         _______ _______ _______ _____ _____    ______ ____
ROOT
ATOM      1  C   UNL     1       9.643  -4.303   5.423  0.00  0.00    +0.017 C 
ATOM      2  C   UNL     1       8.386  -5.143   5.075  0.00  0.00    +0.025 C 
ATOM      3  C   UNL     1       7.486  -4.131   4.335  0.00  0.00    +0.088 C 
ATOM      4  N   UNL     1       7.916  -2.782   4.745  0.00  0.00    -0.298 NA
ATOM      5  C   UNL     1       9.020  -2.916   5.720  0.00  0.00    +0.085 C 
ATOM      6  C   UNL     1       8.333  -1.985   3.584  0.00  0.00    +0.105 C 
ENDROOT
BRANCH   3   7
ATOM      7  C   UNL     1       6.046  -4.350   4.718  0.00  0.00    -0.012 A 
ATOM      8  C   UNL     1       5.423  -5.551   4.438  0.00  0.00    +0.115 A 
ATOM      9  N   UNL     1       4.162  -5.751   4.770  0.00  0.00    -0.263 NA
ATOM     10  C   UNL     1       3.450  -4.823   5.378  0.00  0.00    +0.111 A 
ATOM     11  C   UNL     1       4.006  -3.596   5.691  0.00  0.00    +0.020 A 
ATOM     12  C   UNL     1       5.330  -3.352   5.362  0.00  0.00    +0.008 A 
ENDBRANCH   3   7
TORSDOF 1
ENDMDL
MODEL 6
REMARK VINA RESULT:    -3.450     10.001     11.776
REMARK INTER + INTRA:          -3.868
REMARK INTER:                  -3.669
REMARK INTRA:                  -0.199
REMARK UNBOUND:                -0.216
REMARK  Name = Nicotine.pdb
REMARK  2 active torsions:
REMARK  status: ('A' for Active; 'I' for Inactive)
REMARK    1  A    between atoms: C_3  and  C_6
REMARK    2  A    between atoms: N_4  and  C_12
REMARK                            x       y       z     vdW  Elec       q    Type
REMARK                         _______ _______ _______ _____ _____    ______ ____
ROOT
ATOM      1  C   UNL     1       5.104  -6.094   4.282  0.00  0.00    +0.017 C 
ATOM      2  C   UNL     1       6.423  -5.364   4.650  0.00  0.00    +0.025 C 
ATOM      3  C   UNL     1       5.929  -4.125   5.427  0.00  0.00    +0.088 C 
ATOM      4  N   UNL     1       4.531  -3.886   5.025  0.00  0.00    -0.298 NA
ATOM      5  C   UNL     1       4.150  -4.902   4.021  0.00  0.00    +0.085 C 
ATOM      6  C   UNL     1       3.634  -3.930   6.187  0.00  0.00    +0.105 C 
ENDROOT
BRANCH   3   7
ATOM      7  C   UNL     1       6.776  -2.929   5.077  0.00  0.00    -0.012 A 
ATOM      8  C   UNL     1       7.853  -3.062   4.220  0.00  0.00    +0.115 A 
ATOM      9  N   UNL     1       8.600  -2.020   3.909  0.00  0.00    -0.263 NA
ATOM     10  C   UNL     1       8.353  -0.821   4.396  0.00  0.00    +0.111 A 
ATOM     11  C   UNL     1       7.293  -0.611   5.258  0.00  0.00    +0.020 A 
ATOM     12  C   UNL     1       6.483  -1.681   5.604  0.00  0.00    +0.008 A 
ENDBRANCH   3   7
TORSDOF 1
ENDMDL
MODEL 7
REMARK VINA RESULT:    -3.184     10.371     12.140
REMARK INTER + INTRA:          -3.586
REMARK INTER:                  -3.370
REMARK INTRA:                  -0.216
REMARK UNBOUND:                -0.216
REMARK  Name = Nicotine.pdb
REMARK  2 active torsions:
REMARK  status: ('A' for Active; 'I' for Inactive)
REMARK    1  A    between atoms: C_3  and  C_6
REMARK    2  A    between atoms: N_4  and  C_12
REMARK                            x       y       z     vdW  Elec       q    Type
REMARK                         _______ _______ _______ _____ _____    ______ ____
ROOT
ATOM      1  C   UNL     1       3.701  -4.863   6.095  0.00  0.00    +0.017 C 
ATOM      2  C   UNL     1       4.307  -3.480   5.736  0.00  0.00    +0.025 C 
ATOM      3  C   UNL     1       5.526  -3.851   4.865  0.00  0.00    +0.088 C 
ATOM      4  N   UNL     1       5.892  -5.240   5.195  0.00  0.00    -0.298 NA
ATOM      5  C   UNL     1       4.974  -5.733   6.244  0.00  0.00    +0.085 C 
ATOM      6  C   UNL     1       5.839  -6.097   4.003  0.00  0.00    +0.105 C 
ENDROOT
BRANCH   3   7
ATOM      7  C   UNL     1       6.676  -2.929   5.173  0.00  0.00    -0.012 A 
ATOM      8  C   UNL     1       7.821  -3.416   5.775  0.00  0.00    +0.115 A 
ATOM      9  N   UNL     1       8.833  -2.616   6.048  0.00  0.00    -0.263 NA
ATOM     10  C   UNL     1       8.795  -1.329   5.763  0.00  0.00    +0.111 A 
ATOM     11  C   UNL     1       7.683  -0.770   5.161  0.00  0.00    +0.020 A 
ATOM     12  C   UNL     1       6.602  -1.582   4.853  0.00  0.00    +0.008 A 
ENDBRANCH   3   7
TORSDOF 1
ENDMDL
MODEL 8
REMARK VINA RESULT:    -3.073     10.879     12.525
REMARK INTER + INTRA:          -3.469
REMARK INTER:                  -3.274
REMARK INTRA:                  -0.195
REMARK UNBOUND:                -0.216
REMARK  Name = Nicotine.pdb
REMARK  2 active torsions:
REMARK  status: ('A' for Active; 'I' for Inactive)
REMARK    1  A    between atoms: C_3  and  C_6
REMARK    2  A    between atoms: N_4  and  C_12
REMARK                            x       y       z     vdW  Elec       q    Type
REMARK                         _______ _______ _______ _____ _____    ______ ____
ROOT
ATOM      1  C   UNL     1       3.722  -3.902   6.137  0.00  0.00    +0.017 C 
ATOM      2  C   UNL     1       4.962  -3.081   5.695  0.00  0.00    +0.025 C 
ATOM      3  C   UNL     1       5.670  -4.027   4.703  0.00  0.00    +0.088 C 
ATOM      4  N   UNL     1       5.222  -5.397   5.011  0.00  0.00    -0.298 NA
ATOM      5  C   UNL     1       4.293  -5.342   6.160  0.00  0.00    +0.085 C 
ATOM      6  C   UNL     1       4.581  -6.017   3.844  0.00  0.00    +0.105 C 
ENDROOT
BRANCH   3   7
ATOM      7  C   UNL     1       7.164  -3.924   4.874  0.00  0.00    -0.012 A 
ATOM      8  C   UNL     1       7.856  -4.893   5.576  0.00  0.00    +0.115 A 
ATOM      9  N   UNL     1       9.163  -4.811   5.730  0.00  0.00    -0.263 NA
ATOM     10  C   UNL     1       9.858  -3.810   5.225  0.00  0.00    +0.111 A 
ATOM     11  C   UNL     1       9.235  -2.805   4.511  0.00  0.00    +0.020 A 
ATOM     12  C   UNL     1       7.862  -2.860   4.324  0.00  0.00    +0.008 A 
ENDBRANCH   3   7
TORSDOF 1
ENDMDL
MODEL 9
REMARK VINA RESULT:    -3.062      9.012     10.873
REMARK INTER + INTRA:          -3.457
REMARK INTER:                  -3.245
REMARK INTRA:                  -0.212
REMARK UNBOUND:                -0.216
REMARK  Name = Nicotine.pdb
REMARK  2 active torsions:
REMARK  status: ('A' for Active; 'I' for Inactive)
REMARK    1  A    between atoms: C_3  and  C_6
REMARK    2  A    between atoms: N_4  and  C_12
REMARK                            x       y       z     vdW  Elec       q    Type
REMARK                         _______ _______ _______ _____ _____    ______ ____
ROOT
ATOM      1  C   UNL     1       9.817  -0.956   3.962  0.00  0.00    +0.017 C 
ATOM      2  C   UNL     1       8.668  -1.897   3.511  0.00  0.00    +0.025 C 
ATOM      3  C   UNL     1       7.510  -1.507   4.455  0.00  0.00    +0.088 C 
ATOM      4  N   UNL     1       8.109  -0.878   5.645  0.00  0.00    -0.298 NA
ATOM      5  C   UNL     1       9.580  -0.884   5.492  0.00  0.00    +0.085 C 
ATOM      6  C   UNL     1       7.604   0.489   5.829  0.00  0.00    +0.105 C 
ENDROOT
BRANCH   3   7
ATOM      7  C   UNL     1       6.740  -2.738   4.857  0.00  0.00    -0.012 A 
ATOM      8  C   UNL     1       7.222  -3.996   4.547  0.00  0.00    +0.115 A 
ATOM      9  N   UNL     1       6.554  -5.079   4.895  0.00  0.00    -0.263 NA
ATOM     10  C   UNL     1       5.410  -5.008   5.547  0.00  0.00    +0.111 A 
ATOM     11  C   UNL     1       4.867  -3.785   5.892  0.00  0.00    +0.020 A 
ATOM     12  C   UNL     1       5.543  -2.624   5.547  0.00  0.00    +0.008 A 
ENDBRANCH   3   7
TORSDOF 1
ENDMDL
