MODEL 1
REMARK VINA RESULT:    -4.184      0.000      0.000
REMARK INTER + INTRA:          -4.644
REMARK INTER:                  -4.428
REMARK INTRA:                  -0.215
REMARK UNBOUND:                -0.215
REMARK  Name = Nicotine.pdb
REMARK  2 active torsions:
REMARK  status: ('A' for Active; 'I' for Inactive)
REMARK    1  A    between atoms: C_3  and  C_6
REMARK    2  A    between atoms: N_4  and  C_12
REMARK                            x       y       z     vdW  Elec       q    Type
REMARK                         _______ _______ _______ _____ _____    ______ ____
ROOT
ATOM      1  C   UNL     1       6.724  -3.013  -1.468  0.00  0.00    +0.017 C 
ATOM      2  C   UNL     1       6.431  -1.497  -1.619  0.00  0.00    +0.025 C 
ATOM      3  C   UNL     1       6.567  -1.267  -3.139  0.00  0.00    +0.088 C 
ATOM      4  N   UNL     1       7.403  -2.358  -3.673  0.00  0.00    -0.298 NA
ATOM      5  C   UNL     1       7.809  -3.232  -2.552  0.00  0.00    +0.085 C 
ATOM      6  C   UNL     1       6.683  -3.120  -4.701  0.00  0.00    +0.105 C 
ENDROOT
BRANCH   3   7
ATOM      7  C   UNL     1       7.227   0.062  -3.400  0.00  0.00    -0.012 A 
ATOM      8  C   UNL     1       7.912   0.712  -2.391  0.00  0.00    +0.115 A 
ATOM      9  N   UNL     1       8.493   1.876  -2.612  0.00  0.00    -0.263 NA
ATOM     10  C   UNL     1       8.445   2.462  -3.791  0.00  0.00    +0.111 A 
ATOM     11  C   UNL     1       7.779   1.871  -4.849  0.00  0.00    +0.020 A 
ATOM     12  C   UNL     1       7.161   0.645  -4.656  0.00  0.00    +0.008 A 
ENDBRANCH   3   7
TORSDOF 1
ENDMDL
MODEL 2
REMARK VINA RESULT:    -4.124      1.234      4.646
REMARK INTER + INTRA:          -4.580
REMARK INTER:                  -4.365
REMARK INTRA:                  -0.215
REMARK UNBOUND:                -0.215
REMARK  Name = Nicotine.pdb
REMARK  2 active torsions:
REMARK  status: ('A' for Active; 'I' for Inactive)
REMARK    1  A    between atoms: C_3  and  C_6
REMARK    2  A    between atoms: N_4  and  C_12
REMARK                            x       y       z     vdW  Elec       q    Type
REMARK                         _______ _______ _______ _____ _____    ______ ____
ROOT
ATOM      1  C   UNL     1       8.321   1.818  -4.220  0.00  0.00    +0.017 C 
ATOM      2  C   UNL     1       7.087   0.892  -4.053  0.00  0.00    +0.025 C 
ATOM      3  C   UNL     1       7.386   0.150  -2.733  0.00  0.00    +0.088 C 
ATOM      4  N   UNL     1       8.843   0.210  -2.518  0.00  0.00    -0.298 NA
ATOM      5  C   UNL     1       9.457   0.930  -3.654  0.00  0.00    +0.085 C 
ATOM      6  C   UNL     1       9.161   0.867  -1.243  0.00  0.00    +0.105 C 
ENDROOT
BRANCH   3   7
ATOM      7  C   UNL     1       6.940  -1.285  -2.839  0.00  0.00    -0.012 A 
ATOM      8  C   UNL     1       6.811  -1.887  -4.076  0.00  0.00    +0.115 A 
ATOM      9  N   UNL     1       6.421  -3.143  -4.178  0.00  0.00    -0.263 NA
ATOM     10  C   UNL     1       6.142  -3.870  -3.114  0.00  0.00    +0.111 A 
ATOM     11  C   UNL     1       6.249  -3.336  -1.844  0.00  0.00    +0.020 A 
ATOM     12  C   UNL     1       6.660  -2.021  -1.697  0.00  0.00    +0.008 A 
ENDBRANCH   3   7
TORSDOF 1
ENDMDL
MODEL 3
REMARK VINA RESULT:    -4.075      1.923      4.800
REMARK INTER + INTRA:          -4.529
REMARK INTER:                  -4.314
REMARK INTRA:                  -0.215
REMARK UNBOUND:                -0.215
REMARK  Name = Nicotine.pdb
REMARK  2 active torsions:
REMARK  status: ('A' for Active; 'I' for Inactive)
REMARK    1  A    between atoms: C_3  and  C_6
REMARK    2  A    between atoms: N_4  and  C_12
REMARK                            x       y       z     vdW  Elec       q    Type
REMARK                         _______ _______ _______ _____ _____    ______ ____
ROOT
ATOM      1  C   UNL     1       6.821   0.279  -2.361  0.00  0.00    +0.017 C 
ATOM      2  C   UNL     1       6.304  -1.171  -2.554  0.00  0.00    +0.025 C 
ATOM      3  C   UNL     1       7.430  -2.026  -1.935  0.00  0.00    +0.088 C 
ATOM      4  N   UNL     1       8.656  -1.209  -1.947  0.00  0.00    -0.298 NA
ATOM      5  C   UNL     1       8.346   0.098  -2.566  0.00  0.00    +0.085 C 
ATOM      6  C   UNL     1       9.188  -1.035  -0.589  0.00  0.00    +0.105 C 
ENDROOT
BRANCH   3   7
ATOM      7  C   UNL     1       7.636  -3.274  -2.755  0.00  0.00    -0.012 A 
ATOM      8  C   UNL     1       8.887  -3.855  -2.841  0.00  0.00    +0.115 A 
ATOM      9  N   UNL     1       9.075  -4.947  -3.556  0.00  0.00    -0.263 NA
ATOM     10  C   UNL     1       8.089  -5.524  -4.212  0.00  0.00    +0.111 A 
ATOM     11  C   UNL     1       6.810  -5.000  -4.173  0.00  0.00    +0.020 A 
ATOM     12  C   UNL     1       6.572  -3.856  -3.427  0.00  0.00    +0.008 A 
ENDBRANCH   3   7
TORSDOF 1
ENDMDL
MODEL 4
REMARK VINA RESULT:    -4.051      1.826      4.925
REMARK INTER + INTRA:          -4.504
REMARK INTER:                  -4.288
REMARK INTRA:                  -0.215
REMARK UNBOUND:                -0.215
REMARK  Name = Nicotine.pdb
REMARK  2 active torsions:
REMARK  status: ('A' for Active; 'I' for Inactive)
REMARK    1  A    between atoms: C_3  and  C_6
REMARK    2  A    between atoms: N_4  and  C_12
REMARK                            x       y       z     vdW  Elec       q    Type
REMARK                         _______ _______ _______ _____ _____    ______ ____
ROOT
ATOM      1  C   UNL     1       6.453   0.270  -2.374  0.00  0.00    +0.017 C 
ATOM      2  C   UNL     1       6.464  -1.274  -2.222  0.00  0.00    +0.025 C 
ATOM      3  C   UNL     1       7.797  -1.541  -1.492  0.00  0.00    +0.088 C 
ATOM      4  N   UNL     1       8.673  -0.383  -1.744  0.00  0.00    -0.298 NA
ATOM      5  C   UNL     1       7.953   0.572  -2.613  0.00  0.00    +0.085 C 
ATOM      6  C   UNL     1       9.079   0.254  -0.484  0.00  0.00    +0.105 C 
ENDROOT
BRANCH   3   7
ATOM      7  C   UNL     1       8.435  -2.795  -2.033  0.00  0.00    -0.012 A 
ATOM      8  C   UNL     1       8.052  -3.300  -3.261  0.00  0.00    +0.115 A 
ATOM      9  N   UNL     1       8.606  -4.397  -3.741  0.00  0.00    -0.263 NA
ATOM     10  C   UNL     1       9.538  -5.051  -3.077  0.00  0.00    +0.111 A 
ATOM     11  C   UNL     1       9.972  -4.605  -1.843  0.00  0.00    +0.020 A 
ATOM     12  C   UNL     1       9.417  -3.453  -1.308  0.00  0.00    +0.008 A 
ENDBRANCH   3   7
TORSDOF 1
ENDMDL
MODEL 5
REMARK VINA RESULT:    -4.016      1.605      2.610
REMARK INTER + INTRA:          -4.466
REMARK INTER:                  -4.210
REMARK INTRA:                  -0.256
REMARK UNBOUND:                -0.215
REMARK  Name = Nicotine.pdb
REMARK  2 active torsions:
REMARK  status: ('A' for Active; 'I' for Inactive)
REMARK    1  A    between atoms: C_3  and  C_6
REMARK    2  A    between atoms: N_4  and  C_12
REMARK                            x       y       z     vdW  Elec       q    Type
REMARK                         _______ _______ _______ _____ _____    ______ ____
ROOT
ATOM      1  C   UNL     1       6.422  -4.216  -3.492  0.00  0.00    +0.017 C 
ATOM      2  C   UNL     1       6.435  -3.176  -2.341  0.00  0.00    +0.025 C 
ATOM      3  C   UNL     1       6.775  -1.858  -3.069  0.00  0.00    +0.088 C 
ATOM      4  N   UNL     1       7.446  -2.216  -4.331  0.00  0.00    -0.298 NA
ATOM      5  C   UNL     1       7.558  -3.688  -4.404  0.00  0.00    +0.085 C 
ATOM      6  C   UNL     1       6.711  -1.686  -5.487  0.00  0.00    +0.105 C 
ENDROOT
BRANCH   3   7
ATOM      7  C   UNL     1       7.696  -1.024  -2.216  0.00  0.00    -0.012 A 
ATOM      8  C   UNL     1       7.766   0.345  -2.395  0.00  0.00    +0.115 A 
ATOM      9  N   UNL     1       8.569   1.082  -1.653  0.00  0.00    -0.263 NA
ATOM     10  C   UNL     1       9.332   0.551  -0.719  0.00  0.00    +0.111 A 
ATOM     11  C   UNL     1       9.315  -0.811  -0.482  0.00  0.00    +0.020 A 
ATOM     12  C   UNL     1       8.479  -1.618  -1.239  0.00  0.00    +0.008 A 
ENDBRANCH   3   7
TORSDOF 1
ENDMDL
MODEL 6
REMARK VINA RESULT:    -4.009      1.522      4.408
REMARK INTER + INTRA:          -4.458
REMARK INTER:                  -4.241
REMARK INTRA:                  -0.218
REMARK UNBOUND:                -0.215
REMARK  Name = Nicotine.pdb
REMARK  2 active torsions:
REMARK  status: ('A' for Active; 'I' for Inactive)
REMARK    1  A    between atoms: C_3  and  C_6
REMARK    2  A    between atoms: N_4  and  C_12
REMARK                            x       y       z     vdW  Elec       q    Type
REMARK                         _______ _______ _______ _____ _____    ______ ____
ROOT
ATOM      1  C   UNL     1       8.278   2.178  -4.296  0.00  0.00    +0.017 C 
ATOM      2  C   UNL     1       8.540   1.121  -3.192  0.00  0.00    +0.025 C 
ATOM      3  C   UNL     1       8.400  -0.216  -3.950  0.00  0.00    +0.088 C 
ATOM      4  N   UNL     1       7.587   0.046  -5.151  0.00  0.00    -0.298 NA
ATOM      5  C   UNL     1       7.198   1.472  -5.155  0.00  0.00    +0.085 C 
ATOM      6  C   UNL     1       8.324  -0.303  -6.373  0.00  0.00    +0.105 C 
ENDROOT
BRANCH   3   7
ATOM      7  C   UNL     1       7.713  -1.233  -3.076  0.00  0.00    -0.012 A 
ATOM      8  C   UNL     1       6.472  -1.730  -3.425  0.00  0.00    +0.115 A 
ATOM      9  N   UNL     1       5.864  -2.621  -2.666  0.00  0.00    -0.263 NA
ATOM     10  C   UNL     1       6.408  -3.069  -1.552  0.00  0.00    +0.111 A 
ATOM     11  C   UNL     1       7.648  -2.617  -1.138  0.00  0.00    +0.020 A 
ATOM     12  C   UNL     1       8.320  -1.685  -1.914  0.00  0.00    +0.008 A 
ENDBRANCH   3   7
TORSDOF 1
ENDMDL
MODEL 7
REMARK VINA RESULT:    -3.984      1.716      4.318
REMARK INTER + INTRA:          -4.433
REMARK INTER:                  -4.179
REMARK INTRA:                  -0.254
REMARK UNBOUND:                -0.215
REMARK  Name = Nicotine.pdb
REMARK  2 active torsions:
REMARK  status: ('A' for Active; 'I' for Inactive)
REMARK    1  A    between atoms: C_3  and  C_6
REMARK    2  A    between atoms: N_4  and  C_12
REMARK                            x       y       z     vdW  Elec       q    Type
REMARK                         _______ _______ _______ _____ _____    ______ ____
ROOT
ATOM      1  C   UNL     1       7.440   1.439  -5.130  0.00  0.00    +0.017 C 
ATOM      2  C   UNL     1       6.892   0.936  -3.770  0.00  0.00    +0.025 C 
ATOM      3  C   UNL     1       8.138   0.319  -3.100  0.00  0.00    +0.088 C 
ATOM      4  N   UNL     1       9.092  -0.013  -4.173  0.00  0.00    -0.298 NA
ATOM      5  C   UNL     1       8.483   0.345  -5.472  0.00  0.00    +0.085 C 
ATOM      6  C   UNL     1      10.368   0.686  -3.979  0.00  0.00    +0.105 C 
ENDROOT
BRANCH   3   7
ATOM      7  C   UNL     1       7.752  -0.930  -2.350  0.00  0.00    -0.012 A 
ATOM      8  C   UNL     1       8.631  -1.506  -1.453  0.00  0.00    +0.115 A 
ATOM      9  N   UNL     1       8.301  -2.599  -0.793  0.00  0.00    -0.263 NA
ATOM     10  C   UNL     1       7.130  -3.183  -0.959  0.00  0.00    +0.111 A 
ATOM     11  C   UNL     1       6.200  -2.663  -1.839  0.00  0.00    +0.020 A 
ATOM     12  C   UNL     1       6.509  -1.512  -2.547  0.00  0.00    +0.008 A 
ENDBRANCH   3   7
TORSDOF 1
ENDMDL
MODEL 8
REMARK VINA RESULT:    -3.982      1.562      2.147
REMARK INTER + INTRA:          -4.431
REMARK INTER:                  -4.179
REMARK INTRA:                  -0.252
REMARK UNBOUND:                -0.215
REMARK  Name = Nicotine.pdb
REMARK  2 active torsions:
REMARK  status: ('A' for Active; 'I' for Inactive)
REMARK    1  A    between atoms: C_3  and  C_6
REMARK    2  A    between atoms: N_4  and  C_12
REMARK                            x       y       z     vdW  Elec       q    Type
REMARK                         _______ _______ _______ _____ _____    ______ ____
ROOT
ATOM      1  C   UNL     1       6.768  -1.052  -1.570  0.00  0.00    +0.017 C 
ATOM      2  C   UNL     1       6.469   0.295  -2.280  0.00  0.00    +0.025 C 
ATOM      3  C   UNL     1       6.642  -0.054  -3.773  0.00  0.00    +0.088 C 
ATOM      4  N   UNL     1       7.498  -1.252  -3.846  0.00  0.00    -0.298 NA
ATOM      5  C   UNL     1       7.882  -1.641  -2.472  0.00  0.00    +0.085 C 
ATOM      6  C   UNL     1       6.809  -2.352  -4.532  0.00  0.00    +0.105 C 
ENDROOT
BRANCH   3   7
ATOM      7  C   UNL     1       7.300   1.093  -4.495  0.00  0.00    -0.012 A 
ATOM      8  C   UNL     1       6.936   1.404  -5.792  0.00  0.00    +0.115 A 
ATOM      9  N   UNL     1       7.507   2.406  -6.431  0.00  0.00    -0.263 NA
ATOM     10  C   UNL     1       8.440   3.147  -5.866  0.00  0.00    +0.111 A 
ATOM     11  C   UNL     1       8.855   2.896  -4.572  0.00  0.00    +0.020 A 
ATOM     12  C   UNL     1       8.274   1.853  -3.867  0.00  0.00    +0.008 A 
ENDBRANCH   3   7
TORSDOF 1
ENDMDL
MODEL 9
REMARK VINA RESULT:    -3.822      1.684      2.670
REMARK INTER + INTRA:          -4.261
REMARK INTER:                  -4.041
REMARK INTRA:                  -0.220
REMARK UNBOUND:                -0.215
REMARK  Name = Nicotine.pdb
REMARK  2 active torsions:
REMARK  status: ('A' for Active; 'I' for Inactive)
REMARK    1  A    between atoms: C_3  and  C_6
REMARK    2  A    between atoms: N_4  and  C_12
REMARK                            x       y       z     vdW  Elec       q    Type
REMARK                         _______ _______ _______ _____ _____    ______ ____
ROOT
ATOM      1  C   UNL     1       9.031  -0.329  -0.558  0.00  0.00    +0.017 C 
ATOM      2  C   UNL     1       8.405   0.653  -1.584  0.00  0.00    +0.025 C 
ATOM      3  C   UNL     1       7.326  -0.207  -2.274  0.00  0.00    +0.088 C 
ATOM      4  N   UNL     1       7.705  -1.619  -2.086  0.00  0.00    -0.298 NA
ATOM      5  C   UNL     1       8.978  -1.668  -1.335  0.00  0.00    +0.085 C 
ATOM      6  C   UNL     1       6.650  -2.359  -1.382  0.00  0.00    +0.105 C 
ENDROOT
BRANCH   3   7
ATOM      7  C   UNL     1       7.273   0.119  -3.744  0.00  0.00    -0.012 A 
ATOM      8  C   UNL     1       7.226  -0.893  -4.684  0.00  0.00    +0.115 A 
ATOM      9  N   UNL     1       7.179  -0.616  -5.972  0.00  0.00    -0.263 NA
ATOM     10  C   UNL     1       7.177   0.625  -6.415  0.00  0.00    +0.111 A 
ATOM     11  C   UNL     1       7.222   1.690  -5.534  0.00  0.00    +0.020 A 
ATOM     12  C   UNL     1       7.266   1.438  -4.172  0.00  0.00    +0.008 A 
ENDBRANCH   3   7
TORSDOF 1
ENDMDL
MODEL 10
REMARK VINA RESULT:    -3.780      1.621      2.533
REMARK INTER + INTRA:          -4.216
REMARK INTER:                  -4.010
REMARK INTRA:                  -0.206
REMARK UNBOUND:                -0.215
REMARK  Name = Nicotine.pdb
REMARK  2 active torsions:
REMARK  status: ('A' for Active; 'I' for Inactive)
REMARK    1  A    between atoms: C_3  and  C_6
REMARK    2  A    between atoms: N_4  and  C_12
REMARK                            x       y       z     vdW  Elec       q    Type
REMARK                         _______ _______ _______ _____ _____    ______ ____
ROOT
ATOM      1  C   UNL     1       9.758  -4.812  -2.353  0.00  0.00    +0.017 C 
ATOM      2  C   UNL     1       9.234  -3.567  -1.590  0.00  0.00    +0.025 C 
ATOM      3  C   UNL     1       7.943  -3.209  -2.355  0.00  0.00    +0.088 C 
ATOM      4  N   UNL     1       8.057  -3.794  -3.703  0.00  0.00    -0.298 NA
ATOM      5  C   UNL     1       9.365  -4.473  -3.813  0.00  0.00    +0.085 C 
ATOM      6  C   UNL     1       6.955  -4.728  -3.967  0.00  0.00    +0.105 C 
ENDROOT
BRANCH   3   7
ATOM      7  C   UNL     1       7.804  -1.712  -2.455  0.00  0.00    -0.012 A 
ATOM      8  C   UNL     1       8.905  -0.925  -2.735  0.00  0.00    +0.115 A 
ATOM      9  N   UNL     1       8.793   0.386  -2.824  0.00  0.00    -0.263 NA
ATOM     10  C   UNL     1       7.637   0.996  -2.651  0.00  0.00    +0.111 A 
ATOM     11  C   UNL     1       6.492   0.275  -2.369  0.00  0.00    +0.020 A 
ATOM     12  C   UNL     1       6.570  -1.106  -2.273  0.00  0.00    +0.008 A 
ENDBRANCH   3   7
TORSDOF 1
ENDMDL
