MODEL 1
REMARK VINA RESULT:    -4.018      0.000      0.000
REMARK INTER + INTRA:          -4.455
REMARK INTER:                  -4.253
REMARK INTRA:                  -0.201
REMARK UNBOUND:                -0.201
REMARK  Name = Nicotine.pdb
REMARK  2 active torsions:
REMARK  status: ('A' for Active; 'I' for Inactive)
REMARK    1  A    between atoms: C_3  and  C_6
REMARK    2  A    between atoms: N_4  and  C_12
REMARK                            x       y       z     vdW  Elec       q    Type
REMARK                         _______ _______ _______ _____ _____    ______ ____
ROOT
ATOM      1  C   UNL     1      10.383   2.088  -0.766  0.00  0.00    +0.017 C 
ATOM      2  C   UNL     1      10.553   0.627  -0.273  0.00  0.00    +0.025 C 
ATOM      3  C   UNL     1      10.590  -0.181  -1.588  0.00  0.00    +0.088 C 
ATOM      4  N   UNL     1       9.930   0.637  -2.622  0.00  0.00    -0.298 NA
ATOM      5  C   UNL     1       9.468   1.896  -2.002  0.00  0.00    +0.085 C 
ATOM      6  C   UNL     1      10.841   0.904  -3.743  0.00  0.00    +0.105 C 
ENDROOT
BRANCH   3   7
ATOM      7  C   UNL     1       9.849  -1.481  -1.411  0.00  0.00    -0.012 A 
ATOM      8  C   UNL     1      10.078  -2.270  -0.300  0.00  0.00    +0.115 A 
ATOM      9  N   UNL     1       9.434  -3.410  -0.137  0.00  0.00    -0.263 NA
ATOM     10  C   UNL     1       8.554  -3.841  -1.020  0.00  0.00    +0.111 A 
ATOM     11  C   UNL     1       8.273  -3.105  -2.156  0.00  0.00    +0.020 A 
ATOM     12  C   UNL     1       8.927  -1.899  -2.358  0.00  0.00    +0.008 A 
ENDBRANCH   3   7
TORSDOF 1
ENDMDL
MODEL 2
REMARK VINA RESULT:    -3.863      1.431      4.808
REMARK INTER + INTRA:          -4.290
REMARK INTER:                  -4.062
REMARK INTRA:                  -0.228
REMARK UNBOUND:                -0.201
REMARK  Name = Nicotine.pdb
REMARK  2 active torsions:
REMARK  status: ('A' for Active; 'I' for Inactive)
REMARK    1  A    between atoms: C_3  and  C_6
REMARK    2  A    between atoms: N_4  and  C_12
REMARK                            x       y       z     vdW  Elec       q    Type
REMARK                         _______ _______ _______ _____ _____    ______ ____
ROOT
ATOM      1  C   UNL     1       8.140  -5.299  -1.589  0.00  0.00    +0.017 C 
ATOM      2  C   UNL     1       8.765  -4.138  -2.407  0.00  0.00    +0.025 C 
ATOM      3  C   UNL     1       9.752  -3.500  -1.405  0.00  0.00    +0.088 C 
ATOM      4  N   UNL     1       9.299  -3.868  -0.052  0.00  0.00    -0.298 NA
ATOM      5  C   UNL     1       8.069  -4.680  -0.171  0.00  0.00    +0.085 C 
ATOM      6  C   UNL     1      10.346  -4.601   0.673  0.00  0.00    +0.105 C 
ENDROOT
BRANCH   3   7
ATOM      7  C   UNL     1       9.742  -2.001  -1.560  0.00  0.00    -0.012 A 
ATOM      8  C   UNL     1      10.415  -1.201  -0.657  0.00  0.00    +0.115 A 
ATOM      9  N   UNL     1      10.412   0.112  -0.785  0.00  0.00    -0.263 NA
ATOM     10  C   UNL     1       9.773   0.710  -1.771  0.00  0.00    +0.111 A 
ATOM     11  C   UNL     1       9.078  -0.025  -2.713  0.00  0.00    +0.020 A 
ATOM     12  C   UNL     1       9.063  -1.408  -2.614  0.00  0.00    +0.008 A 
ENDBRANCH   3   7
TORSDOF 1
ENDMDL
MODEL 3
REMARK VINA RESULT:    -3.670      1.778      2.462
REMARK INTER + INTRA:          -4.086
REMARK INTER:                  -3.835
REMARK INTRA:                  -0.251
REMARK UNBOUND:                -0.201
REMARK  Name = Nicotine.pdb
REMARK  2 active torsions:
REMARK  status: ('A' for Active; 'I' for Inactive)
REMARK    1  A    between atoms: C_3  and  C_6
REMARK    2  A    between atoms: N_4  and  C_12
REMARK                            x       y       z     vdW  Elec       q    Type
REMARK                         _______ _______ _______ _____ _____    ______ ____
ROOT
ATOM      1  C   UNL     1      10.217   0.012  -1.348  0.00  0.00    +0.017 C 
ATOM      2  C   UNL     1      10.256  -1.418  -0.746  0.00  0.00    +0.025 C 
ATOM      3  C   UNL     1      10.294  -2.320  -1.997  0.00  0.00    +0.088 C 
ATOM      4  N   UNL     1       9.746  -1.536  -3.118  0.00  0.00    -0.298 NA
ATOM      5  C   UNL     1       9.349  -0.205  -2.612  0.00  0.00    +0.085 C 
ATOM      6  C   UNL     1      10.725  -1.416  -4.206  0.00  0.00    +0.105 C 
ENDROOT
BRANCH   3   7
ATOM      7  C   UNL     1       9.452  -3.549  -1.769  0.00  0.00    -0.012 A 
ATOM      8  C   UNL     1       9.476  -4.591  -2.676  0.00  0.00    +0.115 A 
ATOM      9  N   UNL     1       8.742  -5.670  -2.484  0.00  0.00    -0.263 NA
ATOM     10  C   UNL     1       7.961  -5.798  -1.430  0.00  0.00    +0.111 A 
ATOM     11  C   UNL     1       7.885  -4.797  -0.479  0.00  0.00    +0.020 A 
ATOM     12  C   UNL     1       8.647  -3.650  -0.645  0.00  0.00    +0.008 A 
ENDBRANCH   3   7
TORSDOF 1
ENDMDL
MODEL 4
REMARK VINA RESULT:    -3.504      1.237      4.736
REMARK INTER + INTRA:          -3.910
REMARK INTER:                  -3.725
REMARK INTRA:                  -0.185
REMARK UNBOUND:                -0.201
REMARK  Name = Nicotine.pdb
REMARK  2 active torsions:
REMARK  status: ('A' for Active; 'I' for Inactive)
REMARK    1  A    between atoms: C_3  and  C_6
REMARK    2  A    between atoms: N_4  and  C_12
REMARK                            x       y       z     vdW  Elec       q    Type
REMARK                         _______ _______ _______ _____ _____    ______ ____
ROOT
ATOM      1  C   UNL     1       9.395  -3.437  -3.601  0.00  0.00    +0.017 C 
ATOM      2  C   UNL     1      10.272  -2.167  -3.763  0.00  0.00    +0.025 C 
ATOM      3  C   UNL     1      10.456  -1.685  -2.308  0.00  0.00    +0.088 C 
ATOM      4  N   UNL     1       9.349  -2.251  -1.517  0.00  0.00    -0.298 NA
ATOM      5  C   UNL     1       8.479  -3.036  -2.418  0.00  0.00    +0.085 C 
ATOM      6  C   UNL     1       9.857  -3.083  -0.418  0.00  0.00    +0.105 C 
ENDROOT
BRANCH   3   7
ATOM      7  C   UNL     1      10.409  -0.180  -2.257  0.00  0.00    -0.012 A 
ATOM      8  C   UNL     1      10.682   0.567  -3.387  0.00  0.00    +0.115 A 
ATOM      9  N   UNL     1      10.643   1.885  -3.351  0.00  0.00    -0.263 NA
ATOM     10  C   UNL     1      10.343   2.539  -2.246  0.00  0.00    +0.111 A 
ATOM     11  C   UNL     1      10.058   1.859  -1.077  0.00  0.00    +0.020 A 
ATOM     12  C   UNL     1      10.084   0.473  -1.078  0.00  0.00    +0.008 A 
ENDBRANCH   3   7
TORSDOF 1
ENDMDL
MODEL 5
REMARK VINA RESULT:    -3.406      1.797      2.987
REMARK INTER + INTRA:          -3.806
REMARK INTER:                  -3.604
REMARK INTRA:                  -0.202
REMARK UNBOUND:                -0.201
REMARK  Name = Nicotine.pdb
REMARK  2 active torsions:
REMARK  status: ('A' for Active; 'I' for Inactive)
REMARK    1  A    between atoms: C_3  and  C_6
REMARK    2  A    between atoms: N_4  and  C_12
REMARK                            x       y       z     vdW  Elec       q    Type
REMARK                         _______ _______ _______ _____ _____    ______ ____
ROOT
ATOM      1  C   UNL     1       9.638  -0.041  -3.131  0.00  0.00    +0.017 C 
ATOM      2  C   UNL     1       8.590  -1.153  -2.860  0.00  0.00    +0.025 C 
ATOM      3  C   UNL     1       9.127  -1.831  -1.581  0.00  0.00    +0.088 C 
ATOM      4  N   UNL     1      10.569  -1.537  -1.503  0.00  0.00    -0.298 NA
ATOM      5  C   UNL     1      10.950  -0.733  -2.684  0.00  0.00    +0.085 C 
ATOM      6  C   UNL     1      10.896  -0.833  -0.257  0.00  0.00    +0.105 C 
ENDROOT
BRANCH   3   7
ATOM      7  C   UNL     1       8.909  -3.320  -1.661  0.00  0.00    -0.012 A 
ATOM      8  C   UNL     1       9.202  -4.008  -2.824  0.00  0.00    +0.115 A 
ATOM      9  N   UNL     1       9.014  -5.311  -2.902  0.00  0.00    -0.263 NA
ATOM     10  C   UNL     1       8.544  -6.006  -1.885  0.00  0.00    +0.111 A 
ATOM     11  C   UNL     1       8.230  -5.386  -0.690  0.00  0.00    +0.020 A 
ATOM     12  C   UNL     1       8.418  -4.018  -0.568  0.00  0.00    +0.008 A 
ENDBRANCH   3   7
TORSDOF 1
ENDMDL
MODEL 6
REMARK VINA RESULT:    -2.505      2.472      3.269
REMARK INTER + INTRA:          -2.852
REMARK INTER:                  -2.642
REMARK INTRA:                  -0.211
REMARK UNBOUND:                -0.201
REMARK  Name = Nicotine.pdb
REMARK  2 active torsions:
REMARK  status: ('A' for Active; 'I' for Inactive)
REMARK    1  A    between atoms: C_3  and  C_6
REMARK    2  A    between atoms: N_4  and  C_12
REMARK                            x       y       z     vdW  Elec       q    Type
REMARK                         _______ _______ _______ _____ _____    ______ ____
ROOT
ATOM      1  C   UNL     1       9.474   0.816  -2.161  0.00  0.00    +0.017 C 
ATOM      2  C   UNL     1       8.938  -0.481  -2.822  0.00  0.00    +0.025 C 
ATOM      3  C   UNL     1       9.701  -1.594  -2.073  0.00  0.00    +0.088 C 
ATOM      4  N   UNL     1      10.918  -0.984  -1.508  0.00  0.00    -0.298 NA
ATOM      5  C   UNL     1      10.953   0.442  -1.893  0.00  0.00    +0.085 C 
ATOM      6  C   UNL     1      10.954  -1.136  -0.047  0.00  0.00    +0.105 C 
ENDROOT
BRANCH   3   7
ATOM      7  C   UNL     1      10.075  -2.694  -3.032  0.00  0.00    -0.012 A 
ATOM      8  C   UNL     1      10.460  -2.393  -4.325  0.00  0.00    +0.115 A 
ATOM      9  N   UNL     1      10.789  -3.350  -5.171  0.00  0.00    -0.263 NA
ATOM     10  C   UNL     1      10.765  -4.621  -4.823  0.00  0.00    +0.111 A 
ATOM     11  C   UNL     1      10.391  -4.998  -3.547  0.00  0.00    +0.020 A 
ATOM     12  C   UNL     1      10.044  -4.020  -2.628  0.00  0.00    +0.008 A 
ENDBRANCH   3   7
TORSDOF 1
ENDMDL
MODEL 7
REMARK VINA RESULT:    -2.458      2.940      5.193
REMARK INTER + INTRA:          -2.803
REMARK INTER:                  -2.612
REMARK INTRA:                  -0.191
REMARK UNBOUND:                -0.201
REMARK  Name = Nicotine.pdb
REMARK  2 active torsions:
REMARK  status: ('A' for Active; 'I' for Inactive)
REMARK    1  A    between atoms: C_3  and  C_6
REMARK    2  A    between atoms: N_4  and  C_12
REMARK                            x       y       z     vdW  Elec       q    Type
REMARK                         _______ _______ _______ _____ _____    ______ ____
ROOT
ATOM      1  C   UNL     1       8.532  -5.440  -1.152  0.00  0.00    +0.017 C 
ATOM      2  C   UNL     1       9.457  -5.457  -2.397  0.00  0.00    +0.025 C 
ATOM      3  C   UNL     1      10.192  -4.103  -2.303  0.00  0.00    +0.088 C 
ATOM      4  N   UNL     1       9.360  -3.212  -1.474  0.00  0.00    -0.298 NA
ATOM      5  C   UNL     1       8.139  -3.944  -1.075  0.00  0.00    +0.085 C 
ATOM      6  C   UNL     1      10.102  -2.743  -0.296  0.00  0.00    +0.105 C 
ENDROOT
BRANCH   3   7
ATOM      7  C   UNL     1      10.361  -3.514  -3.679  0.00  0.00    -0.012 A 
ATOM      8  C   UNL     1      10.072  -4.267  -4.802  0.00  0.00    +0.115 A 
ATOM      9  N   UNL     1      10.218  -3.760  -6.010  0.00  0.00    -0.263 NA
ATOM     10  C   UNL     1      10.641  -2.525  -6.197  0.00  0.00    +0.111 A 
ATOM     11  C   UNL     1      10.949  -1.712  -5.122  0.00  0.00    +0.020 A 
ATOM     12  C   UNL     1      10.803  -2.210  -3.836  0.00  0.00    +0.008 A 
ENDBRANCH   3   7
TORSDOF 1
ENDMDL
MODEL 8
REMARK VINA RESULT:    -1.170      2.687      5.332
REMARK INTER + INTRA:          -1.440
REMARK INTER:                  -1.256
REMARK INTRA:                  -0.185
REMARK UNBOUND:                -0.201
REMARK  Name = Nicotine.pdb
REMARK  2 active torsions:
REMARK  status: ('A' for Active; 'I' for Inactive)
REMARK    1  A    between atoms: C_3  and  C_6
REMARK    2  A    between atoms: N_4  and  C_12
REMARK                            x       y       z     vdW  Elec       q    Type
REMARK                         _______ _______ _______ _____ _____    ______ ____
ROOT
ATOM      1  C   UNL     1       9.770  -4.065  -5.996  0.00  0.00    +0.017 C 
ATOM      2  C   UNL     1      10.461  -2.678  -5.913  0.00  0.00    +0.025 C 
ATOM      3  C   UNL     1      10.947  -2.620  -4.449  0.00  0.00    +0.088 C 
ATOM      4  N   UNL     1      10.120  -3.565  -3.677  0.00  0.00    -0.298 NA
ATOM      5  C   UNL     1       9.134  -4.182  -4.589  0.00  0.00    +0.085 C 
ATOM      6  C   UNL     1      10.953  -4.587  -3.031  0.00  0.00    +0.105 C 
ENDROOT
BRANCH   3   7
ATOM      7  C   UNL     1      10.774  -1.225  -3.907  0.00  0.00    -0.012 A 
ATOM      8  C   UNL     1      10.769  -0.139  -4.762  0.00  0.00    +0.115 A 
ATOM      9  N   UNL     1      10.618   1.086  -4.296  0.00  0.00    -0.263 NA
ATOM     10  C   UNL     1      10.469   1.324  -3.008  0.00  0.00    +0.111 A 
ATOM     11  C   UNL     1      10.464   0.288  -2.093  0.00  0.00    +0.020 A 
ATOM     12  C   UNL     1      10.614  -1.014  -2.546  0.00  0.00    +0.008 A 
ENDBRANCH   3   7
TORSDOF 1
ENDMDL
MODEL 9
REMARK VINA RESULT:    -1.121      2.217      3.118
REMARK INTER + INTRA:          -1.388
REMARK INTER:                  -1.171
REMARK INTRA:                  -0.217
REMARK UNBOUND:                -0.201
REMARK  Name = Nicotine.pdb
REMARK  2 active torsions:
REMARK  status: ('A' for Active; 'I' for Inactive)
REMARK    1  A    between atoms: C_3  and  C_6
REMARK    2  A    between atoms: N_4  and  C_12
REMARK                            x       y       z     vdW  Elec       q    Type
REMARK                         _______ _______ _______ _____ _____    ______ ____
ROOT
ATOM      1  C   UNL     1       9.164  -0.368  -3.046  0.00  0.00    +0.017 C 
ATOM      2  C   UNL     1       9.947  -0.876  -1.807  0.00  0.00    +0.025 C 
ATOM      3  C   UNL     1      10.745  -2.072  -2.368  0.00  0.00    +0.088 C 
ATOM      4  N   UNL     1      10.047  -2.532  -3.582  0.00  0.00    -0.298 NA
ATOM      5  C   UNL     1       8.846  -1.694  -3.781  0.00  0.00    +0.085 C 
ATOM      6  C   UNL     1      10.932  -2.473  -4.753  0.00  0.00    +0.105 C 
ENDROOT
BRANCH   3   7
ATOM      7  C   UNL     1      10.790  -3.181  -1.349  0.00  0.00    -0.012 A 
ATOM      8  C   UNL     1      10.705  -4.501  -1.748  0.00  0.00    +0.115 A 
ATOM      9  N   UNL     1      10.744  -5.478  -0.863  0.00  0.00    -0.263 NA
ATOM     10  C   UNL     1      10.863  -5.239   0.428  0.00  0.00    +0.111 A 
ATOM     11  C   UNL     1      10.954  -3.943   0.902  0.00  0.00    +0.020 A 
ATOM     12  C   UNL     1      10.922  -2.891   0.001  0.00  0.00    +0.008 A 
ENDBRANCH   3   7
TORSDOF 1
ENDMDL
