MODEL 1
REMARK VINA RESULT:    -5.607      0.000      0.000
REMARK INTER + INTRA:          -6.191
REMARK INTER:                  -5.935
REMARK INTRA:                  -0.256
REMARK UNBOUND:                -0.256
REMARK  Name = Nicotine.pdb
REMARK  2 active torsions:
REMARK  status: ('A' for Active; 'I' for Inactive)
REMARK    1  A    between atoms: C_3  and  C_6
REMARK    2  A    between atoms: N_4  and  C_12
REMARK                            x       y       z     vdW  Elec       q    Type
REMARK                         _______ _______ _______ _____ _____    ______ ____
ROOT
ATOM      1  C   UNL     1       8.898   2.291   1.293  0.00  0.00    +0.017 C 
ATOM      2  C   UNL     1       8.649   0.760   1.272  0.00  0.00    +0.025 C 
ATOM      3  C   UNL     1       8.818   0.400  -0.219  0.00  0.00    +0.088 C 
ATOM      4  N   UNL     1       8.594   1.634  -0.994  0.00  0.00    -0.298 NA
ATOM      5  C   UNL     1       8.270   2.728  -0.054  0.00  0.00    +0.085 C 
ATOM      6  C   UNL     1       9.771   1.967  -1.806  0.00  0.00    +0.105 C 
ENDROOT
BRANCH   3   7
ATOM      7  C   UNL     1       7.807  -0.645  -0.613  0.00  0.00    -0.012 A 
ATOM      8  C   UNL     1       8.001  -1.415  -1.744  0.00  0.00    +0.115 A 
ATOM      9  N   UNL     1       7.121  -2.332  -2.095  0.00  0.00    -0.263 NA
ATOM     10  C   UNL     1       6.029  -2.551  -1.390  0.00  0.00    +0.111 A 
ATOM     11  C   UNL     1       5.767  -1.820  -0.246  0.00  0.00    +0.020 A 
ATOM     12  C   UNL     1       6.673  -0.851   0.158  0.00  0.00    +0.008 A 
ENDBRANCH   3   7
TORSDOF 1
ENDMDL
MODEL 2
REMARK VINA RESULT:    -5.562      1.155      4.406
REMARK INTER + INTRA:          -6.144
REMARK INTER:                  -5.940
REMARK INTRA:                  -0.203
REMARK UNBOUND:                -0.256
REMARK  Name = Nicotine.pdb
REMARK  2 active torsions:
REMARK  status: ('A' for Active; 'I' for Inactive)
REMARK    1  A    between atoms: C_3  and  C_6
REMARK    2  A    between atoms: N_4  and  C_12
REMARK                            x       y       z     vdW  Elec       q    Type
REMARK                         _______ _______ _______ _____ _____    ______ ____
ROOT
ATOM      1  C   UNL     1       8.960  -2.815  -0.974  0.00  0.00    +0.017 C 
ATOM      2  C   UNL     1       9.311  -1.634  -0.031  0.00  0.00    +0.025 C 
ATOM      3  C   UNL     1       7.950  -0.933   0.168  0.00  0.00    +0.088 C 
ATOM      4  N   UNL     1       7.094  -1.308  -0.973  0.00  0.00    -0.298 NA
ATOM      5  C   UNL     1       7.871  -2.183  -1.876  0.00  0.00    +0.085 C 
ATOM      6  C   UNL     1       5.869  -1.976  -0.516  0.00  0.00    +0.105 C 
ENDROOT
BRANCH   3   7
ATOM      7  C   UNL     1       8.141   0.561   0.199  0.00  0.00    -0.012 A 
ATOM      8  C   UNL     1       7.760   1.336  -0.880  0.00  0.00    +0.115 A 
ATOM      9  N   UNL     1       7.924   2.645  -0.861  0.00  0.00    -0.263 NA
ATOM     10  C   UNL     1       8.454   3.262   0.176  0.00  0.00    +0.111 A 
ATOM     11  C   UNL     1       8.859   2.552   1.291  0.00  0.00    +0.020 A 
ATOM     12  C   UNL     1       8.697   1.176   1.310  0.00  0.00    +0.008 A 
ENDBRANCH   3   7
TORSDOF 1
ENDMDL
MODEL 3
REMARK VINA RESULT:    -5.180      1.083      1.588
REMARK INTER + INTRA:          -5.739
REMARK INTER:                  -5.526
REMARK INTRA:                  -0.213
REMARK UNBOUND:                -0.256
REMARK  Name = Nicotine.pdb
REMARK  2 active torsions:
REMARK  status: ('A' for Active; 'I' for Inactive)
REMARK    1  A    between atoms: C_3  and  C_6
REMARK    2  A    between atoms: N_4  and  C_12
REMARK                            x       y       z     vdW  Elec       q    Type
REMARK                         _______ _______ _______ _____ _____    ______ ____
ROOT
ATOM      1  C   UNL     1       8.791   1.528   0.979  0.00  0.00    +0.017 C 
ATOM      2  C   UNL     1       8.451   0.016   0.911  0.00  0.00    +0.025 C 
ATOM      3  C   UNL     1       8.446  -0.270  -0.606  0.00  0.00    +0.088 C 
ATOM      4  N   UNL     1       8.217   1.014  -1.292  0.00  0.00    -0.298 NA
ATOM      5  C   UNL     1       8.056   2.071  -0.271  0.00  0.00    +0.085 C 
ATOM      6  C   UNL     1       9.323   1.328  -2.206  0.00  0.00    +0.105 C 
ENDROOT
BRANCH   3   7
ATOM      7  C   UNL     1       7.340  -1.237  -0.942  0.00  0.00    -0.012 A 
ATOM      8  C   UNL     1       6.147  -1.203  -0.246  0.00  0.00    +0.115 A 
ATOM      9  N   UNL     1       5.173  -2.045  -0.534  0.00  0.00    -0.263 NA
ATOM     10  C   UNL     1       5.297  -2.946  -1.487  0.00  0.00    +0.111 A 
ATOM     11  C   UNL     1       6.461  -3.040  -2.227  0.00  0.00    +0.020 A 
ATOM     12  C   UNL     1       7.504  -2.167  -1.956  0.00  0.00    +0.008 A 
ENDBRANCH   3   7
TORSDOF 1
ENDMDL
MODEL 4
REMARK VINA RESULT:    -4.938      1.380      1.866
REMARK INTER + INTRA:          -5.483
REMARK INTER:                  -5.274
REMARK INTRA:                  -0.209
REMARK UNBOUND:                -0.256
REMARK  Name = Nicotine.pdb
REMARK  2 active torsions:
REMARK  status: ('A' for Active; 'I' for Inactive)
REMARK    1  A    between atoms: C_3  and  C_6
REMARK    2  A    between atoms: N_4  and  C_12
REMARK                            x       y       z     vdW  Elec       q    Type
REMARK                         _______ _______ _______ _____ _____    ______ ____
ROOT
ATOM      1  C   UNL     1       9.284   1.684  -0.197  0.00  0.00    +0.017 C 
ATOM      2  C   UNL     1       7.926   0.958  -0.006  0.00  0.00    +0.025 C 
ATOM      3  C   UNL     1       8.343  -0.517   0.173  0.00  0.00    +0.088 C 
ATOM      4  N   UNL     1       9.678  -0.670  -0.432  0.00  0.00    -0.298 NA
ATOM      5  C   UNL     1      10.091   0.632  -0.998  0.00  0.00    +0.085 C 
ATOM      6  C   UNL     1      10.653  -1.149   0.556  0.00  0.00    +0.105 C 
ENDROOT
BRANCH   3   7
ATOM      7  C   UNL     1       7.355  -1.417  -0.523  0.00  0.00    -0.012 A 
ATOM      8  C   UNL     1       7.715  -2.090  -1.676  0.00  0.00    +0.115 A 
ATOM      9  N   UNL     1       6.857  -2.880  -2.292  0.00  0.00    -0.263 NA
ATOM     10  C   UNL     1       5.632  -3.059  -1.839  0.00  0.00    +0.111 A 
ATOM     11  C   UNL     1       5.201  -2.420  -0.691  0.00  0.00    +0.020 A 
ATOM     12  C   UNL     1       6.077  -1.586  -0.014  0.00  0.00    +0.008 A 
ENDBRANCH   3   7
TORSDOF 1
ENDMDL
MODEL 5
REMARK VINA RESULT:    -4.860      1.722      4.171
REMARK INTER + INTRA:          -5.400
REMARK INTER:                  -5.146
REMARK INTRA:                  -0.254
REMARK UNBOUND:                -0.256
REMARK  Name = Nicotine.pdb
REMARK  2 active torsions:
REMARK  status: ('A' for Active; 'I' for Inactive)
REMARK    1  A    between atoms: C_3  and  C_6
REMARK    2  A    between atoms: N_4  and  C_12
REMARK                            x       y       z     vdW  Elec       q    Type
REMARK                         _______ _______ _______ _____ _____    ______ ____
ROOT
ATOM      1  C   UNL     1       9.357  -2.901  -0.354  0.00  0.00    +0.017 C 
ATOM      2  C   UNL     1       8.444  -1.794   0.238  0.00  0.00    +0.025 C 
ATOM      3  C   UNL     1       8.316  -0.790  -0.927  0.00  0.00    +0.088 C 
ATOM      4  N   UNL     1       9.472  -1.003  -1.817  0.00  0.00    -0.298 NA
ATOM      5  C   UNL     1      10.317  -2.072  -1.243  0.00  0.00    +0.085 C 
ATOM      6  C   UNL     1       9.034  -1.350  -3.175  0.00  0.00    +0.105 C 
ENDROOT
BRANCH   3   7
ATOM      7  C   UNL     1       8.331   0.619  -0.394  0.00  0.00    -0.012 A 
ATOM      8  C   UNL     1       7.960   1.677  -1.203  0.00  0.00    +0.115 A 
ATOM      9  N   UNL     1       7.971   2.913  -0.743  0.00  0.00    -0.263 NA
ATOM     10  C   UNL     1       8.332   3.190   0.494  0.00  0.00    +0.111 A 
ATOM     11  C   UNL     1       8.715   2.183   1.361  0.00  0.00    +0.020 A 
ATOM     12  C   UNL     1       8.711   0.871   0.916  0.00  0.00    +0.008 A 
ENDBRANCH   3   7
TORSDOF 1
ENDMDL
MODEL 6
REMARK VINA RESULT:    -4.630      1.371      4.350
REMARK INTER + INTRA:          -5.156
REMARK INTER:                  -4.966
REMARK INTRA:                  -0.190
REMARK UNBOUND:                -0.256
REMARK  Name = Nicotine.pdb
REMARK  2 active torsions:
REMARK  status: ('A' for Active; 'I' for Inactive)
REMARK    1  A    between atoms: C_3  and  C_6
REMARK    2  A    between atoms: N_4  and  C_12
REMARK                            x       y       z     vdW  Elec       q    Type
REMARK                         _______ _______ _______ _____ _____    ______ ____
ROOT
ATOM      1  C   UNL     1       6.909  -2.656  -1.360  0.00  0.00    +0.017 C 
ATOM      2  C   UNL     1       6.526  -1.255  -0.814  0.00  0.00    +0.025 C 
ATOM      3  C   UNL     1       7.598  -0.336  -1.437  0.00  0.00    +0.088 C 
ATOM      4  N   UNL     1       8.754  -1.183  -1.782  0.00  0.00    -0.298 NA
ATOM      5  C   UNL     1       8.456  -2.574  -1.378  0.00  0.00    +0.085 C 
ATOM      6  C   UNL     1       9.056  -1.104  -3.217  0.00  0.00    +0.105 C 
ENDROOT
BRANCH   3   7
ATOM      7  C   UNL     1       8.011   0.718  -0.442  0.00  0.00    -0.012 A 
ATOM      8  C   UNL     1       8.421   0.357   0.828  0.00  0.00    +0.115 A 
ATOM      9  N   UNL     1       8.784   1.273   1.704  0.00  0.00    -0.263 NA
ATOM     10  C   UNL     1       8.772   2.558   1.410  0.00  0.00    +0.111 A 
ATOM     11  C   UNL     1       8.375   2.994   0.159  0.00  0.00    +0.020 A 
ATOM     12  C   UNL     1       7.991   2.060  -0.790  0.00  0.00    +0.008 A 
ENDBRANCH   3   7
TORSDOF 1
ENDMDL
MODEL 7
REMARK VINA RESULT:    -4.330      1.816      2.924
REMARK INTER + INTRA:          -4.839
REMARK INTER:                  -4.636
REMARK INTRA:                  -0.203
REMARK UNBOUND:                -0.256
REMARK  Name = Nicotine.pdb
REMARK  2 active torsions:
REMARK  status: ('A' for Active; 'I' for Inactive)
REMARK    1  A    between atoms: C_3  and  C_6
REMARK    2  A    between atoms: N_4  and  C_12
REMARK                            x       y       z     vdW  Elec       q    Type
REMARK                         _______ _______ _______ _____ _____    ______ ____
ROOT
ATOM      1  C   UNL     1       8.763   3.254  -1.257  0.00  0.00    +0.017 C 
ATOM      2  C   UNL     1       8.321   1.771  -1.366  0.00  0.00    +0.025 C 
ATOM      3  C   UNL     1       8.283   1.311   0.107  0.00  0.00    +0.088 C 
ATOM      4  N   UNL     1       9.157   2.221   0.871  0.00  0.00    -0.298 NA
ATOM      5  C   UNL     1       9.749   3.200  -0.064  0.00  0.00    +0.085 C 
ATOM      6  C   UNL     1       8.408   2.897   1.939  0.00  0.00    +0.105 C 
ENDROOT
BRANCH   3   7
ATOM      7  C   UNL     1       8.792  -0.103   0.217  0.00  0.00    -0.012 A 
ATOM      8  C   UNL     1       7.971  -1.168  -0.101  0.00  0.00    +0.115 A 
ATOM      9  N   UNL     1       8.408  -2.408  -0.008  0.00  0.00    -0.263 NA
ATOM     10  C   UNL     1       9.635  -2.683   0.388  0.00  0.00    +0.111 A 
ATOM     11  C   UNL     1      10.514  -1.669   0.722  0.00  0.00    +0.020 A 
ATOM     12  C   UNL     1      10.091  -0.352   0.631  0.00  0.00    +0.008 A 
ENDBRANCH   3   7
TORSDOF 1
ENDMDL
MODEL 8
REMARK VINA RESULT:    -3.872      2.160      5.138
REMARK INTER + INTRA:          -4.354
REMARK INTER:                  -4.169
REMARK INTRA:                  -0.185
REMARK UNBOUND:                -0.256
REMARK  Name = Nicotine.pdb
REMARK  2 active torsions:
REMARK  status: ('A' for Active; 'I' for Inactive)
REMARK    1  A    between atoms: C_3  and  C_6
REMARK    2  A    between atoms: N_4  and  C_12
REMARK                            x       y       z     vdW  Elec       q    Type
REMARK                         _______ _______ _______ _____ _____    ______ ____
ROOT
ATOM      1  C   UNL     1       9.073   0.705   1.397  0.00  0.00    +0.017 C 
ATOM      2  C   UNL     1       8.564   2.109   0.975  0.00  0.00    +0.025 C 
ATOM      3  C   UNL     1       8.394   1.972  -0.553  0.00  0.00    +0.088 C 
ATOM      4  N   UNL     1       9.255   0.858  -0.990  0.00  0.00    -0.298 NA
ATOM      5  C   UNL     1       9.965   0.320   0.190  0.00  0.00    +0.085 C 
ATOM      6  C   UNL     1       8.467  -0.189  -1.653  0.00  0.00    +0.105 C 
ENDROOT
BRANCH   3   7
ATOM      7  C   UNL     1       8.819   3.247  -1.233  0.00  0.00    -0.012 A 
ATOM      8  C   UNL     1       8.745   4.454  -0.564  0.00  0.00    +0.115 A 
ATOM      9  N   UNL     1       9.115   5.576  -1.151  0.00  0.00    -0.263 NA
ATOM     10  C   UNL     1       9.567   5.592  -2.390  0.00  0.00    +0.111 A 
ATOM     11  C   UNL     1       9.670   4.424  -3.121  0.00  0.00    +0.020 A 
ATOM     12  C   UNL     1       9.296   3.225  -2.535  0.00  0.00    +0.008 A 
ENDBRANCH   3   7
TORSDOF 1
ENDMDL
MODEL 9
REMARK VINA RESULT:    -3.867      2.095      3.221
REMARK INTER + INTRA:          -4.349
REMARK INTER:                  -4.154
REMARK INTRA:                  -0.195
REMARK UNBOUND:                -0.256
REMARK  Name = Nicotine.pdb
REMARK  2 active torsions:
REMARK  status: ('A' for Active; 'I' for Inactive)
REMARK    1  A    between atoms: C_3  and  C_6
REMARK    2  A    between atoms: N_4  and  C_12
REMARK                            x       y       z     vdW  Elec       q    Type
REMARK                         _______ _______ _______ _____ _____    ______ ____
ROOT
ATOM      1  C   UNL     1       8.394   0.326   0.773  0.00  0.00    +0.017 C 
ATOM      2  C   UNL     1       7.583  -0.653  -0.115  0.00  0.00    +0.025 C 
ATOM      3  C   UNL     1       8.590  -1.791  -0.387  0.00  0.00    +0.088 C 
ATOM      4  N   UNL     1       9.940  -1.236  -0.187  0.00  0.00    -0.298 NA
ATOM      5  C   UNL     1       9.814   0.194   0.169  0.00  0.00    +0.085 C 
ATOM      6  C   UNL     1      10.666  -1.976   0.854  0.00  0.00    +0.105 C 
ENDROOT
BRANCH   3   7
ATOM      7  C   UNL     1       8.440  -2.281  -1.803  0.00  0.00    -0.012 A 
ATOM      8  C   UNL     1       7.531  -3.278  -2.106  0.00  0.00    +0.115 A 
ATOM      9  N   UNL     1       7.393  -3.712  -3.343  0.00  0.00    -0.263 NA
ATOM     10  C   UNL     1       8.110  -3.221  -4.334  0.00  0.00    +0.111 A 
ATOM     11  C   UNL     1       9.039  -2.222  -4.108  0.00  0.00    +0.020 A 
ATOM     12  C   UNL     1       9.207  -1.736  -2.821  0.00  0.00    +0.008 A 
ENDBRANCH   3   7
TORSDOF 1
ENDMDL
MODEL 10
REMARK VINA RESULT:    -3.812      1.532      2.408
REMARK INTER + INTRA:          -4.290
REMARK INTER:                  -4.109
REMARK INTRA:                  -0.181
REMARK UNBOUND:                -0.256
REMARK  Name = Nicotine.pdb
REMARK  2 active torsions:
REMARK  status: ('A' for Active; 'I' for Inactive)
REMARK    1  A    between atoms: C_3  and  C_6
REMARK    2  A    between atoms: N_4  and  C_12
REMARK                            x       y       z     vdW  Elec       q    Type
REMARK                         _______ _______ _______ _____ _____    ______ ____
ROOT
ATOM      1  C   UNL     1      10.217   2.848  -2.502  0.00  0.00    +0.017 C 
ATOM      2  C   UNL     1       9.171   1.713  -2.656  0.00  0.00    +0.025 C 
ATOM      3  C   UNL     1       8.387   1.780  -1.328  0.00  0.00    +0.088 C 
ATOM      4  N   UNL     1       9.256   2.446  -0.341  0.00  0.00    -0.298 NA
ATOM      5  C   UNL     1      10.545   2.768  -0.990  0.00  0.00    +0.085 C 
ATOM      6  C   UNL     1       8.618   3.656   0.192  0.00  0.00    +0.105 C 
ENDROOT
BRANCH   3   7
ATOM      7  C   UNL     1       8.050   0.388  -0.861  0.00  0.00    -0.012 A 
ATOM      8  C   UNL     1       9.055  -0.530  -0.618  0.00  0.00    +0.115 A 
ATOM      9  N   UNL     1       8.768  -1.751  -0.209  0.00  0.00    -0.263 NA
ATOM     10  C   UNL     1       7.525  -2.143  -0.015  0.00  0.00    +0.111 A 
ATOM     11  C   UNL     1       6.468  -1.280  -0.236  0.00  0.00    +0.020 A 
ATOM     12  C   UNL     1       6.730   0.013  -0.662  0.00  0.00    +0.008 A 
ENDBRANCH   3   7
TORSDOF 1
ENDMDL
