MODEL 1
REMARK VINA RESULT:    -4.300      0.000      0.000
REMARK INTER + INTRA:          -4.774
REMARK INTER:                  -4.552
REMARK INTRA:                  -0.222
REMARK UNBOUND:                -0.222
REMARK  Name = Nicotine.pdb
REMARK  2 active torsions:
REMARK  status: ('A' for Active; 'I' for Inactive)
REMARK    1  A    between atoms: C_3  and  C_6
REMARK    2  A    between atoms: N_4  and  C_12
REMARK                            x       y       z     vdW  Elec       q    Type
REMARK                         _______ _______ _______ _____ _____    ______ ____
ROOT
ATOM      1  C   UNL     1      -1.261   6.056  -0.862  0.00  0.00    +0.017 C 
ATOM      2  C   UNL     1      -0.748   5.656   0.547  0.00  0.00    +0.025 C 
ATOM      3  C   UNL     1      -2.042   5.260   1.288  0.00  0.00    +0.088 C 
ATOM      4  N   UNL     1      -3.163   5.919   0.593  0.00  0.00    -0.298 NA
ATOM      5  C   UNL     1      -2.618   6.721  -0.523  0.00  0.00    +0.085 C 
ATOM      6  C   UNL     1      -4.136   4.933   0.108  0.00  0.00    +0.105 C 
ENDROOT
BRANCH   3   7
ATOM      7  C   UNL     1      -1.978   5.729   2.719  0.00  0.00    -0.012 A 
ATOM      8  C   UNL     1      -2.920   6.613   3.208  0.00  0.00    +0.115 A 
ATOM      9  N   UNL     1      -2.871   7.028   4.459  0.00  0.00    -0.263 NA
ATOM     10  C   UNL     1      -1.929   6.621   5.287  0.00  0.00    +0.111 A 
ATOM     11  C   UNL     1      -0.953   5.737   4.869  0.00  0.00    +0.020 A 
ATOM     12  C   UNL     1      -0.975   5.274   3.563  0.00  0.00    +0.008 A 
ENDBRANCH   3   7
TORSDOF 1
ENDMDL
MODEL 2
REMARK VINA RESULT:    -4.007      1.746      4.359
REMARK INTER + INTRA:          -4.463
REMARK INTER:                  -4.223
REMARK INTRA:                  -0.240
REMARK UNBOUND:                -0.222
REMARK  Name = Nicotine.pdb
REMARK  2 active torsions:
REMARK  status: ('A' for Active; 'I' for Inactive)
REMARK    1  A    between atoms: C_3  and  C_6
REMARK    2  A    between atoms: N_4  and  C_12
REMARK                            x       y       z     vdW  Elec       q    Type
REMARK                         _______ _______ _______ _____ _____    ______ ____
ROOT
ATOM      1  C   UNL     1       0.896   6.979   4.751  0.00  0.00    +0.017 C 
ATOM      2  C   UNL     1       0.130   7.024   3.403  0.00  0.00    +0.025 C 
ATOM      3  C   UNL     1      -1.335   6.786   3.828  0.00  0.00    +0.088 C 
ATOM      4  N   UNL     1      -1.305   6.107   5.136  0.00  0.00    -0.298 NA
ATOM      5  C   UNL     1       0.106   5.894   5.524  0.00  0.00    +0.085 C 
ATOM      6  C   UNL     1      -2.019   6.891   6.152  0.00  0.00    +0.105 C 
ENDROOT
BRANCH   3   7
ATOM      7  C   UNL     1      -2.028   5.914   2.813  0.00  0.00    -0.012 A 
ATOM      8  C   UNL     1      -3.286   6.248   2.347  0.00  0.00    +0.115 A 
ATOM      9  N   UNL     1      -3.899   5.491   1.459  0.00  0.00    -0.263 NA
ATOM     10  C   UNL     1      -3.345   4.394   0.982  0.00  0.00    +0.111 A 
ATOM     11  C   UNL     1      -2.088   3.997   1.400  0.00  0.00    +0.020 A 
ATOM     12  C   UNL     1      -1.410   4.771   2.329  0.00  0.00    +0.008 A 
ENDBRANCH   3   7
TORSDOF 1
ENDMDL
MODEL 3
REMARK VINA RESULT:    -3.587     10.702     12.805
REMARK INTER + INTRA:          -4.020
REMARK INTER:                  -3.806
REMARK INTRA:                  -0.214
REMARK UNBOUND:                -0.222
REMARK  Name = Nicotine.pdb
REMARK  2 active torsions:
REMARK  status: ('A' for Active; 'I' for Inactive)
REMARK    1  A    between atoms: C_3  and  C_6
REMARK    2  A    between atoms: N_4  and  C_12
REMARK                            x       y       z     vdW  Elec       q    Type
REMARK                         _______ _______ _______ _____ _____    ______ ____
ROOT
ATOM      1  C   UNL     1       6.439   6.238  -1.980  0.00  0.00    +0.017 C 
ATOM      2  C   UNL     1       6.823   4.778  -2.334  0.00  0.00    +0.025 C 
ATOM      3  C   UNL     1       8.249   4.923  -2.906  0.00  0.00    +0.088 C 
ATOM      4  N   UNL     1       8.397   6.316  -3.363  0.00  0.00    -0.298 NA
ATOM      5  C   UNL     1       7.124   7.028  -3.124  0.00  0.00    +0.085 C 
ATOM      6  C   UNL     1       9.511   6.981  -2.674  0.00  0.00    +0.105 C 
ENDROOT
BRANCH   3   7
ATOM      7  C   UNL     1       8.435   3.979  -4.066  0.00  0.00    -0.012 A 
ATOM      8  C   UNL     1       9.395   2.985  -4.012  0.00  0.00    +0.115 A 
ATOM      9  N   UNL     1       9.564   2.155  -5.022  0.00  0.00    -0.263 NA
ATOM     10  C   UNL     1       8.833   2.237  -6.116  0.00  0.00    +0.111 A 
ATOM     11  C   UNL     1       7.853   3.204  -6.242  0.00  0.00    +0.020 A 
ATOM     12  C   UNL     1       7.643   4.092  -5.198  0.00  0.00    +0.008 A 
ENDBRANCH   3   7
TORSDOF 1
ENDMDL
MODEL 4
REMARK VINA RESULT:    -3.544     10.421     12.126
REMARK INTER + INTRA:          -3.973
REMARK INTER:                  -3.804
REMARK INTRA:                  -0.169
REMARK UNBOUND:                -0.222
REMARK  Name = Nicotine.pdb
REMARK  2 active torsions:
REMARK  status: ('A' for Active; 'I' for Inactive)
REMARK    1  A    between atoms: C_3  and  C_6
REMARK    2  A    between atoms: N_4  and  C_12
REMARK                            x       y       z     vdW  Elec       q    Type
REMARK                         _______ _______ _______ _____ _____    ______ ____
ROOT
ATOM      1  C   UNL     1       8.619   2.750  -6.143  0.00  0.00    +0.017 C 
ATOM      2  C   UNL     1       7.630   3.888  -5.778  0.00  0.00    +0.025 C 
ATOM      3  C   UNL     1       8.463   4.781  -4.834  0.00  0.00    +0.088 C 
ATOM      4  N   UNL     1       9.542   3.944  -4.279  0.00  0.00    -0.298 NA
ATOM      5  C   UNL     1       9.398   2.574  -4.816  0.00  0.00    +0.085 C 
ATOM      6  C   UNL     1      10.861   4.502  -4.603  0.00  0.00    +0.105 C 
ENDROOT
BRANCH   3   7
ATOM      7  C   UNL     1       7.592   5.302  -3.720  0.00  0.00    -0.012 A 
ATOM      8  C   UNL     1       7.288   4.499  -2.637  0.00  0.00    +0.115 A 
ATOM      9  N   UNL     1       6.526   4.947  -1.658  0.00  0.00    -0.263 NA
ATOM     10  C   UNL     1       6.027   6.167  -1.671  0.00  0.00    +0.111 A 
ATOM     11  C   UNL     1       6.289   7.028  -2.721  0.00  0.00    +0.020 A 
ATOM     12  C   UNL     1       7.090   6.593  -3.766  0.00  0.00    +0.008 A 
ENDBRANCH   3   7
TORSDOF 1
ENDMDL
MODEL 5
REMARK VINA RESULT:    -2.924     15.210     16.461
REMARK INTER + INTRA:          -3.317
REMARK INTER:                  -3.093
REMARK INTRA:                  -0.224
REMARK UNBOUND:                -0.222
REMARK  Name = Nicotine.pdb
REMARK  2 active torsions:
REMARK  status: ('A' for Active; 'I' for Inactive)
REMARK    1  A    between atoms: C_3  and  C_6
REMARK    2  A    between atoms: N_4  and  C_12
REMARK                            x       y       z     vdW  Elec       q    Type
REMARK                         _______ _______ _______ _____ _____    ______ ____
ROOT
ATOM      1  C   UNL     1      10.954  -5.314  -5.299  0.00  0.00    +0.017 C 
ATOM      2  C   UNL     1      10.081  -6.010  -4.222  0.00  0.00    +0.025 C 
ATOM      3  C   UNL     1       8.644  -5.781  -4.739  0.00  0.00    +0.088 C 
ATOM      4  N   UNL     1       8.685  -4.615  -5.639  0.00  0.00    -0.298 NA
ATOM      5  C   UNL     1      10.070  -4.101  -5.682  0.00  0.00    +0.085 C 
ATOM      6  C   UNL     1       8.213  -4.971  -6.984  0.00  0.00    +0.105 C 
ENDROOT
BRANCH   3   7
ATOM      7  C   UNL     1       7.721  -5.505  -3.580  0.00  0.00    -0.012 A 
ATOM      8  C   UNL     1       6.445  -5.023  -3.803  0.00  0.00    +0.115 A 
ATOM      9  N   UNL     1       5.631  -4.778  -2.795  0.00  0.00    -0.263 NA
ATOM     10  C   UNL     1       5.996  -4.980  -1.545  0.00  0.00    +0.111 A 
ATOM     11  C   UNL     1       7.257  -5.461  -1.244  0.00  0.00    +0.020 A 
ATOM     12  C   UNL     1       8.138  -5.735  -2.278  0.00  0.00    +0.008 A 
ENDBRANCH   3   7
TORSDOF 1
ENDMDL
MODEL 6
REMARK VINA RESULT:    -2.794     11.442     12.666
REMARK INTER + INTRA:          -3.180
REMARK INTER:                  -2.980
REMARK INTRA:                  -0.200
REMARK UNBOUND:                -0.222
REMARK  Name = Nicotine.pdb
REMARK  2 active torsions:
REMARK  status: ('A' for Active; 'I' for Inactive)
REMARK    1  A    between atoms: C_3  and  C_6
REMARK    2  A    between atoms: N_4  and  C_12
REMARK                            x       y       z     vdW  Elec       q    Type
REMARK                         _______ _______ _______ _____ _____    ______ ____
ROOT
ATOM      1  C   UNL     1       7.143   5.435  -3.849  0.00  0.00    +0.017 C 
ATOM      2  C   UNL     1       7.751   5.494  -2.423  0.00  0.00    +0.025 C 
ATOM      3  C   UNL     1       9.248   5.211  -2.672  0.00  0.00    +0.088 C 
ATOM      4  N   UNL     1       9.351   4.504  -3.961  0.00  0.00    -0.298 NA
ATOM      5  C   UNL     1       7.989   4.314  -4.504  0.00  0.00    +0.085 C 
ATOM      6  C   UNL     1      10.196   5.246  -4.904  0.00  0.00    +0.105 C 
ENDROOT
BRANCH   3   7
ATOM      7  C   UNL     1       9.798   4.348  -1.566  0.00  0.00    -0.012 A 
ATOM      8  C   UNL     1      10.187   4.913  -0.366  0.00  0.00    +0.115 A 
ATOM      9  N   UNL     1      10.670   4.165   0.607  0.00  0.00    -0.263 NA
ATOM     10  C   UNL     1      10.800   2.860   0.477  0.00  0.00    +0.111 A 
ATOM     11  C   UNL     1      10.431   2.224  -0.694  0.00  0.00    +0.020 A 
ATOM     12  C   UNL     1       9.915   2.977  -1.737  0.00  0.00    +0.008 A 
ENDBRANCH   3   7
TORSDOF 1
ENDMDL
MODEL 7
REMARK VINA RESULT:    -2.780     11.018     13.156
REMARK INTER + INTRA:          -3.165
REMARK INTER:                  -2.964
REMARK INTRA:                  -0.201
REMARK UNBOUND:                -0.222
REMARK  Name = Nicotine.pdb
REMARK  2 active torsions:
REMARK  status: ('A' for Active; 'I' for Inactive)
REMARK    1  A    between atoms: C_3  and  C_6
REMARK    2  A    between atoms: N_4  and  C_12
REMARK                            x       y       z     vdW  Elec       q    Type
REMARK                         _______ _______ _______ _____ _____    ______ ____
ROOT
ATOM      1  C   UNL     1       9.367   4.805  -1.987  0.00  0.00    +0.017 C 
ATOM      2  C   UNL     1       9.712   4.236  -3.389  0.00  0.00    +0.025 C 
ATOM      3  C   UNL     1       8.576   4.787  -4.276  0.00  0.00    +0.088 C 
ATOM      4  N   UNL     1       7.444   5.107  -3.389  0.00  0.00    -0.298 NA
ATOM      5  C   UNL     1       7.818   4.757  -2.002  0.00  0.00    +0.085 C 
ATOM      6  C   UNL     1       7.077   6.526  -3.493  0.00  0.00    +0.105 C 
ENDROOT
BRANCH   3   7
ATOM      7  C   UNL     1       8.161   3.746  -5.283  0.00  0.00    -0.012 A 
ATOM      8  C   UNL     1       8.795   2.518  -5.321  0.00  0.00    +0.115 A 
ATOM      9  N   UNL     1       8.438   1.601  -6.199  0.00  0.00    -0.263 NA
ATOM     10  C   UNL     1       7.471   1.815  -7.070  0.00  0.00    +0.111 A 
ATOM     11  C   UNL     1       6.791   3.018  -7.091  0.00  0.00    +0.020 A 
ATOM     12  C   UNL     1       7.135   4.004  -6.180  0.00  0.00    +0.008 A 
ENDBRANCH   3   7
TORSDOF 1
ENDMDL
MODEL 8
REMARK VINA RESULT:    -2.740     14.953     16.604
REMARK INTER + INTRA:          -3.123
REMARK INTER:                  -2.899
REMARK INTRA:                  -0.224
REMARK UNBOUND:                -0.222
REMARK  Name = Nicotine.pdb
REMARK  2 active torsions:
REMARK  status: ('A' for Active; 'I' for Inactive)
REMARK    1  A    between atoms: C_3  and  C_6
REMARK    2  A    between atoms: N_4  and  C_12
REMARK                            x       y       z     vdW  Elec       q    Type
REMARK                         _______ _______ _______ _____ _____    ______ ____
ROOT
ATOM      1  C   UNL     1       5.240  -4.906  -2.142  0.00  0.00    +0.017 C 
ATOM      2  C   UNL     1       5.736  -5.357  -3.541  0.00  0.00    +0.025 C 
ATOM      3  C   UNL     1       7.199  -5.771  -3.273  0.00  0.00    +0.088 C 
ATOM      4  N   UNL     1       7.630  -5.082  -2.043  0.00  0.00    -0.298 NA
ATOM      5  C   UNL     1       6.513  -4.245  -1.556  0.00  0.00    +0.085 C 
ATOM      6  C   UNL     1       8.052  -6.046  -1.019  0.00  0.00    +0.105 C 
ENDROOT
BRANCH   3   7
ATOM      7  C   UNL     1       8.070  -5.353  -4.429  0.00  0.00    -0.012 A 
ATOM      8  C   UNL     1       9.182  -4.561  -4.215  0.00  0.00    +0.115 A 
ATOM      9  N   UNL     1       9.950  -4.190  -5.221  0.00  0.00    -0.263 NA
ATOM     10  C   UNL     1       9.692  -4.557  -6.461  0.00  0.00    +0.111 A 
ATOM     11  C   UNL     1       8.598  -5.350  -6.752  0.00  0.00    +0.020 A 
ATOM     12  C   UNL     1       7.771  -5.763  -5.719  0.00  0.00    +0.008 A 
ENDBRANCH   3   7
TORSDOF 1
ENDMDL
MODEL 9
REMARK VINA RESULT:    -2.719     15.281     16.935
REMARK INTER + INTRA:          -3.101
REMARK INTER:                  -2.883
REMARK INTRA:                  -0.218
REMARK UNBOUND:                -0.222
REMARK  Name = Nicotine.pdb
REMARK  2 active torsions:
REMARK  status: ('A' for Active; 'I' for Inactive)
REMARK    1  A    between atoms: C_3  and  C_6
REMARK    2  A    between atoms: N_4  and  C_12
REMARK                            x       y       z     vdW  Elec       q    Type
REMARK                         _______ _______ _______ _____ _____    ______ ____
ROOT
ATOM      1  C   UNL     1       7.846  -6.090  -0.851  0.00  0.00    +0.017 C 
ATOM      2  C   UNL     1       8.851  -5.919  -2.020  0.00  0.00    +0.025 C 
ATOM      3  C   UNL     1       8.125  -4.933  -2.960  0.00  0.00    +0.088 C 
ATOM      4  N   UNL     1       6.685  -5.019  -2.656  0.00  0.00    -0.298 NA
ATOM      5  C   UNL     1       6.488  -6.028  -1.594  0.00  0.00    +0.085 C 
ATOM      6  C   UNL     1       6.153  -3.713  -2.248  0.00  0.00    +0.105 C 
ENDROOT
BRANCH   3   7
ATOM      7  C   UNL     1       8.371  -5.318  -4.396  0.00  0.00    -0.012 A 
ATOM      8  C   UNL     1       7.338  -5.292  -5.314  0.00  0.00    +0.115 A 
ATOM      9  N   UNL     1       7.545  -5.627  -6.573  0.00  0.00    -0.263 NA
ATOM     10  C   UNL     1       8.734  -5.999  -7.004  0.00  0.00    +0.111 A 
ATOM     11  C   UNL     1       9.815  -6.049  -6.144  0.00  0.00    +0.020 A 
ATOM     12  C   UNL     1       9.637  -5.698  -4.815  0.00  0.00    +0.008 A 
ENDBRANCH   3   7
TORSDOF 1
ENDMDL
