MODEL 1
REMARK VINA RESULT:    -4.386      0.000      0.000
REMARK INTER + INTRA:          -4.865
REMARK INTER:                  -4.642
REMARK INTRA:                  -0.223
REMARK UNBOUND:                -0.223
REMARK  Name = Nicotine.pdb
REMARK  2 active torsions:
REMARK  status: ('A' for Active; 'I' for Inactive)
REMARK    1  A    between atoms: C_3  and  C_6
REMARK    2  A    between atoms: N_4  and  C_12
REMARK                            x       y       z     vdW  Elec       q    Type
REMARK                         _______ _______ _______ _____ _____    ______ ____
ROOT
ATOM      1  C   UNL     1       6.080  -1.446  -0.511  0.00  0.00    +0.017 C 
ATOM      2  C   UNL     1       6.948  -2.687  -0.848  0.00  0.00    +0.025 C 
ATOM      3  C   UNL     1       6.412  -3.759   0.124  0.00  0.00    +0.088 C 
ATOM      4  N   UNL     1       5.766  -3.051   1.244  0.00  0.00    -0.298 NA
ATOM      5  C   UNL     1       5.901  -1.596   1.020  0.00  0.00    +0.085 C 
ATOM      6  C   UNL     1       4.355  -3.437   1.368  0.00  0.00    +0.105 C 
ENDROOT
BRANCH   3   7
ATOM      7  C   UNL     1       7.552  -4.601   0.637  0.00  0.00    -0.012 A 
ATOM      8  C   UNL     1       7.812  -4.674   1.993  0.00  0.00    +0.115 A 
ATOM      9  N   UNL     1       8.807  -5.408   2.450  0.00  0.00    -0.263 NA
ATOM     10  C   UNL     1       9.589  -6.097   1.642  0.00  0.00    +0.111 A 
ATOM     11  C   UNL     1       9.389  -6.074   0.274  0.00  0.00    +0.020 A 
ATOM     12  C   UNL     1       8.349  -5.317  -0.243  0.00  0.00    +0.008 A 
ENDBRANCH   3   7
TORSDOF 1
ENDMDL
MODEL 2
REMARK VINA RESULT:    -3.839      1.577      4.499
REMARK INTER + INTRA:          -4.286
REMARK INTER:                  -4.096
REMARK INTRA:                  -0.190
REMARK UNBOUND:                -0.223
REMARK  Name = Nicotine.pdb
REMARK  2 active torsions:
REMARK  status: ('A' for Active; 'I' for Inactive)
REMARK    1  A    between atoms: C_3  and  C_6
REMARK    2  A    between atoms: N_4  and  C_12
REMARK                            x       y       z     vdW  Elec       q    Type
REMARK                         _______ _______ _______ _____ _____    ______ ____
ROOT
ATOM      1  C   UNL     1      10.618  -6.024   0.380  0.00  0.00    +0.017 C 
ATOM      2  C   UNL     1       9.247  -5.759   1.055  0.00  0.00    +0.025 C 
ATOM      3  C   UNL     1       8.320  -5.465  -0.143  0.00  0.00    +0.088 C 
ATOM      4  N   UNL     1       9.177  -5.035  -1.263  0.00  0.00    -0.298 NA
ATOM      5  C   UNL     1      10.582  -5.024  -0.804  0.00  0.00    +0.085 C 
ATOM      6  C   UNL     1       9.009  -5.916  -2.425  0.00  0.00    +0.105 C 
ENDROOT
BRANCH   3   7
ATOM      7  C   UNL     1       7.351  -4.368   0.214  0.00  0.00    -0.012 A 
ATOM      8  C   UNL     1       6.827  -4.287   1.491  0.00  0.00    +0.115 A 
ATOM      9  N   UNL     1       5.979  -3.330   1.812  0.00  0.00    -0.263 NA
ATOM     10  C   UNL     1       5.598  -2.419   0.938  0.00  0.00    +0.111 A 
ATOM     11  C   UNL     1       6.080  -2.436  -0.357  0.00  0.00    +0.020 A 
ATOM     12  C   UNL     1       6.978  -3.424  -0.730  0.00  0.00    +0.008 A 
ENDBRANCH   3   7
TORSDOF 1
ENDMDL
MODEL 3
REMARK VINA RESULT:    -3.272      2.628      4.227
REMARK INTER + INTRA:          -3.686
REMARK INTER:                  -3.473
REMARK INTRA:                  -0.212
REMARK UNBOUND:                -0.223
REMARK  Name = Nicotine.pdb
REMARK  2 active torsions:
REMARK  status: ('A' for Active; 'I' for Inactive)
REMARK    1  A    between atoms: C_3  and  C_6
REMARK    2  A    between atoms: N_4  and  C_12
REMARK                            x       y       z     vdW  Elec       q    Type
REMARK                         _______ _______ _______ _____ _____    ______ ____
ROOT
ATOM      1  C   UNL     1      10.954  -4.132  -2.858  0.00  0.00    +0.017 C 
ATOM      2  C   UNL     1      10.638  -4.475  -1.379  0.00  0.00    +0.025 C 
ATOM      3  C   UNL     1       9.322  -5.275  -1.481  0.00  0.00    +0.088 C 
ATOM      4  N   UNL     1       8.687  -4.910  -2.760  0.00  0.00    -0.298 NA
ATOM      5  C   UNL     1       9.535  -3.906  -3.437  0.00  0.00    +0.085 C 
ATOM      6  C   UNL     1       8.491  -6.093  -3.608  0.00  0.00    +0.105 C 
ENDROOT
BRANCH   3   7
ATOM      7  C   UNL     1       8.413  -4.915  -0.334  0.00  0.00    -0.012 A 
ATOM      8  C   UNL     1       8.736  -5.286   0.957  0.00  0.00    +0.115 A 
ATOM      9  N   UNL     1       7.946  -4.975   1.966  0.00  0.00    -0.263 NA
ATOM     10  C   UNL     1       6.825  -4.305   1.788  0.00  0.00    +0.111 A 
ATOM     11  C   UNL     1       6.437  -3.900   0.525  0.00  0.00    +0.020 A 
ATOM     12  C   UNL     1       7.245  -4.204  -0.560  0.00  0.00    +0.008 A 
ENDBRANCH   3   7
TORSDOF 1
ENDMDL
MODEL 4
REMARK VINA RESULT:    -3.049      1.357      2.244
REMARK INTER + INTRA:          -3.450
REMARK INTER:                  -3.240
REMARK INTRA:                  -0.211
REMARK UNBOUND:                -0.223
REMARK  Name = Nicotine.pdb
REMARK  2 active torsions:
REMARK  status: ('A' for Active; 'I' for Inactive)
REMARK    1  A    between atoms: C_3  and  C_6
REMARK    2  A    between atoms: N_4  and  C_12
REMARK                            x       y       z     vdW  Elec       q    Type
REMARK                         _______ _______ _______ _____ _____    ______ ____
ROOT
ATOM      1  C   UNL     1       4.419  -3.103   1.367  0.00  0.00    +0.017 C 
ATOM      2  C   UNL     1       5.690  -3.958   1.610  0.00  0.00    +0.025 C 
ATOM      3  C   UNL     1       6.763  -3.231   0.771  0.00  0.00    +0.088 C 
ATOM      4  N   UNL     1       6.055  -2.450  -0.260  0.00  0.00    -0.298 NA
ATOM      5  C   UNL     1       4.603  -2.682  -0.112  0.00  0.00    +0.085 C 
ATOM      6  C   UNL     1       6.375  -1.021  -0.151  0.00  0.00    +0.105 C 
ENDROOT
BRANCH   3   7
ATOM      7  C   UNL     1       7.673  -4.238   0.119  0.00  0.00    -0.012 A 
ATOM      8  C   UNL     1       8.333  -5.182   0.883  0.00  0.00    +0.115 A 
ATOM      9  N   UNL     1       9.132  -6.067   0.320  0.00  0.00    -0.263 NA
ATOM     10  C   UNL     1       9.333  -6.090  -0.983  0.00  0.00    +0.111 A 
ATOM     11  C   UNL     1       8.707  -5.177  -1.811  0.00  0.00    +0.020 A 
ATOM     12  C   UNL     1       7.856  -4.235  -1.256  0.00  0.00    +0.008 A 
ENDBRANCH   3   7
TORSDOF 1
ENDMDL
MODEL 5
REMARK VINA RESULT:    -2.770      3.254      4.807
REMARK INTER + INTRA:          -3.155
REMARK INTER:                  -2.947
REMARK INTRA:                  -0.208
REMARK UNBOUND:                -0.223
REMARK  Name = Nicotine.pdb
REMARK  2 active torsions:
REMARK  status: ('A' for Active; 'I' for Inactive)
REMARK    1  A    between atoms: C_3  and  C_6
REMARK    2  A    between atoms: N_4  and  C_12
REMARK                            x       y       z     vdW  Elec       q    Type
REMARK                         _______ _______ _______ _____ _____    ______ ____
ROOT
ATOM      1  C   UNL     1       9.615  -5.657  -4.728  0.00  0.00    +0.017 C 
ATOM      2  C   UNL     1       8.787  -5.804  -3.423  0.00  0.00    +0.025 C 
ATOM      3  C   UNL     1       9.242  -4.589  -2.586  0.00  0.00    +0.088 C 
ATOM      4  N   UNL     1      10.562  -4.177  -3.095  0.00  0.00    -0.298 NA
ATOM      5  C   UNL     1      10.953  -5.093  -4.187  0.00  0.00    +0.085 C 
ATOM      6  C   UNL     1      10.536  -2.784  -3.560  0.00  0.00    +0.105 C 
ENDROOT
BRANCH   3   7
ATOM      7  C   UNL     1       9.349  -4.979  -1.135  0.00  0.00    -0.012 A 
ATOM      8  C   UNL     1       8.210  -5.154  -0.371  0.00  0.00    +0.115 A 
ATOM      9  N   UNL     1       8.296  -5.496   0.900  0.00  0.00    -0.263 NA
ATOM     10  C   UNL     1       9.459  -5.681   1.491  0.00  0.00    +0.111 A 
ATOM     11  C   UNL     1      10.641  -5.525   0.791  0.00  0.00    +0.020 A 
ATOM     12  C   UNL     1      10.591  -5.172  -0.549  0.00  0.00    +0.008 A 
ENDBRANCH   3   7
TORSDOF 1
ENDMDL
MODEL 6
REMARK VINA RESULT:    -2.584      8.114      9.381
REMARK INTER + INTRA:          -2.958
REMARK INTER:                  -2.780
REMARK INTRA:                  -0.178
REMARK UNBOUND:                -0.223
REMARK  Name = Nicotine.pdb
REMARK  2 active torsions:
REMARK  status: ('A' for Active; 'I' for Inactive)
REMARK    1  A    between atoms: C_3  and  C_6
REMARK    2  A    between atoms: N_4  and  C_12
REMARK                            x       y       z     vdW  Elec       q    Type
REMARK                         _______ _______ _______ _____ _____    ______ ____
ROOT
ATOM      1  C   UNL     1       5.744   3.097  -7.135  0.00  0.00    +0.017 C 
ATOM      2  C   UNL     1       6.387   1.785  -6.613  0.00  0.00    +0.025 C 
ATOM      3  C   UNL     1       7.508   2.294  -5.683  0.00  0.00    +0.088 C 
ATOM      4  N   UNL     1       7.830   3.671  -6.099  0.00  0.00    -0.298 NA
ATOM      5  C   UNL     1       6.980   4.024  -7.256  0.00  0.00    +0.085 C 
ATOM      6  C   UNL     1       7.634   4.616  -4.993  0.00  0.00    +0.105 C 
ENDROOT
BRANCH   3   7
ATOM      7  C   UNL     1       8.726   1.418  -5.820  0.00  0.00    -0.012 A 
ATOM      8  C   UNL     1       9.704   1.720  -6.749  0.00  0.00    +0.115 A 
ATOM      9  N   UNL     1      10.773   0.958  -6.876  0.00  0.00    -0.263 NA
ATOM     10  C   UNL     1      10.952  -0.114  -6.130  0.00  0.00    +0.111 A 
ATOM     11  C   UNL     1      10.017  -0.479  -5.179  0.00  0.00    +0.020 A 
ATOM     12  C   UNL     1       8.883   0.301  -5.014  0.00  0.00    +0.008 A 
ENDBRANCH   3   7
TORSDOF 1
ENDMDL
MODEL 7
REMARK VINA RESULT:    -2.539      7.121      8.616
REMARK INTER + INTRA:          -2.910
REMARK INTER:                  -2.735
REMARK INTRA:                  -0.175
REMARK UNBOUND:                -0.223
REMARK  Name = Nicotine.pdb
REMARK  2 active torsions:
REMARK  status: ('A' for Active; 'I' for Inactive)
REMARK    1  A    between atoms: C_3  and  C_6
REMARK    2  A    between atoms: N_4  and  C_12
REMARK                            x       y       z     vdW  Elec       q    Type
REMARK                         _______ _______ _______ _____ _____    ______ ____
ROOT
ATOM      1  C   UNL     1       7.664   4.363  -5.420  0.00  0.00    +0.017 C 
ATOM      2  C   UNL     1       8.951   3.520  -5.624  0.00  0.00    +0.025 C 
ATOM      3  C   UNL     1       8.427   2.254  -6.334  0.00  0.00    +0.088 C 
ATOM      4  N   UNL     1       6.991   2.142  -6.024  0.00  0.00    -0.298 NA
ATOM      5  C   UNL     1       6.611   3.263  -5.138  0.00  0.00    +0.085 C 
ATOM      6  C   UNL     1       6.185   2.144  -7.251  0.00  0.00    +0.105 C 
ENDROOT
BRANCH   3   7
ATOM      7  C   UNL     1       9.160   1.040  -5.823  0.00  0.00    -0.012 A 
ATOM      8  C   UNL     1       8.689   0.352  -4.721  0.00  0.00    +0.115 A 
ATOM      9  N   UNL     1       9.324  -0.712  -4.268  0.00  0.00    -0.263 NA
ATOM     10  C   UNL     1      10.424  -1.158  -4.840  0.00  0.00    +0.111 A 
ATOM     11  C   UNL     1      10.954  -0.522  -5.947  0.00  0.00    +0.020 A 
ATOM     12  C   UNL     1      10.311   0.596  -6.455  0.00  0.00    +0.008 A 
ENDBRANCH   3   7
TORSDOF 1
ENDMDL
MODEL 8
REMARK VINA RESULT:    -2.372      2.138      5.171
REMARK INTER + INTRA:          -2.734
REMARK INTER:                  -2.478
REMARK INTRA:                  -0.256
REMARK UNBOUND:                -0.223
REMARK  Name = Nicotine.pdb
REMARK  2 active torsions:
REMARK  status: ('A' for Active; 'I' for Inactive)
REMARK    1  A    between atoms: C_3  and  C_6
REMARK    2  A    between atoms: N_4  and  C_12
REMARK                            x       y       z     vdW  Elec       q    Type
REMARK                         _______ _______ _______ _____ _____    ______ ____
ROOT
ATOM      1  C   UNL     1       5.568  -4.184   1.643  0.00  0.00    +0.017 C 
ATOM      2  C   UNL     1       4.945  -2.923   0.990  0.00  0.00    +0.025 C 
ATOM      3  C   UNL     1       5.901  -2.633  -0.187  0.00  0.00    +0.088 C 
ATOM      4  N   UNL     1       7.191  -3.271   0.131  0.00  0.00    -0.298 NA
ATOM      5  C   UNL     1       7.083  -3.917   1.456  0.00  0.00    +0.085 C 
ATOM      6  C   UNL     1       7.565  -4.245  -0.902  0.00  0.00    +0.105 C 
ENDROOT
BRANCH   3   7
ATOM      7  C   UNL     1       6.087  -1.146  -0.341  0.00  0.00    -0.012 A 
ATOM      8  C   UNL     1       6.441  -0.609  -1.565  0.00  0.00    +0.115 A 
ATOM      9  N   UNL     1       6.605   0.692  -1.708  0.00  0.00    -0.263 NA
ATOM     10  C   UNL     1       6.442   1.527  -0.701  0.00  0.00    +0.111 A 
ATOM     11  C   UNL     1       6.087   1.063   0.552  0.00  0.00    +0.020 A 
ATOM     12  C   UNL     1       5.900  -0.298   0.740  0.00  0.00    +0.008 A 
ENDBRANCH   3   7
TORSDOF 1
ENDMDL
MODEL 9
REMARK VINA RESULT:    -1.959      1.807      2.332
REMARK INTER + INTRA:          -2.296
REMARK INTER:                  -2.065
REMARK INTRA:                  -0.231
REMARK UNBOUND:                -0.223
REMARK  Name = Nicotine.pdb
REMARK  2 active torsions:
REMARK  status: ('A' for Active; 'I' for Inactive)
REMARK    1  A    between atoms: C_3  and  C_6
REMARK    2  A    between atoms: N_4  and  C_12
REMARK                            x       y       z     vdW  Elec       q    Type
REMARK                         _______ _______ _______ _____ _____    ______ ____
ROOT
ATOM      1  C   UNL     1       5.366  -2.720   0.281  0.00  0.00    +0.017 C 
ATOM      2  C   UNL     1       6.065  -3.649  -0.747  0.00  0.00    +0.025 C 
ATOM      3  C   UNL     1       6.988  -4.514   0.137  0.00  0.00    +0.088 C 
ATOM      4  N   UNL     1       7.218  -3.769   1.388  0.00  0.00    -0.298 NA
ATOM      5  C   UNL     1       6.502  -2.478   1.306  0.00  0.00    +0.085 C 
ATOM      6  C   UNL     1       6.773  -4.545   2.553  0.00  0.00    +0.105 C 
ENDROOT
BRANCH   3   7
ATOM      7  C   UNL     1       8.298  -4.751  -0.568  0.00  0.00    -0.012 A 
ATOM      8  C   UNL     1       9.335  -5.393   0.082  0.00  0.00    +0.115 A 
ATOM      9  N   UNL     1      10.485  -5.605  -0.528  0.00  0.00    -0.263 NA
ATOM     10  C   UNL     1      10.692  -5.217  -1.771  0.00  0.00    +0.111 A 
ATOM     11  C   UNL     1       9.701  -4.569  -2.484  0.00  0.00    +0.020 A 
ATOM     12  C   UNL     1       8.477  -4.334  -1.878  0.00  0.00    +0.008 A 
ENDBRANCH   3   7
TORSDOF 1
ENDMDL
