MODEL 1
REMARK VINA RESULT:    -4.071      0.000      0.000
REMARK INTER + INTRA:          -4.522
REMARK INTER:                  -4.309
REMARK INTRA:                  -0.213
REMARK UNBOUND:                -0.213
REMARK  Name = Nicotine.pdb
REMARK  2 active torsions:
REMARK  status: ('A' for Active; 'I' for Inactive)
REMARK    1  A    between atoms: C_3  and  C_6
REMARK    2  A    between atoms: N_4  and  C_12
REMARK                            x       y       z     vdW  Elec       q    Type
REMARK                         _______ _______ _______ _____ _____    ______ ____
ROOT
ATOM      1  C   UNL     1      -5.171   5.712  -6.679  0.00  0.00    +0.017 C 
ATOM      2  C   UNL     1      -4.796   4.218  -6.495  0.00  0.00    +0.025 C 
ATOM      3  C   UNL     1      -3.842   4.247  -5.281  0.00  0.00    +0.088 C 
ATOM      4  N   UNL     1      -3.294   5.612  -5.189  0.00  0.00    -0.298 NA
ATOM      5  C   UNL     1      -3.844   6.417  -6.300  0.00  0.00    +0.085 C 
ATOM      6  C   UNL     1      -3.611   6.220  -3.890  0.00  0.00    +0.105 C 
ENDROOT
BRANCH   3   7
ATOM      7  C   UNL     1      -2.724   3.257  -5.484  0.00  0.00    -0.012 A 
ATOM      8  C   UNL     1      -2.232   3.009  -6.752  0.00  0.00    +0.115 A 
ATOM      9  N   UNL     1      -1.253   2.144  -6.938  0.00  0.00    -0.263 NA
ATOM     10  C   UNL     1      -0.710   1.486  -5.933  0.00  0.00    +0.111 A 
ATOM     11  C   UNL     1      -1.150   1.682  -4.638  0.00  0.00    +0.020 A 
ATOM     12  C   UNL     1      -2.173   2.588  -4.402  0.00  0.00    +0.008 A 
ENDBRANCH   3   7
TORSDOF 1
ENDMDL
MODEL 2
REMARK VINA RESULT:    -3.612      1.682      4.760
REMARK INTER + INTRA:          -4.036
REMARK INTER:                  -3.791
REMARK INTRA:                  -0.245
REMARK UNBOUND:                -0.213
REMARK  Name = Nicotine.pdb
REMARK  2 active torsions:
REMARK  status: ('A' for Active; 'I' for Inactive)
REMARK    1  A    between atoms: C_3  and  C_6
REMARK    2  A    between atoms: N_4  and  C_12
REMARK                            x       y       z     vdW  Elec       q    Type
REMARK                         _______ _______ _______ _____ _____    ______ ____
ROOT
ATOM      1  C   UNL     1       0.636   1.659  -6.509  0.00  0.00    +0.017 C 
ATOM      2  C   UNL     1      -0.293   2.899  -6.419  0.00  0.00    +0.025 C 
ATOM      3  C   UNL     1      -1.295   2.501  -5.313  0.00  0.00    +0.088 C 
ATOM      4  N   UNL     1      -1.294   1.030  -5.232  0.00  0.00    -0.298 NA
ATOM      5  C   UNL     1      -0.361   0.502  -6.249  0.00  0.00    +0.085 C 
ATOM      6  C   UNL     1      -0.918   0.577  -3.886  0.00  0.00    +0.105 C 
ENDROOT
BRANCH   3   7
ATOM      7  C   UNL     1      -2.673   2.996  -5.669  0.00  0.00    -0.012 A 
ATOM      8  C   UNL     1      -3.475   3.582  -4.707  0.00  0.00    +0.115 A 
ATOM      9  N   UNL     1      -4.682   4.017  -5.010  0.00  0.00    -0.263 NA
ATOM     10  C   UNL     1      -5.171   3.913  -6.230  0.00  0.00    +0.111 A 
ATOM     11  C   UNL     1      -4.427   3.339  -7.244  0.00  0.00    +0.020 A 
ATOM     12  C   UNL     1      -3.151   2.875  -6.964  0.00  0.00    +0.008 A 
ENDBRANCH   3   7
TORSDOF 1
ENDMDL
MODEL 3
REMARK VINA RESULT:    -3.385      1.423      2.235
REMARK INTER + INTRA:          -3.796
REMARK INTER:                  -3.612
REMARK INTRA:                  -0.184
REMARK UNBOUND:                -0.213
REMARK  Name = Nicotine.pdb
REMARK  2 active torsions:
REMARK  status: ('A' for Active; 'I' for Inactive)
REMARK    1  A    between atoms: C_3  and  C_6
REMARK    2  A    between atoms: N_4  and  C_12
REMARK                            x       y       z     vdW  Elec       q    Type
REMARK                         _______ _______ _______ _____ _____    ______ ____
ROOT
ATOM      1  C   UNL     1      -5.090   4.374  -5.084  0.00  0.00    +0.017 C 
ATOM      2  C   UNL     1      -3.785   3.731  -4.545  0.00  0.00    +0.025 C 
ATOM      3  C   UNL     1      -2.732   4.155  -5.591  0.00  0.00    +0.088 C 
ATOM      4  N   UNL     1      -3.455   4.470  -6.836  0.00  0.00    -0.298 NA
ATOM      5  C   UNL     1      -4.898   4.236  -6.615  0.00  0.00    +0.085 C 
ATOM      6  C   UNL     1      -3.204   5.855  -7.256  0.00  0.00    +0.105 C 
ENDROOT
BRANCH   3   7
ATOM      7  C   UNL     1      -1.764   3.026  -5.831  0.00  0.00    -0.012 A 
ATOM      8  C   UNL     1      -1.559   2.063  -4.861  0.00  0.00    +0.115 A 
ATOM      9  N   UNL     1      -0.713   1.071  -5.062  0.00  0.00    -0.263 NA
ATOM     10  C   UNL     1      -0.034   0.957  -6.186  0.00  0.00    +0.111 A 
ATOM     11  C   UNL     1      -0.187   1.882  -7.202  0.00  0.00    +0.020 A 
ATOM     12  C   UNL     1      -1.071   2.936  -7.028  0.00  0.00    +0.008 A 
ENDBRANCH   3   7
TORSDOF 1
ENDMDL
MODEL 4
REMARK VINA RESULT:    -3.225      1.212      4.486
REMARK INTER + INTRA:          -3.626
REMARK INTER:                  -3.399
REMARK INTRA:                  -0.227
REMARK UNBOUND:                -0.213
REMARK  Name = Nicotine.pdb
REMARK  2 active torsions:
REMARK  status: ('A' for Active; 'I' for Inactive)
REMARK    1  A    between atoms: C_3  and  C_6
REMARK    2  A    between atoms: N_4  and  C_12
REMARK                            x       y       z     vdW  Elec       q    Type
REMARK                         _______ _______ _______ _____ _____    ______ ____
ROOT
ATOM      1  C   UNL     1      -1.035   2.019  -5.552  0.00  0.00    +0.017 C 
ATOM      2  C   UNL     1      -1.817   2.827  -4.484  0.00  0.00    +0.025 C 
ATOM      3  C   UNL     1      -3.155   3.133  -5.191  0.00  0.00    +0.088 C 
ATOM      4  N   UNL     1      -2.915   3.035  -6.641  0.00  0.00    -0.298 NA
ATOM      5  C   UNL     1      -1.489   2.710  -6.862  0.00  0.00    +0.085 C 
ATOM      6  C   UNL     1      -3.787   2.024  -7.253  0.00  0.00    +0.105 C 
ENDROOT
BRANCH   3   7
ATOM      7  C   UNL     1      -3.615   4.523  -4.838  0.00  0.00    -0.012 A 
ATOM      8  C   UNL     1      -4.672   5.102  -5.514  0.00  0.00    +0.115 A 
ATOM      9  N   UNL     1      -5.082   6.319  -5.212  0.00  0.00    -0.263 NA
ATOM     10  C   UNL     1      -4.505   7.028  -4.262  0.00  0.00    +0.111 A 
ATOM     11  C   UNL     1      -3.442   6.515  -3.542  0.00  0.00    +0.020 A 
ATOM     12  C   UNL     1      -2.987   5.237  -3.828  0.00  0.00    +0.008 A 
ENDBRANCH   3   7
TORSDOF 1
ENDMDL
MODEL 5
REMARK VINA RESULT:    -2.900      1.245      4.479
REMARK INTER + INTRA:          -3.283
REMARK INTER:                  -3.036
REMARK INTRA:                  -0.247
REMARK UNBOUND:                -0.213
REMARK  Name = Nicotine.pdb
REMARK  2 active torsions:
REMARK  status: ('A' for Active; 'I' for Inactive)
REMARK    1  A    between atoms: C_3  and  C_6
REMARK    2  A    between atoms: N_4  and  C_12
REMARK                            x       y       z     vdW  Elec       q    Type
REMARK                         _______ _______ _______ _____ _____    ______ ____
ROOT
ATOM      1  C   UNL     1      -0.785   1.088  -4.357  0.00  0.00    +0.017 C 
ATOM      2  C   UNL     1      -2.225   1.610  -4.601  0.00  0.00    +0.025 C 
ATOM      3  C   UNL     1      -2.076   2.448  -5.889  0.00  0.00    +0.088 C 
ATOM      4  N   UNL     1      -0.657   2.830  -6.000  0.00  0.00    -0.298 NA
ATOM      5  C   UNL     1       0.069   2.290  -4.831  0.00  0.00    +0.085 C 
ATOM      6  C   UNL     1      -0.075   2.337  -7.256  0.00  0.00    +0.105 C 
ENDROOT
BRANCH   3   7
ATOM      7  C   UNL     1      -2.935   3.683  -5.800  0.00  0.00    -0.012 A 
ATOM      8  C   UNL     1      -3.056   4.530  -6.885  0.00  0.00    +0.115 A 
ATOM      9  N   UNL     1      -3.806   5.613  -6.815  0.00  0.00    -0.263 NA
ATOM     10  C   UNL     1      -4.465   5.930  -5.719  0.00  0.00    +0.111 A 
ATOM     11  C   UNL     1      -4.393   5.130  -4.593  0.00  0.00    +0.020 A 
ATOM     12  C   UNL     1      -3.619   3.980  -4.631  0.00  0.00    +0.008 A 
ENDBRANCH   3   7
TORSDOF 1
ENDMDL
MODEL 6
REMARK VINA RESULT:    -2.037     11.932     13.275
REMARK INTER + INTRA:          -2.369
REMARK INTER:                  -2.150
REMARK INTRA:                  -0.218
REMARK UNBOUND:                -0.213
REMARK  Name = Nicotine.pdb
REMARK  2 active torsions:
REMARK  status: ('A' for Active; 'I' for Inactive)
REMARK    1  A    between atoms: C_3  and  C_6
REMARK    2  A    between atoms: N_4  and  C_12
REMARK                            x       y       z     vdW  Elec       q    Type
REMARK                         _______ _______ _______ _____ _____    ______ ____
ROOT
ATOM      1  C   UNL     1       7.720  -1.501  -6.507  0.00  0.00    +0.017 C 
ATOM      2  C   UNL     1       7.773  -0.141  -7.252  0.00  0.00    +0.025 C 
ATOM      3  C   UNL     1       9.277   0.208  -7.231  0.00  0.00    +0.088 C 
ATOM      4  N   UNL     1       9.883  -0.542  -6.116  0.00  0.00    -0.298 NA
ATOM      5  C   UNL     1       8.822  -1.314  -5.435  0.00  0.00    +0.085 C 
ATOM      6  C   UNL     1      10.953  -1.426  -6.595  0.00  0.00    +0.105 C 
ENDROOT
BRANCH   3   7
ATOM      7  C   UNL     1       9.457   1.688  -7.014  0.00  0.00    -0.012 A 
ATOM      8  C   UNL     1      10.669   2.188  -6.576  0.00  0.00    +0.115 A 
ATOM      9  N   UNL     1      10.835   3.482  -6.383  0.00  0.00    -0.263 NA
ATOM     10  C   UNL     1       9.862   4.345  -6.598  0.00  0.00    +0.111 A 
ATOM     11  C   UNL     1       8.622   3.919  -7.037  0.00  0.00    +0.020 A 
ATOM     12  C   UNL     1       8.412   2.566  -7.256  0.00  0.00    +0.008 A 
ENDBRANCH   3   7
TORSDOF 1
ENDMDL
MODEL 7
REMARK VINA RESULT:    -1.550     16.484     17.791
REMARK INTER + INTRA:          -1.853
REMARK INTER:                  -1.639
REMARK INTRA:                  -0.215
REMARK UNBOUND:                -0.213
REMARK  Name = Nicotine.pdb
REMARK  2 active torsions:
REMARK  status: ('A' for Active; 'I' for Inactive)
REMARK    1  A    between atoms: C_3  and  C_6
REMARK    2  A    between atoms: N_4  and  C_12
REMARK                            x       y       z     vdW  Elec       q    Type
REMARK                         _______ _______ _______ _____ _____    ______ ____
ROOT
ATOM      1  C   UNL     1       9.558  -3.788   6.244  0.00  0.00    +0.017 C 
ATOM      2  C   UNL     1      10.321  -4.272   4.982  0.00  0.00    +0.025 C 
ATOM      3  C   UNL     1      10.926  -2.967   4.421  0.00  0.00    +0.088 C 
ATOM      4  N   UNL     1      10.120  -1.850   4.946  0.00  0.00    -0.298 NA
ATOM      5  C   UNL     1       9.034  -2.406   5.782  0.00  0.00    +0.085 C 
ATOM      6  C   UNL     1      10.951  -0.916   5.715  0.00  0.00    +0.105 C 
ENDROOT
BRANCH   3   7
ATOM      7  C   UNL     1      10.867  -2.981   2.916  0.00  0.00    -0.012 A 
ATOM      8  C   UNL     1      10.734  -1.800   2.210  0.00  0.00    +0.115 A 
ATOM      9  N   UNL     1      10.682  -1.803   0.893  0.00  0.00    -0.263 NA
ATOM     10  C   UNL     1      10.753  -2.922   0.199  0.00  0.00    +0.111 A 
ATOM     11  C   UNL     1      10.887  -4.142   0.835  0.00  0.00    +0.020 A 
ATOM     12  C   UNL     1      10.951  -4.177   2.220  0.00  0.00    +0.008 A 
ENDBRANCH   3   7
TORSDOF 1
ENDMDL
MODEL 8
REMARK VINA RESULT:    -1.202     11.854     13.654
REMARK INTER + INTRA:          -1.485
REMARK INTER:                  -1.232
REMARK INTRA:                  -0.254
REMARK UNBOUND:                -0.213
REMARK  Name = Nicotine.pdb
REMARK  2 active torsions:
REMARK  status: ('A' for Active; 'I' for Inactive)
REMARK    1  A    between atoms: C_3  and  C_6
REMARK    2  A    between atoms: N_4  and  C_12
REMARK                            x       y       z     vdW  Elec       q    Type
REMARK                         _______ _______ _______ _____ _____    ______ ____
ROOT
ATOM      1  C   UNL     1      10.317  -2.522  -5.510  0.00  0.00    +0.017 C 
ATOM      2  C   UNL     1      10.232  -1.044  -5.047  0.00  0.00    +0.025 C 
ATOM      3  C   UNL     1       9.084  -0.475  -5.909  0.00  0.00    +0.088 C 
ATOM      4  N   UNL     1       8.960  -1.340  -7.096  0.00  0.00    -0.298 NA
ATOM      5  C   UNL     1       9.992  -2.396  -7.020  0.00  0.00    +0.085 C 
ATOM      6  C   UNL     1       7.615  -1.922  -7.186  0.00  0.00    +0.105 C 
ENDROOT
BRANCH   3   7
ATOM      7  C   UNL     1       9.409   0.934  -6.330  0.00  0.00    -0.012 A 
ATOM      8  C   UNL     1       8.433   1.741  -6.884  0.00  0.00    +0.115 A 
ATOM      9  N   UNL     1       8.709   2.976  -7.256  0.00  0.00    -0.263 NA
ATOM     10  C   UNL     1       9.915   3.488  -7.116  0.00  0.00    +0.111 A 
ATOM     11  C   UNL     1      10.942   2.742  -6.570  0.00  0.00    +0.020 A 
ATOM     12  C   UNL     1      10.689   1.441  -6.162  0.00  0.00    +0.008 A 
ENDBRANCH   3   7
TORSDOF 1
ENDMDL
