MODEL 1
REMARK VINA RESULT:    -3.505      0.000      0.000
REMARK INTER + INTRA:          -3.917
REMARK INTER:                  -3.709
REMARK INTRA:                  -0.207
REMARK UNBOUND:                -0.207
REMARK  Name = Nicotine.pdb
REMARK  2 active torsions:
REMARK  status: ('A' for Active; 'I' for Inactive)
REMARK    1  A    between atoms: C_3  and  C_6
REMARK    2  A    between atoms: N_4  and  C_12
REMARK                            x       y       z     vdW  Elec       q    Type
REMARK                         _______ _______ _______ _____ _____    ______ ____
ROOT
ATOM      1  C   UNL     1       8.738   3.955   5.929  0.00  0.00    +0.017 C 
ATOM      2  C   UNL     1       9.187   4.855   4.747  0.00  0.00    +0.025 C 
ATOM      3  C   UNL     1       7.996   5.822   4.576  0.00  0.00    +0.088 C 
ATOM      4  N   UNL     1       6.815   5.170   5.169  0.00  0.00    -0.298 NA
ATOM      5  C   UNL     1       7.215   3.839   5.673  0.00  0.00    +0.085 C 
ATOM      6  C   UNL     1       6.243   5.991   6.244  0.00  0.00    +0.105 C 
ENDROOT
BRANCH   3   7
ATOM      7  C   UNL     1       7.757   6.086   3.112  0.00  0.00    -0.012 A 
ATOM      8  C   UNL     1       8.795   6.498   2.297  0.00  0.00    +0.115 A 
ATOM      9  N   UNL     1       8.594   6.731   1.015  0.00  0.00    -0.263 NA
ATOM     10  C   UNL     1       7.406   6.584   0.461  0.00  0.00    +0.111 A 
ATOM     11  C   UNL     1       6.321   6.175   1.213  0.00  0.00    +0.020 A 
ATOM     12  C   UNL     1       6.495   5.915   2.564  0.00  0.00    +0.008 A 
ENDBRANCH   3   7
TORSDOF 1
ENDMDL
MODEL 2
REMARK VINA RESULT:    -3.222      1.223      4.504
REMARK INTER + INTRA:          -3.617
REMARK INTER:                  -3.382
REMARK INTRA:                  -0.235
REMARK UNBOUND:                -0.207
REMARK  Name = Nicotine.pdb
REMARK  2 active torsions:
REMARK  status: ('A' for Active; 'I' for Inactive)
REMARK    1  A    between atoms: C_3  and  C_6
REMARK    2  A    between atoms: N_4  and  C_12
REMARK                            x       y       z     vdW  Elec       q    Type
REMARK                         _______ _______ _______ _____ _____    ______ ____
ROOT
ATOM      1  C   UNL     1       6.429   6.972   1.113  0.00  0.00    +0.017 C 
ATOM      2  C   UNL     1       6.415   6.713   2.642  0.00  0.00    +0.025 C 
ATOM      3  C   UNL     1       7.907   6.495   2.972  0.00  0.00    +0.088 C 
ATOM      4  N   UNL     1       8.576   6.092   1.721  0.00  0.00    -0.298 NA
ATOM      5  C   UNL     1       7.564   6.027   0.646  0.00  0.00    +0.085 C 
ATOM      6  C   UNL     1       9.654   7.027   1.375  0.00  0.00    +0.105 C 
ENDROOT
BRANCH   3   7
ATOM      7  C   UNL     1       8.051   5.408   4.005  0.00  0.00    -0.012 A 
ATOM      8  C   UNL     1       9.304   4.995   4.415  0.00  0.00    +0.115 A 
ATOM      9  N   UNL     1       9.439   4.044   5.319  0.00  0.00    -0.263 NA
ATOM     10  C   UNL     1       8.394   3.453   5.865  0.00  0.00    +0.111 A 
ATOM     11  C   UNL     1       7.109   3.814   5.504  0.00  0.00    +0.020 A 
ATOM     12  C   UNL     1       6.928   4.814   4.561  0.00  0.00    +0.008 A 
ENDBRANCH   3   7
TORSDOF 1
ENDMDL
MODEL 3
REMARK VINA RESULT:    -2.951      2.121      4.810
REMARK INTER + INTRA:          -3.331
REMARK INTER:                  -3.078
REMARK INTRA:                  -0.252
REMARK UNBOUND:                -0.207
REMARK  Name = Nicotine.pdb
REMARK  2 active torsions:
REMARK  status: ('A' for Active; 'I' for Inactive)
REMARK    1  A    between atoms: C_3  and  C_6
REMARK    2  A    between atoms: N_4  and  C_12
REMARK                            x       y       z     vdW  Elec       q    Type
REMARK                         _______ _______ _______ _____ _____    ______ ____
ROOT
ATOM      1  C   UNL     1       6.449   6.292   4.358  0.00  0.00    +0.017 C 
ATOM      2  C   UNL     1       6.909   5.401   5.543  0.00  0.00    +0.025 C 
ATOM      3  C   UNL     1       8.401   5.156   5.233  0.00  0.00    +0.088 C 
ATOM      4  N   UNL     1       8.588   5.370   3.787  0.00  0.00    -0.298 NA
ATOM      5  C   UNL     1       7.280   5.710   3.188  0.00  0.00    +0.085 C 
ATOM      6  C   UNL     1       9.575   6.427   3.534  0.00  0.00    +0.105 C 
ENDROOT
BRANCH   3   7
ATOM      7  C   UNL     1       8.773   3.742   5.596  0.00  0.00    -0.012 A 
ATOM      8  C   UNL     1      10.099   3.351   5.614  0.00  0.00    +0.115 A 
ATOM      9  N   UNL     1      10.434   2.115   5.930  0.00  0.00    -0.263 NA
ATOM     10  C   UNL     1       9.528   1.209   6.240  0.00  0.00    +0.111 A 
ATOM     11  C   UNL     1       8.182   1.527   6.244  0.00  0.00    +0.020 A 
ATOM     12  C   UNL     1       7.792   2.817   5.921  0.00  0.00    +0.008 A 
ENDBRANCH   3   7
TORSDOF 1
ENDMDL
MODEL 4
REMARK VINA RESULT:    -0.820      4.295      6.462
REMARK INTER + INTRA:          -1.075
REMARK INTER:                  -0.867
REMARK INTRA:                  -0.208
REMARK UNBOUND:                -0.207
REMARK  Name = Nicotine.pdb
REMARK  2 active torsions:
REMARK  status: ('A' for Active; 'I' for Inactive)
REMARK    1  A    between atoms: C_3  and  C_6
REMARK    2  A    between atoms: N_4  and  C_12
REMARK                            x       y       z     vdW  Elec       q    Type
REMARK                         _______ _______ _______ _____ _____    ______ ____
ROOT
ATOM      1  C   UNL     1       7.471   3.028   5.986  0.00  0.00    +0.017 C 
ATOM      2  C   UNL     1       7.885   1.555   6.243  0.00  0.00    +0.025 C 
ATOM      3  C   UNL     1       9.426   1.612   6.177  0.00  0.00    +0.088 C 
ATOM      4  N   UNL     1       9.786   2.811   5.400  0.00  0.00    -0.298 NA
ATOM      5  C   UNL     1       8.542   3.481   4.964  0.00  0.00    +0.085 C 
ATOM      6  C   UNL     1      10.624   3.720   6.192  0.00  0.00    +0.105 C 
ENDROOT
BRANCH   3   7
ATOM      7  C   UNL     1       9.955   0.378   5.493  0.00  0.00    -0.012 A 
ATOM      8  C   UNL     1      10.488   0.459   4.220  0.00  0.00    +0.115 A 
ATOM      9  N   UNL     1      10.954  -0.616   3.614  0.00  0.00    -0.263 NA
ATOM     10  C   UNL     1      10.930  -1.802   4.191  0.00  0.00    +0.111 A 
ATOM     11  C   UNL     1      10.413  -1.960   5.463  0.00  0.00    +0.020 A 
ATOM     12  C   UNL     1       9.919  -0.851   6.133  0.00  0.00    +0.008 A 
ENDBRANCH   3   7
TORSDOF 1
ENDMDL
MODEL 5
REMARK VINA RESULT:    -0.620      2.132      4.680
REMARK INTER + INTRA:          -0.864
REMARK INTER:                  -0.608
REMARK INTRA:                  -0.256
REMARK UNBOUND:                -0.207
REMARK  Name = Nicotine.pdb
REMARK  2 active torsions:
REMARK  status: ('A' for Active; 'I' for Inactive)
REMARK    1  A    between atoms: C_3  and  C_6
REMARK    2  A    between atoms: N_4  and  C_12
REMARK                            x       y       z     vdW  Elec       q    Type
REMARK                         _______ _______ _______ _____ _____    ______ ____
ROOT
ATOM      1  C   UNL     1       8.578   6.870   3.246  0.00  0.00    +0.017 C 
ATOM      2  C   UNL     1       8.906   5.357   3.153  0.00  0.00    +0.025 C 
ATOM      3  C   UNL     1       7.928   4.726   4.166  0.00  0.00    +0.088 C 
ATOM      4  N   UNL     1       7.541   5.785   5.116  0.00  0.00    -0.298 NA
ATOM      5  C   UNL     1       8.253   7.028   4.752  0.00  0.00    +0.085 C 
ATOM      6  C   UNL     1       6.087   5.990   5.113  0.00  0.00    +0.105 C 
ENDROOT
BRANCH   3   7
ATOM      7  C   UNL     1       8.605   3.599   4.900  0.00  0.00    -0.012 A 
ATOM      8  C   UNL     1       7.855   2.612   5.512  0.00  0.00    +0.115 A 
ATOM      9  N   UNL     1       8.441   1.621   6.156  0.00  0.00    -0.263 NA
ATOM     10  C   UNL     1       9.753   1.532   6.244  0.00  0.00    +0.111 A 
ATOM     11  C   UNL     1      10.568   2.481   5.657  0.00  0.00    +0.020 A 
ATOM     12  C   UNL     1       9.989   3.534   4.966  0.00  0.00    +0.008 A 
ENDBRANCH   3   7
TORSDOF 1
ENDMDL
