MODEL 1
REMARK VINA RESULT:    -3.400      0.000      0.000
REMARK INTER + INTRA:          -3.831
REMARK INTER:                  -3.598
REMARK INTRA:                  -0.233
REMARK UNBOUND:                -0.233
REMARK  Name = Nicotine.pdb
REMARK  2 active torsions:
REMARK  status: ('A' for Active; 'I' for Inactive)
REMARK    1  A    between atoms: C_3  and  C_6
REMARK    2  A    between atoms: N_4  and  C_12
REMARK                            x       y       z     vdW  Elec       q    Type
REMARK                         _______ _______ _______ _____ _____    ______ ____
ROOT
ATOM      1  C   UNL     1       3.825  -4.634  -6.364  0.00  0.00    +0.017 C 
ATOM      2  C   UNL     1       4.452  -3.375  -7.018  0.00  0.00    +0.025 C 
ATOM      3  C   UNL     1       5.956  -3.720  -7.061  0.00  0.00    +0.088 C 
ATOM      4  N   UNL     1       6.198  -4.751  -6.037  0.00  0.00    -0.298 NA
ATOM      5  C   UNL     1       4.922  -5.039  -5.348  0.00  0.00    +0.085 C 
ATOM      6  C   UNL     1       6.760  -5.969  -6.636  0.00  0.00    +0.105 C 
ENDROOT
BRANCH   3   7
ATOM      7  C   UNL     1       6.773  -2.491  -6.756  0.00  0.00    -0.012 A 
ATOM      8  C   UNL     1       8.146  -2.579  -6.626  0.00  0.00    +0.115 A 
ATOM      9  N   UNL     1       8.868  -1.508  -6.359  0.00  0.00    -0.263 NA
ATOM     10  C   UNL     1       8.317  -0.320  -6.207  0.00  0.00    +0.111 A 
ATOM     11  C   UNL     1       6.949  -0.155  -6.324  0.00  0.00    +0.020 A 
ATOM     12  C   UNL     1       6.158  -1.257  -6.609  0.00  0.00    +0.008 A 
ENDBRANCH   3   7
TORSDOF 1
ENDMDL
MODEL 2
REMARK VINA RESULT:    -3.294      1.151      4.555
REMARK INTER + INTRA:          -3.719
REMARK INTER:                  -3.533
REMARK INTRA:                  -0.185
REMARK UNBOUND:                -0.233
REMARK  Name = Nicotine.pdb
REMARK  2 active torsions:
REMARK  status: ('A' for Active; 'I' for Inactive)
REMARK    1  A    between atoms: C_3  and  C_6
REMARK    2  A    between atoms: N_4  and  C_12
REMARK                            x       y       z     vdW  Elec       q    Type
REMARK                         _______ _______ _______ _____ _____    ______ ____
ROOT
ATOM      1  C   UNL     1       9.844  -1.393  -6.437  0.00  0.00    +0.017 C 
ATOM      2  C   UNL     1       9.073  -2.685  -6.815  0.00  0.00    +0.025 C 
ATOM      3  C   UNL     1       7.624  -2.184  -6.998  0.00  0.00    +0.088 C 
ATOM      4  N   UNL     1       7.499  -0.924  -6.243  0.00  0.00    -0.298 NA
ATOM      5  C   UNL     1       8.792  -0.639  -5.585  0.00  0.00    +0.085 C 
ATOM      6  C   UNL     1       7.102   0.181  -7.125  0.00  0.00    +0.105 C 
ENDROOT
BRANCH   3   7
ATOM      7  C   UNL     1       6.657  -3.205  -6.457  0.00  0.00    -0.012 A 
ATOM      8  C   UNL     1       7.032  -4.530  -6.340  0.00  0.00    +0.115 A 
ATOM      9  N   UNL     1       6.191  -5.430  -5.868  0.00  0.00    -0.263 NA
ATOM     10  C   UNL     1       4.969  -5.107  -5.492  0.00  0.00    +0.111 A 
ATOM     11  C   UNL     1       4.524  -3.801  -5.580  0.00  0.00    +0.020 A 
ATOM     12  C   UNL     1       5.381  -2.827  -6.067  0.00  0.00    +0.008 A 
ENDBRANCH   3   7
TORSDOF 1
ENDMDL
MODEL 3
REMARK VINA RESULT:    -3.217      2.411      6.017
REMARK INTER + INTRA:          -3.637
REMARK INTER:                  -3.414
REMARK INTRA:                  -0.224
REMARK UNBOUND:                -0.233
REMARK  Name = Nicotine.pdb
REMARK  2 active torsions:
REMARK  status: ('A' for Active; 'I' for Inactive)
REMARK    1  A    between atoms: C_3  and  C_6
REMARK    2  A    between atoms: N_4  and  C_12
REMARK                            x       y       z     vdW  Elec       q    Type
REMARK                         _______ _______ _______ _____ _____    ______ ____
ROOT
ATOM      1  C   UNL     1      10.434   1.831  -4.213  0.00  0.00    +0.017 C 
ATOM      2  C   UNL     1      10.199   0.458  -4.894  0.00  0.00    +0.025 C 
ATOM      3  C   UNL     1       9.280   0.812  -6.083  0.00  0.00    +0.088 C 
ATOM      4  N   UNL     1       8.616   2.086  -5.757  0.00  0.00    -0.298 NA
ATOM      5  C   UNL     1       9.061   2.520  -4.415  0.00  0.00    +0.085 C 
ATOM      6  C   UNL     1       8.913   3.110  -6.767  0.00  0.00    +0.105 C 
ENDROOT
BRANCH   3   7
ATOM      7  C   UNL     1       8.251  -0.271  -6.276  0.00  0.00    -0.012 A 
ATOM      8  C   UNL     1       6.903   0.038  -6.276  0.00  0.00    +0.115 A 
ATOM      9  N   UNL     1       5.995  -0.903  -6.444  0.00  0.00    -0.263 NA
ATOM     10  C   UNL     1       6.331  -2.167  -6.618  0.00  0.00    +0.111 A 
ATOM     11  C   UNL     1       7.659  -2.551  -6.630  0.00  0.00    +0.020 A 
ATOM     12  C   UNL     1       8.642  -1.588  -6.462  0.00  0.00    +0.008 A 
ENDBRANCH   3   7
TORSDOF 1
ENDMDL
MODEL 4
REMARK VINA RESULT:    -2.934      2.160      3.290
REMARK INTER + INTRA:          -3.339
REMARK INTER:                  -3.123
REMARK INTRA:                  -0.216
REMARK UNBOUND:                -0.233
REMARK  Name = Nicotine.pdb
REMARK  2 active torsions:
REMARK  status: ('A' for Active; 'I' for Inactive)
REMARK    1  A    between atoms: C_3  and  C_6
REMARK    2  A    between atoms: N_4  and  C_12
REMARK                            x       y       z     vdW  Elec       q    Type
REMARK                         _______ _______ _______ _____ _____    ______ ____
ROOT
ATOM      1  C   UNL     1       5.054  -2.829  -6.675  0.00  0.00    +0.017 C 
ATOM      2  C   UNL     1       6.593  -2.886  -6.861  0.00  0.00    +0.025 C 
ATOM      3  C   UNL     1       6.895  -4.398  -6.802  0.00  0.00    +0.088 C 
ATOM      4  N   UNL     1       5.777  -5.039  -6.085  0.00  0.00    -0.298 NA
ATOM      5  C   UNL     1       4.816  -3.991  -5.679  0.00  0.00    +0.085 C 
ATOM      6  C   UNL     1       5.127  -6.054  -6.923  0.00  0.00    +0.105 C 
ENDROOT
BRANCH   3   7
ATOM      7  C   UNL     1       8.184  -4.635  -6.060  0.00  0.00    -0.012 A 
ATOM      8  C   UNL     1       8.430  -5.854  -5.457  0.00  0.00    +0.115 A 
ATOM      9  N   UNL     1       9.556  -6.070  -4.805  0.00  0.00    -0.263 NA
ATOM     10  C   UNL     1      10.486  -5.141  -4.703  0.00  0.00    +0.111 A 
ATOM     11  C   UNL     1      10.311  -3.897  -5.281  0.00  0.00    +0.020 A 
ATOM     12  C   UNL     1       9.142  -3.636  -5.978  0.00  0.00    +0.008 A 
ENDBRANCH   3   7
TORSDOF 1
ENDMDL
MODEL 5
REMARK VINA RESULT:    -2.619      2.528      4.179
REMARK INTER + INTRA:          -3.005
REMARK INTER:                  -2.790
REMARK INTRA:                  -0.216
REMARK UNBOUND:                -0.233
REMARK  Name = Nicotine.pdb
REMARK  2 active torsions:
REMARK  status: ('A' for Active; 'I' for Inactive)
REMARK    1  A    between atoms: C_3  and  C_6
REMARK    2  A    between atoms: N_4  and  C_12
REMARK                            x       y       z     vdW  Elec       q    Type
REMARK                         _______ _______ _______ _____ _____    ______ ____
ROOT
ATOM      1  C   UNL     1      10.768  -2.381  -5.469  0.00  0.00    +0.017 C 
ATOM      2  C   UNL     1       9.910  -1.151  -5.071  0.00  0.00    +0.025 C 
ATOM      3  C   UNL     1       8.551  -1.445  -5.741  0.00  0.00    +0.088 C 
ATOM      4  N   UNL     1       8.802  -2.390  -6.844  0.00  0.00    -0.298 NA
ATOM      5  C   UNL     1      10.252  -2.673  -6.900  0.00  0.00    +0.085 C 
ATOM      6  C   UNL     1       8.031  -3.627  -6.663  0.00  0.00    +0.105 C 
ENDROOT
BRANCH   3   7
ATOM      7  C   UNL     1       7.960  -0.169  -6.283  0.00  0.00    -0.012 A 
ATOM      8  C   UNL     1       8.759   0.941  -6.483  0.00  0.00    +0.115 A 
ATOM      9  N   UNL     1       8.249   2.062  -6.957  0.00  0.00    -0.263 NA
ATOM     10  C   UNL     1       6.970   2.170  -7.256  0.00  0.00    +0.111 A 
ATOM     11  C   UNL     1       6.110   1.101  -7.083  0.00  0.00    +0.020 A 
ATOM     12  C   UNL     1       6.611  -0.095  -6.592  0.00  0.00    +0.008 A 
ENDBRANCH   3   7
TORSDOF 1
ENDMDL
MODEL 6
REMARK VINA RESULT:    -2.508      2.624      4.400
REMARK INTER + INTRA:          -2.887
REMARK INTER:                  -2.686
REMARK INTRA:                  -0.201
REMARK UNBOUND:                -0.233
REMARK  Name = Nicotine.pdb
REMARK  2 active torsions:
REMARK  status: ('A' for Active; 'I' for Inactive)
REMARK    1  A    between atoms: C_3  and  C_6
REMARK    2  A    between atoms: N_4  and  C_12
REMARK                            x       y       z     vdW  Elec       q    Type
REMARK                         _______ _______ _______ _____ _____    ______ ____
ROOT
ATOM      1  C   UNL     1       6.078  -0.646  -7.237  0.00  0.00    +0.017 C 
ATOM      2  C   UNL     1       7.005   0.585  -7.064  0.00  0.00    +0.025 C 
ATOM      3  C   UNL     1       8.371  -0.052  -6.731  0.00  0.00    +0.088 C 
ATOM      4  N   UNL     1       8.105  -1.402  -6.202  0.00  0.00    -0.298 NA
ATOM      5  C   UNL     1       6.642  -1.616  -6.169  0.00  0.00    +0.085 C 
ATOM      6  C   UNL     1       8.770  -2.428  -7.016  0.00  0.00    +0.105 C 
ENDROOT
BRANCH   3   7
ATOM      7  C   UNL     1       9.083   0.775  -5.693  0.00  0.00    -0.012 A 
ATOM      8  C   UNL     1       8.508   1.934  -5.206  0.00  0.00    +0.115 A 
ATOM      9  N   UNL     1       9.125   2.664  -4.298  0.00  0.00    -0.263 NA
ATOM     10  C   UNL     1      10.306   2.323  -3.820  0.00  0.00    +0.111 A 
ATOM     11  C   UNL     1      10.943   1.178  -4.259  0.00  0.00    +0.020 A 
ATOM     12  C   UNL     1      10.322   0.382  -5.210  0.00  0.00    +0.008 A 
ENDBRANCH   3   7
TORSDOF 1
ENDMDL
MODEL 7
REMARK VINA RESULT:    -1.763      1.702      3.402
REMARK INTER + INTRA:          -2.099
REMARK INTER:                  -1.844
REMARK INTRA:                  -0.255
REMARK UNBOUND:                -0.233
REMARK  Name = Nicotine.pdb
REMARK  2 active torsions:
REMARK  status: ('A' for Active; 'I' for Inactive)
REMARK    1  A    between atoms: C_3  and  C_6
REMARK    2  A    between atoms: N_4  and  C_12
REMARK                            x       y       z     vdW  Elec       q    Type
REMARK                         _______ _______ _______ _____ _____    ______ ____
ROOT
ATOM      1  C   UNL     1       3.868  -3.883  -5.746  0.00  0.00    +0.017 C 
ATOM      2  C   UNL     1       5.275  -4.330  -5.267  0.00  0.00    +0.025 C 
ATOM      3  C   UNL     1       6.217  -3.341  -5.987  0.00  0.00    +0.088 C 
ATOM      4  N   UNL     1       5.489  -2.818  -7.157  0.00  0.00    -0.298 NA
ATOM      5  C   UNL     1       4.156  -3.455  -7.207  0.00  0.00    +0.085 C 
ATOM      6  C   UNL     1       5.372  -1.356  -7.095  0.00  0.00    +0.105 C 
ENDROOT
BRANCH   3   7
ATOM      7  C   UNL     1       7.465  -4.056  -6.435  0.00  0.00    -0.012 A 
ATOM      8  C   UNL     1       8.581  -3.339  -6.821  0.00  0.00    +0.115 A 
ATOM      9  N   UNL     1       9.678  -3.957  -7.214  0.00  0.00    -0.263 NA
ATOM     10  C   UNL     1       9.755  -5.272  -7.256  0.00  0.00    +0.111 A 
ATOM     11  C   UNL     1       8.679  -6.056  -6.884  0.00  0.00    +0.020 A 
ATOM     12  C   UNL     1       7.511  -5.442  -6.460  0.00  0.00    +0.008 A 
ENDBRANCH   3   7
TORSDOF 1
ENDMDL
MODEL 8
REMARK VINA RESULT:    -1.740      1.185      2.029
REMARK INTER + INTRA:          -2.075
REMARK INTER:                  -1.881
REMARK INTRA:                  -0.193
REMARK UNBOUND:                -0.233
REMARK  Name = Nicotine.pdb
REMARK  2 active torsions:
REMARK  status: ('A' for Active; 'I' for Inactive)
REMARK    1  A    between atoms: C_3  and  C_6
REMARK    2  A    between atoms: N_4  and  C_12
REMARK                            x       y       z     vdW  Elec       q    Type
REMARK                         _______ _______ _______ _____ _____    ______ ____
ROOT
ATOM      1  C   UNL     1       6.800  -5.584  -6.729  0.00  0.00    +0.017 C 
ATOM      2  C   UNL     1       7.828  -4.469  -6.403  0.00  0.00    +0.025 C 
ATOM      3  C   UNL     1       6.940  -3.318  -5.885  0.00  0.00    +0.088 C 
ATOM      4  N   UNL     1       5.583  -3.541  -6.416  0.00  0.00    -0.298 NA
ATOM      5  C   UNL     1       5.599  -4.758  -7.255  0.00  0.00    +0.085 C 
ATOM      6  C   UNL     1       4.605  -3.664  -5.327  0.00  0.00    +0.105 C 
ENDROOT
BRANCH   3   7
ATOM      7  C   UNL     1       7.474  -1.998  -6.377  0.00  0.00    -0.012 A 
ATOM      8  C   UNL     1       8.835  -1.759  -6.399  0.00  0.00    +0.115 A 
ATOM      9  N   UNL     1       9.311  -0.606  -6.828  0.00  0.00    -0.263 NA
ATOM     10  C   UNL     1       8.516   0.358  -7.249  0.00  0.00    +0.111 A 
ATOM     11  C   UNL     1       7.144   0.192  -7.256  0.00  0.00    +0.020 A 
ATOM     12  C   UNL     1       6.607  -1.009  -6.817  0.00  0.00    +0.008 A 
ENDBRANCH   3   7
TORSDOF 1
ENDMDL
MODEL 9
REMARK VINA RESULT:    -1.341      2.366      4.749
REMARK INTER + INTRA:          -1.652
REMARK INTER:                  -1.453
REMARK INTRA:                  -0.200
REMARK UNBOUND:                -0.233
REMARK  Name = Nicotine.pdb
REMARK  2 active torsions:
REMARK  status: ('A' for Active; 'I' for Inactive)
REMARK    1  A    between atoms: C_3  and  C_6
REMARK    2  A    between atoms: N_4  and  C_12
REMARK                            x       y       z     vdW  Elec       q    Type
REMARK                         _______ _______ _______ _____ _____    ______ ____
ROOT
ATOM      1  C   UNL     1      10.655  -3.786  -4.115  0.00  0.00    +0.017 C 
ATOM      2  C   UNL     1       9.340  -4.608  -4.161  0.00  0.00    +0.025 C 
ATOM      3  C   UNL     1       9.165  -4.899  -5.667  0.00  0.00    +0.088 C 
ATOM      4  N   UNL     1       9.935  -3.879  -6.401  0.00  0.00    -0.298 NA
ATOM      5  C   UNL     1      10.553  -2.960  -5.421  0.00  0.00    +0.085 C 
ATOM      6  C   UNL     1      10.954  -4.501  -7.256  0.00  0.00    +0.105 C 
ENDROOT
BRANCH   3   7
ATOM      7  C   UNL     1       7.708  -4.811  -6.040  0.00  0.00    -0.012 A 
ATOM      8  C   UNL     1       6.866  -5.886  -5.826  0.00  0.00    +0.115 A 
ATOM      9  N   UNL     1       5.589  -5.817  -6.150  0.00  0.00    -0.263 NA
ATOM     10  C   UNL     1       5.068  -4.732  -6.687  0.00  0.00    +0.111 A 
ATOM     11  C   UNL     1       5.849  -3.617  -6.930  0.00  0.00    +0.020 A 
ATOM     12  C   UNL     1       7.194  -3.651  -6.598  0.00  0.00    +0.008 A 
ENDBRANCH   3   7
TORSDOF 1
ENDMDL
