MODEL 1
REMARK VINA RESULT:    -0.690      0.000      0.000
REMARK INTER + INTRA:          -0.919
REMARK INTER:                  -0.731
REMARK INTRA:                  -0.188
REMARK UNBOUND:                -0.188
REMARK  Name = Nicotine.pdb
REMARK  2 active torsions:
REMARK  status: ('A' for Active; 'I' for Inactive)
REMARK    1  A    between atoms: C_3  and  C_6
REMARK    2  A    between atoms: N_4  and  C_12
REMARK                            x       y       z     vdW  Elec       q    Type
REMARK                         _______ _______ _______ _____ _____    ______ ____
ROOT
ATOM      1  C   UNL     1      10.610   0.377  -6.752  0.00  0.00    +0.017 C 
ATOM      2  C   UNL     1      10.939   0.073  -5.267  0.00  0.00    +0.025 C 
ATOM      3  C   UNL     1      10.950  -1.469  -5.222  0.00  0.00    +0.088 C 
ATOM      4  N   UNL     1      10.152  -1.946  -6.365  0.00  0.00    -0.298 NA
ATOM      5  C   UNL     1       9.629  -0.772  -7.096  0.00  0.00    +0.085 C 
ATOM      6  C   UNL     1      10.954  -2.802  -7.248  0.00  0.00    +0.105 C 
ENDROOT
BRANCH   3   7
ATOM      7  C   UNL     1      10.338  -1.949  -3.931  0.00  0.00    -0.012 A 
ATOM      8  C   UNL     1      10.492  -1.216  -2.770  0.00  0.00    +0.115 A 
ATOM      9  N   UNL     1       9.959  -1.629  -1.636  0.00  0.00    -0.263 NA
ATOM     10  C   UNL     1       9.265  -2.747  -1.563  0.00  0.00    +0.111 A 
ATOM     11  C   UNL     1       9.069  -3.533  -2.684  0.00  0.00    +0.020 A 
ATOM     12  C   UNL     1       9.609  -3.128  -3.895  0.00  0.00    +0.008 A 
ENDBRANCH   3   7
TORSDOF 1
ENDMDL
MODEL 2
REMARK VINA RESULT:     0.916      1.647      4.350
REMARK INTER + INTRA:           0.781
REMARK INTER:                   0.952
REMARK INTRA:                  -0.171
REMARK UNBOUND:                -0.188
REMARK  Name = Nicotine.pdb
REMARK  2 active torsions:
REMARK  status: ('A' for Active; 'I' for Inactive)
REMARK    1  A    between atoms: C_3  and  C_6
REMARK    2  A    between atoms: N_4  and  C_12
REMARK                            x       y       z     vdW  Elec       q    Type
REMARK                         _______ _______ _______ _____ _____    ______ ____
ROOT
ATOM      1  C   UNL     1       7.346  -4.241  -2.377  0.00  0.00    +0.017 C 
ATOM      2  C   UNL     1       7.593  -3.287  -3.575  0.00  0.00    +0.025 C 
ATOM      3  C   UNL     1       9.076  -3.540  -3.920  0.00  0.00    +0.088 C 
ATOM      4  N   UNL     1       9.716  -4.097  -2.714  0.00  0.00    -0.298 NA
ATOM      5  C   UNL     1       8.706  -4.174  -1.638  0.00  0.00    +0.085 C 
ATOM      6  C   UNL     1      10.298  -5.417  -2.988  0.00  0.00    +0.105 C 
ENDROOT
BRANCH   3   7
ATOM      7  C   UNL     1       9.742  -2.244  -4.303  0.00  0.00    -0.012 A 
ATOM      8  C   UNL     1      10.214  -1.385  -3.329  0.00  0.00    +0.115 A 
ATOM      9  N   UNL     1      10.798  -0.249  -3.656  0.00  0.00    -0.263 NA
ATOM     10  C   UNL     1      10.954   0.113  -4.914  0.00  0.00    +0.111 A 
ATOM     11  C   UNL     1      10.508  -0.695  -5.943  0.00  0.00    +0.020 A 
ATOM     12  C   UNL     1       9.894  -1.900  -5.638  0.00  0.00    +0.008 A 
ENDBRANCH   3   7
TORSDOF 1
ENDMDL
MODEL 3
REMARK VINA RESULT:     1.180      2.574      3.922
REMARK INTER + INTRA:           1.060
REMARK INTER:                   1.282
REMARK INTRA:                  -0.222
REMARK UNBOUND:                -0.188
REMARK  Name = Nicotine.pdb
REMARK  2 active torsions:
REMARK  status: ('A' for Active; 'I' for Inactive)
REMARK    1  A    between atoms: C_3  and  C_6
REMARK    2  A    between atoms: N_4  and  C_12
REMARK                            x       y       z     vdW  Elec       q    Type
REMARK                         _______ _______ _______ _____ _____    ______ ____
ROOT
ATOM      1  C   UNL     1      10.568  -1.349  -2.817  0.00  0.00    +0.017 C 
ATOM      2  C   UNL     1       9.239  -1.924  -2.260  0.00  0.00    +0.025 C 
ATOM      3  C   UNL     1       9.107  -3.272  -3.000  0.00  0.00    +0.088 C 
ATOM      4  N   UNL     1       9.920  -3.179  -4.226  0.00  0.00    -0.298 NA
ATOM      5  C   UNL     1      10.525  -1.831  -4.288  0.00  0.00    +0.085 C 
ATOM      6  C   UNL     1      10.954  -4.222  -4.253  0.00  0.00    +0.105 C 
ENDROOT
BRANCH   3   7
ATOM      7  C   UNL     1       7.665  -3.522  -3.358  0.00  0.00    -0.012 A 
ATOM      8  C   UNL     1       7.284  -3.646  -4.680  0.00  0.00    +0.115 A 
ATOM      9  N   UNL     1       6.024  -3.865  -5.002  0.00  0.00    -0.263 NA
ATOM     10  C   UNL     1       5.084  -3.973  -4.085  0.00  0.00    +0.111 A 
ATOM     11  C   UNL     1       5.389  -3.860  -2.741  0.00  0.00    +0.020 A 
ATOM     12  C   UNL     1       6.704  -3.636  -2.365  0.00  0.00    +0.008 A 
ENDBRANCH   3   7
TORSDOF 1
ENDMDL
MODEL 4
REMARK VINA RESULT:     1.884      1.732      4.549
REMARK INTER + INTRA:           1.806
REMARK INTER:                   2.011
REMARK INTRA:                  -0.205
REMARK UNBOUND:                -0.188
REMARK  Name = Nicotine.pdb
REMARK  2 active torsions:
REMARK  status: ('A' for Active; 'I' for Inactive)
REMARK    1  A    between atoms: C_3  and  C_6
REMARK    2  A    between atoms: N_4  and  C_12
REMARK                            x       y       z     vdW  Elec       q    Type
REMARK                         _______ _______ _______ _____ _____    ______ ____
ROOT
ATOM      1  C   UNL     1       6.559  -4.160  -2.772  0.00  0.00    +0.017 C 
ATOM      2  C   UNL     1       7.201  -3.282  -3.878  0.00  0.00    +0.025 C 
ATOM      3  C   UNL     1       8.706  -3.594  -3.739  0.00  0.00    +0.088 C 
ATOM      4  N   UNL     1       8.923  -4.100  -2.372  0.00  0.00    -0.298 NA
ATOM      5  C   UNL     1       7.630  -4.090  -1.655  0.00  0.00    +0.085 C 
ATOM      6  C   UNL     1       9.503  -5.449  -2.395  0.00  0.00    +0.105 C 
ENDROOT
BRANCH   3   7
ATOM      7  C   UNL     1       9.512  -2.340  -3.957  0.00  0.00    -0.012 A 
ATOM      8  C   UNL     1       9.710  -1.849  -5.234  0.00  0.00    +0.115 A 
ATOM      9  N   UNL     1      10.414  -0.751  -5.434  0.00  0.00    -0.263 NA
ATOM     10  C   UNL     1      10.954  -0.083  -4.434  0.00  0.00    +0.111 A 
ATOM     11  C   UNL     1      10.799  -0.513  -3.129  0.00  0.00    +0.020 A 
ATOM     12  C   UNL     1      10.061  -1.660  -2.880  0.00  0.00    +0.008 A 
ENDBRANCH   3   7
TORSDOF 1
ENDMDL
MODEL 5
REMARK VINA RESULT:     1.956      1.429      4.526
REMARK INTER + INTRA:           1.882
REMARK INTER:                   2.102
REMARK INTRA:                  -0.220
REMARK UNBOUND:                -0.188
REMARK  Name = Nicotine.pdb
REMARK  2 active torsions:
REMARK  status: ('A' for Active; 'I' for Inactive)
REMARK    1  A    between atoms: C_3  and  C_6
REMARK    2  A    between atoms: N_4  and  C_12
REMARK                            x       y       z     vdW  Elec       q    Type
REMARK                         _______ _______ _______ _____ _____    ______ ____
ROOT
ATOM      1  C   UNL     1       9.527  -3.265  -1.599  0.00  0.00    +0.017 C 
ATOM      2  C   UNL     1       9.828  -1.907  -2.286  0.00  0.00    +0.025 C 
ATOM      3  C   UNL     1       8.935  -1.949  -3.544  0.00  0.00    +0.088 C 
ATOM      4  N   UNL     1       8.646  -3.367  -3.827  0.00  0.00    -0.298 NA
ATOM      5  C   UNL     1       9.338  -4.199  -2.820  0.00  0.00    +0.085 C 
ATOM      6  C   UNL     1       7.200  -3.622  -3.818  0.00  0.00    +0.105 C 
ENDROOT
BRANCH   3   7
ATOM      7  C   UNL     1       9.661  -1.330  -4.709  0.00  0.00    -0.012 A 
ATOM      8  C   UNL     1       9.701  -1.975  -5.931  0.00  0.00    +0.115 A 
ATOM      9  N   UNL     1      10.335  -1.439  -6.956  0.00  0.00    -0.263 NA
ATOM     10  C   UNL     1      10.951  -0.278  -6.860  0.00  0.00    +0.111 A 
ATOM     11  C   UNL     1      10.954   0.426  -5.670  0.00  0.00    +0.020 A 
ATOM     12  C   UNL     1      10.293  -0.103  -4.572  0.00  0.00    +0.008 A 
ENDBRANCH   3   7
TORSDOF 1
ENDMDL
