MODEL 1
REMARK VINA RESULT:    -3.301      0.000      0.000
REMARK INTER + INTRA:          -3.683
REMARK INTER:                  -3.494
REMARK INTRA:                  -0.188
REMARK UNBOUND:                -0.188
REMARK  Name = Nicotine.pdb
REMARK  2 active torsions:
REMARK  status: ('A' for Active; 'I' for Inactive)
REMARK    1  A    between atoms: C_3  and  C_6
REMARK    2  A    between atoms: N_4  and  C_12
REMARK                            x       y       z     vdW  Elec       q    Type
REMARK                         _______ _______ _______ _____ _____    ______ ____
ROOT
ATOM      1  C   UNL     1       9.860   2.904  -3.741  0.00  0.00    +0.017 C 
ATOM      2  C   UNL     1       9.032   1.669  -4.185  0.00  0.00    +0.025 C 
ATOM      3  C   UNL     1       8.166   2.228  -5.335  0.00  0.00    +0.088 C 
ATOM      4  N   UNL     1       8.085   3.688  -5.151  0.00  0.00    -0.298 NA
ATOM      5  C   UNL     1       8.837   4.052  -3.932  0.00  0.00    +0.085 C 
ATOM      6  C   UNL     1       8.611   4.397  -6.326  0.00  0.00    +0.105 C 
ENDROOT
BRANCH   3   7
ATOM      7  C   UNL     1       6.786   1.625  -5.277  0.00  0.00    -0.012 A 
ATOM      8  C   UNL     1       6.612   0.314  -4.877  0.00  0.00    +0.115 A 
ATOM      9  N   UNL     1       5.408  -0.221  -4.823  0.00  0.00    -0.263 NA
ATOM     10  C   UNL     1       4.330   0.465  -5.147  0.00  0.00    +0.111 A 
ATOM     11  C   UNL     1       4.426   1.782  -5.556  0.00  0.00    +0.020 A 
ATOM     12  C   UNL     1       5.675   2.380  -5.619  0.00  0.00    +0.008 A 
ENDBRANCH   3   7
TORSDOF 1
ENDMDL
MODEL 2
REMARK VINA RESULT:    -3.116      3.799      6.152
REMARK INTER + INTRA:          -3.486
REMARK INTER:                  -3.300
REMARK INTRA:                  -0.186
REMARK UNBOUND:                -0.188
REMARK  Name = Nicotine.pdb
REMARK  2 active torsions:
REMARK  status: ('A' for Active; 'I' for Inactive)
REMARK    1  A    between atoms: C_3  and  C_6
REMARK    2  A    between atoms: N_4  and  C_12
REMARK                            x       y       z     vdW  Elec       q    Type
REMARK                         _______ _______ _______ _____ _____    ______ ____
ROOT
ATOM      1  C   UNL     1       5.936  -5.763  -4.588  0.00  0.00    +0.017 C 
ATOM      2  C   UNL     1       4.987  -4.639  -5.085  0.00  0.00    +0.025 C 
ATOM      3  C   UNL     1       5.949  -3.660  -5.791  0.00  0.00    +0.088 C 
ATOM      4  N   UNL     1       7.296  -3.898  -5.241  0.00  0.00    -0.298 NA
ATOM      5  C   UNL     1       7.205  -4.958  -4.214  0.00  0.00    +0.085 C 
ATOM      6  C   UNL     1       8.240  -4.272  -6.302  0.00  0.00    +0.105 C 
ENDROOT
BRANCH   3   7
ATOM      7  C   UNL     1       5.526  -2.240  -5.518  0.00  0.00    -0.012 A 
ATOM      8  C   UNL     1       4.247  -1.965  -5.072  0.00  0.00    +0.115 A 
ATOM      9  N   UNL     1       3.869  -0.725  -4.831  0.00  0.00    -0.263 NA
ATOM     10  C   UNL     1       4.686   0.295  -5.004  0.00  0.00    +0.111 A 
ATOM     11  C   UNL     1       5.981   0.097  -5.447  0.00  0.00    +0.020 A 
ATOM     12  C   UNL     1       6.416  -1.193  -5.706  0.00  0.00    +0.008 A 
ENDBRANCH   3   7
TORSDOF 1
ENDMDL
MODEL 3
REMARK VINA RESULT:    -3.043      3.880      6.021
REMARK INTER + INTRA:          -3.409
REMARK INTER:                  -3.196
REMARK INTRA:                  -0.213
REMARK UNBOUND:                -0.188
REMARK  Name = Nicotine.pdb
REMARK  2 active torsions:
REMARK  status: ('A' for Active; 'I' for Inactive)
REMARK    1  A    between atoms: C_3  and  C_6
REMARK    2  A    between atoms: N_4  and  C_12
REMARK                            x       y       z     vdW  Elec       q    Type
REMARK                         _______ _______ _______ _____ _____    ______ ____
ROOT
ATOM      1  C   UNL     1       4.110   0.319  -5.761  0.00  0.00    +0.017 C 
ATOM      2  C   UNL     1       3.829  -0.966  -4.938  0.00  0.00    +0.025 C 
ATOM      3  C   UNL     1       5.084  -1.826  -5.197  0.00  0.00    +0.088 C 
ATOM      4  N   UNL     1       5.689  -1.349  -6.454  0.00  0.00    -0.298 NA
ATOM      5  C   UNL     1       4.853  -0.255  -6.993  0.00  0.00    +0.085 C 
ATOM      6  C   UNL     1       7.070  -0.898  -6.237  0.00  0.00    +0.105 C 
ENDROOT
BRANCH   3   7
ATOM      7  C   UNL     1       4.694  -3.275  -5.332  0.00  0.00    -0.012 A 
ATOM      8  C   UNL     1       3.471  -3.622  -5.874  0.00  0.00    +0.115 A 
ATOM      9  N   UNL     1       3.122  -4.888  -5.996  0.00  0.00    -0.263 NA
ATOM     10  C   UNL     1       3.917  -5.867  -5.610  0.00  0.00    +0.111 A 
ATOM     11  C   UNL     1       5.156  -5.596  -5.059  0.00  0.00    +0.020 A 
ATOM     12  C   UNL     1       5.560  -4.277  -4.920  0.00  0.00    +0.008 A 
ENDBRANCH   3   7
TORSDOF 1
ENDMDL
MODEL 4
REMARK VINA RESULT:    -3.013      6.518      8.465
REMARK INTER + INTRA:          -3.377
REMARK INTER:                  -3.152
REMARK INTRA:                  -0.225
REMARK UNBOUND:                -0.188
REMARK  Name = Nicotine.pdb
REMARK  2 active torsions:
REMARK  status: ('A' for Active; 'I' for Inactive)
REMARK    1  A    between atoms: C_3  and  C_6
REMARK    2  A    between atoms: N_4  and  C_12
REMARK                            x       y       z     vdW  Elec       q    Type
REMARK                         _______ _______ _______ _____ _____    ______ ____
ROOT
ATOM      1  C   UNL     1       1.900   3.213  -6.887  0.00  0.00    +0.017 C 
ATOM      2  C   UNL     1       0.701   2.230  -6.824  0.00  0.00    +0.025 C 
ATOM      3  C   UNL     1      -0.520   3.174  -6.780  0.00  0.00    +0.088 C 
ATOM      4  N   UNL     1      -0.046   4.478  -6.281  0.00  0.00    -0.298 NA
ATOM      5  C   UNL     1       1.400   4.374  -5.992  0.00  0.00    +0.085 C 
ATOM      6  C   UNL     1      -0.314   5.544  -7.255  0.00  0.00    +0.105 C 
ENDROOT
BRANCH   3   7
ATOM      7  C   UNL     1      -1.566   2.617  -5.850  0.00  0.00    -0.012 A 
ATOM      8  C   UNL     1      -2.646   3.391  -5.469  0.00  0.00    +0.115 A 
ATOM      9  N   UNL     1      -3.566   2.911  -4.655  0.00  0.00    -0.263 NA
ATOM     10  C   UNL     1      -3.495   1.685  -4.175  0.00  0.00    +0.111 A 
ATOM     11  C   UNL     1      -2.444   0.853  -4.512  0.00  0.00    +0.020 A 
ATOM     12  C   UNL     1      -1.461   1.321  -5.369  0.00  0.00    +0.008 A 
ENDBRANCH   3   7
TORSDOF 1
ENDMDL
MODEL 5
REMARK VINA RESULT:    -2.945      5.616      7.696
REMARK INTER + INTRA:          -3.306
REMARK INTER:                  -3.082
REMARK INTRA:                  -0.224
REMARK UNBOUND:                -0.188
REMARK  Name = Nicotine.pdb
REMARK  2 active torsions:
REMARK  status: ('A' for Active; 'I' for Inactive)
REMARK    1  A    between atoms: C_3  and  C_6
REMARK    2  A    between atoms: N_4  and  C_12
REMARK                            x       y       z     vdW  Elec       q    Type
REMARK                         _______ _______ _______ _____ _____    ______ ____
ROOT
ATOM      1  C   UNL     1       3.072  -4.836  -6.269  0.00  0.00    +0.017 C 
ATOM      2  C   UNL     1       4.250  -5.393  -5.427  0.00  0.00    +0.025 C 
ATOM      3  C   UNL     1       4.980  -4.115  -4.962  0.00  0.00    +0.088 C 
ATOM      4  N   UNL     1       4.618  -3.039  -5.903  0.00  0.00    -0.298 NA
ATOM      5  C   UNL     1       3.723  -3.599  -6.938  0.00  0.00    +0.085 C 
ATOM      6  C   UNL     1       3.977  -1.919  -5.202  0.00  0.00    +0.105 C 
ENDROOT
BRANCH   3   7
ATOM      7  C   UNL     1       6.469  -4.338  -4.984  0.00  0.00    -0.012 A 
ATOM      8  C   UNL     1       7.294  -3.484  -5.692  0.00  0.00    +0.115 A 
ATOM      9  N   UNL     1       8.599  -3.672  -5.717  0.00  0.00    -0.263 NA
ATOM     10  C   UNL     1       9.167  -4.673  -5.073  0.00  0.00    +0.111 A 
ATOM     11  C   UNL     1       8.407  -5.567  -4.343  0.00  0.00    +0.020 A 
ATOM     12  C   UNL     1       7.032  -5.398  -4.290  0.00  0.00    +0.008 A 
ENDBRANCH   3   7
TORSDOF 1
ENDMDL
MODEL 6
REMARK VINA RESULT:    -2.894      1.922      3.253
REMARK INTER + INTRA:          -3.252
REMARK INTER:                  -3.077
REMARK INTRA:                  -0.175
REMARK UNBOUND:                -0.188
REMARK  Name = Nicotine.pdb
REMARK  2 active torsions:
REMARK  status: ('A' for Active; 'I' for Inactive)
REMARK    1  A    between atoms: C_3  and  C_6
REMARK    2  A    between atoms: N_4  and  C_12
REMARK                            x       y       z     vdW  Elec       q    Type
REMARK                         _______ _______ _______ _____ _____    ______ ____
ROOT
ATOM      1  C   UNL     1       7.607   6.690  -4.045  0.00  0.00    +0.017 C 
ATOM      2  C   UNL     1       7.946   5.306  -3.432  0.00  0.00    +0.025 C 
ATOM      3  C   UNL     1       8.804   4.641  -4.529  0.00  0.00    +0.088 C 
ATOM      4  N   UNL     1       8.482   5.311  -5.802  0.00  0.00    -0.298 NA
ATOM      5  C   UNL     1       7.450   6.337  -5.546  0.00  0.00    +0.085 C 
ATOM      6  C   UNL     1       9.683   5.908  -6.401  0.00  0.00    +0.105 C 
ENDROOT
BRANCH   3   7
ATOM      7  C   UNL     1       8.472   3.174  -4.621  0.00  0.00    -0.012 A 
ATOM      8  C   UNL     1       7.437   2.742  -5.429  0.00  0.00    +0.115 A 
ATOM      9  N   UNL     1       7.139   1.460  -5.515  0.00  0.00    -0.263 NA
ATOM     10  C   UNL     1       7.810   0.546  -4.842  0.00  0.00    +0.111 A 
ATOM     11  C   UNL     1       8.858   0.903  -4.015  0.00  0.00    +0.020 A 
ATOM     12  C   UNL     1       9.203   2.241  -3.903  0.00  0.00    +0.008 A 
ENDBRANCH   3   7
TORSDOF 1
ENDMDL
MODEL 7
REMARK VINA RESULT:    -2.891      1.720      4.555
REMARK INTER + INTRA:          -3.248
REMARK INTER:                  -3.037
REMARK INTRA:                  -0.211
REMARK UNBOUND:                -0.188
REMARK  Name = Nicotine.pdb
REMARK  2 active torsions:
REMARK  status: ('A' for Active; 'I' for Inactive)
REMARK    1  A    between atoms: C_3  and  C_6
REMARK    2  A    between atoms: N_4  and  C_12
REMARK                            x       y       z     vdW  Elec       q    Type
REMARK                         _______ _______ _______ _____ _____    ______ ____
ROOT
ATOM      1  C   UNL     1       4.633   0.721  -5.419  0.00  0.00    +0.017 C 
ATOM      2  C   UNL     1       4.706   2.268  -5.500  0.00  0.00    +0.025 C 
ATOM      3  C   UNL     1       6.143   2.522  -6.005  0.00  0.00    +0.088 C 
ATOM      4  N   UNL     1       6.940   1.327  -5.673  0.00  0.00    -0.298 NA
ATOM      5  C   UNL     1       6.071   0.363  -4.966  0.00  0.00    +0.085 C 
ATOM      6  C   UNL     1       7.519   0.727  -6.882  0.00  0.00    +0.105 C 
ENDROOT
BRANCH   3   7
ATOM      7  C   UNL     1       6.721   3.733  -5.320  0.00  0.00    -0.012 A 
ATOM      8  C   UNL     1       6.065   4.948  -5.376  0.00  0.00    +0.115 A 
ATOM      9  N   UNL     1       6.564   6.012  -4.779  0.00  0.00    -0.263 NA
ATOM     10  C   UNL     1       7.699   5.963  -4.110  0.00  0.00    +0.111 A 
ATOM     11  C   UNL     1       8.411   4.782  -4.009  0.00  0.00    +0.020 A 
ATOM     12  C   UNL     1       7.915   3.641  -4.620  0.00  0.00    +0.008 A 
ENDBRANCH   3   7
TORSDOF 1
ENDMDL
MODEL 8
REMARK VINA RESULT:    -2.866      2.811      4.545
REMARK INTER + INTRA:          -3.222
REMARK INTER:                  -3.007
REMARK INTRA:                  -0.216
REMARK UNBOUND:                -0.188
REMARK  Name = Nicotine.pdb
REMARK  2 active torsions:
REMARK  status: ('A' for Active; 'I' for Inactive)
REMARK    1  A    between atoms: C_3  and  C_6
REMARK    2  A    between atoms: N_4  and  C_12
REMARK                            x       y       z     vdW  Elec       q    Type
REMARK                         _______ _______ _______ _____ _____    ______ ____
ROOT
ATOM      1  C   UNL     1       5.606   5.852  -5.841  0.00  0.00    +0.017 C 
ATOM      2  C   UNL     1       6.187   4.464  -5.466  0.00  0.00    +0.025 C 
ATOM      3  C   UNL     1       7.292   4.814  -4.447  0.00  0.00    +0.088 C 
ATOM      4  N   UNL     1       7.672   6.219  -4.680  0.00  0.00    -0.298 NA
ATOM      5  C   UNL     1       6.873   6.742  -5.809  0.00  0.00    +0.085 C 
ATOM      6  C   UNL     1       7.469   7.028  -3.471  0.00  0.00    +0.105 C 
ENDROOT
BRANCH   3   7
ATOM      7  C   UNL     1       8.485   3.918  -4.656  0.00  0.00    -0.012 A 
ATOM      8  C   UNL     1       8.666   3.263  -5.860  0.00  0.00    +0.115 A 
ATOM      9  N   UNL     1       9.707   2.477  -6.050  0.00  0.00    -0.263 NA
ATOM     10  C   UNL     1      10.611   2.283  -5.110  0.00  0.00    +0.111 A 
ATOM     11  C   UNL     1      10.497   2.904  -3.880  0.00  0.00    +0.020 A 
ATOM     12  C   UNL     1       9.418   3.742  -3.645  0.00  0.00    +0.008 A 
ENDBRANCH   3   7
TORSDOF 1
ENDMDL
MODEL 9
REMARK VINA RESULT:    -2.846      4.717      5.782
REMARK INTER + INTRA:          -3.200
REMARK INTER:                  -3.009
REMARK INTRA:                  -0.192
REMARK UNBOUND:                -0.188
REMARK  Name = Nicotine.pdb
REMARK  2 active torsions:
REMARK  status: ('A' for Active; 'I' for Inactive)
REMARK    1  A    between atoms: C_3  and  C_6
REMARK    2  A    between atoms: N_4  and  C_12
REMARK                            x       y       z     vdW  Elec       q    Type
REMARK                         _______ _______ _______ _____ _____    ______ ____
ROOT
ATOM      1  C   UNL     1      10.729  -1.662  -4.373  0.00  0.00    +0.017 C 
ATOM      2  C   UNL     1      10.242  -3.130  -4.254  0.00  0.00    +0.025 C 
ATOM      3  C   UNL     1       9.240  -3.260  -5.421  0.00  0.00    +0.088 C 
ATOM      4  N   UNL     1       8.785  -1.899  -5.759  0.00  0.00    -0.298 NA
ATOM      5  C   UNL     1       9.439  -0.942  -4.841  0.00  0.00    +0.085 C 
ATOM      6  C   UNL     1       9.087  -1.576  -7.160  0.00  0.00    +0.105 C 
ENDROOT
BRANCH   3   7
ATOM      7  C   UNL     1       8.066  -4.103  -4.997  0.00  0.00    -0.012 A 
ATOM      8  C   UNL     1       8.253  -5.201  -4.179  0.00  0.00    +0.115 A 
ATOM      9  N   UNL     1       7.231  -5.945  -3.803  0.00  0.00    -0.263 NA
ATOM     10  C   UNL     1       5.999  -5.676  -4.189  0.00  0.00    +0.111 A 
ATOM     11  C   UNL     1       5.734  -4.593  -5.007  0.00  0.00    +0.020 A 
ATOM     12  C   UNL     1       6.783  -3.785  -5.418  0.00  0.00    +0.008 A 
ENDBRANCH   3   7
TORSDOF 1
ENDMDL
