MODEL 1
REMARK VINA RESULT:    -1.575      0.000      0.000
REMARK INTER + INTRA:          -1.891
REMARK INTER:                  -1.667
REMARK INTRA:                  -0.224
REMARK UNBOUND:                -0.224
REMARK  Name = Nicotine.pdb
REMARK  2 active torsions:
REMARK  status: ('A' for Active; 'I' for Inactive)
REMARK    1  A    between atoms: C_3  and  C_6
REMARK    2  A    between atoms: N_4  and  C_12
REMARK                            x       y       z     vdW  Elec       q    Type
REMARK                         _______ _______ _______ _____ _____    ______ ____
ROOT
ATOM      1  C   UNL     1       1.818  -1.566  -6.039  0.00  0.00    +0.017 C 
ATOM      2  C   UNL     1       3.174  -1.805  -6.754  0.00  0.00    +0.025 C 
ATOM      3  C   UNL     1       3.050  -3.259  -7.256  0.00  0.00    +0.088 C 
ATOM      4  N   UNL     1       2.032  -3.924  -6.422  0.00  0.00    -0.298 NA
ATOM      5  C   UNL     1       1.543  -2.957  -5.416  0.00  0.00    +0.085 C 
ATOM      6  C   UNL     1       0.928  -4.433  -7.245  0.00  0.00    +0.105 C 
ENDROOT
BRANCH   3   7
ATOM      7  C   UNL     1       4.373  -3.965  -7.112  0.00  0.00    -0.012 A 
ATOM      8  C   UNL     1       4.452  -5.338  -7.252  0.00  0.00    +0.115 A 
ATOM      9  N   UNL     1       5.606  -5.964  -7.128  0.00  0.00    -0.263 NA
ATOM     10  C   UNL     1       6.723  -5.313  -6.869  0.00  0.00    +0.111 A 
ATOM     11  C   UNL     1       6.722  -3.939  -6.717  0.00  0.00    +0.020 A 
ATOM     12  C   UNL     1       5.528  -3.246  -6.845  0.00  0.00    +0.008 A 
ENDBRANCH   3   7
TORSDOF 1
ENDMDL
MODEL 2
REMARK VINA RESULT:    -0.813      2.683      5.551
REMARK INTER + INTRA:          -1.085
REMARK INTER:                  -0.900
REMARK INTRA:                  -0.185
REMARK UNBOUND:                -0.224
REMARK  Name = Nicotine.pdb
REMARK  2 active torsions:
REMARK  status: ('A' for Active; 'I' for Inactive)
REMARK    1  A    between atoms: C_3  and  C_6
REMARK    2  A    between atoms: N_4  and  C_12
REMARK                            x       y       z     vdW  Elec       q    Type
REMARK                         _______ _______ _______ _____ _____    ______ ____
ROOT
ATOM      1  C   UNL     1       0.819  -4.062  -5.913  0.00  0.00    +0.017 C 
ATOM      2  C   UNL     1       0.162  -2.951  -6.774  0.00  0.00    +0.025 C 
ATOM      3  C   UNL     1       1.371  -2.119  -7.250  0.00  0.00    +0.088 C 
ATOM      4  N   UNL     1       2.473  -2.369  -6.302  0.00  0.00    -0.298 NA
ATOM      5  C   UNL     1       1.991  -3.293  -5.254  0.00  0.00    +0.085 C 
ATOM      6  C   UNL     1       3.647  -2.919  -6.992  0.00  0.00    +0.105 C 
ENDROOT
BRANCH   3   7
ATOM      7  C   UNL     1       1.017  -0.654  -7.252  0.00  0.00    -0.012 A 
ATOM      8  C   UNL     1      -0.306  -0.255  -7.252  0.00  0.00    +0.115 A 
ATOM      9  N   UNL     1      -0.625   1.025  -7.254  0.00  0.00    -0.263 NA
ATOM     10  C   UNL     1       0.296   1.968  -7.256  0.00  0.00    +0.111 A 
ATOM     11  C   UNL     1       1.641   1.645  -7.255  0.00  0.00    +0.020 A 
ATOM     12  C   UNL     1       2.014   0.310  -7.247  0.00  0.00    +0.008 A 
ENDBRANCH   3   7
TORSDOF 1
ENDMDL
MODEL 3
REMARK VINA RESULT:     0.516      1.280      4.709
REMARK INTER + INTRA:           0.322
REMARK INTER:                   0.538
REMARK INTRA:                  -0.216
REMARK UNBOUND:                -0.224
REMARK  Name = Nicotine.pdb
REMARK  2 active torsions:
REMARK  status: ('A' for Active; 'I' for Inactive)
REMARK    1  A    between atoms: C_3  and  C_6
REMARK    2  A    between atoms: N_4  and  C_12
REMARK                            x       y       z     vdW  Elec       q    Type
REMARK                         _______ _______ _______ _____ _____    ______ ____
ROOT
ATOM      1  C   UNL     1       6.139  -5.865  -6.645  0.00  0.00    +0.017 C 
ATOM      2  C   UNL     1       4.671  -5.640  -7.096  0.00  0.00    +0.025 C 
ATOM      3  C   UNL     1       4.589  -4.107  -7.256  0.00  0.00    +0.088 C 
ATOM      4  N   UNL     1       5.664  -3.523  -6.434  0.00  0.00    -0.298 NA
ATOM      5  C   UNL     1       6.387  -4.621  -5.757  0.00  0.00    +0.085 C 
ATOM      6  C   UNL     1       6.577  -2.718  -7.255  0.00  0.00    +0.105 C 
ENDROOT
BRANCH   3   7
ATOM      7  C   UNL     1       3.249  -3.613  -6.775  0.00  0.00    -0.012 A 
ATOM      8  C   UNL     1       3.134  -2.371  -6.181  0.00  0.00    +0.115 A 
ATOM      9  N   UNL     1       1.965  -1.931  -5.757  0.00  0.00    -0.263 NA
ATOM     10  C   UNL     1       0.867  -2.650  -5.882  0.00  0.00    +0.111 A 
ATOM     11  C   UNL     1       0.904  -3.902  -6.468  0.00  0.00    +0.020 A 
ATOM     12  C   UNL     1       2.115  -4.396  -6.929  0.00  0.00    +0.008 A 
ENDBRANCH   3   7
TORSDOF 1
ENDMDL
