MODEL 1
REMARK VINA RESULT:    -4.209      0.000      0.000
REMARK INTER + INTRA:          -4.674
REMARK INTER:                  -4.455
REMARK INTRA:                  -0.220
REMARK UNBOUND:                -0.220
REMARK  Name = Nicotine.pdb
REMARK  2 active torsions:
REMARK  status: ('A' for Active; 'I' for Inactive)
REMARK    1  A    between atoms: C_3  and  C_6
REMARK    2  A    between atoms: N_4  and  C_12
REMARK                            x       y       z     vdW  Elec       q    Type
REMARK                         _______ _______ _______ _____ _____    ______ ____
ROOT
ATOM      1  C   UNL     1       7.552   4.767  -7.059  0.00  0.00    +0.017 C 
ATOM      2  C   UNL     1       6.061   4.369  -7.211  0.00  0.00    +0.025 C 
ATOM      3  C   UNL     1       5.525   4.469  -5.767  0.00  0.00    +0.088 C 
ATOM      4  N   UNL     1       6.683   4.349  -4.863  0.00  0.00    -0.298 NA
ATOM      5  C   UNL     1       7.900   4.155  -5.679  0.00  0.00    +0.085 C 
ATOM      6  C   UNL     1       6.807   5.535  -4.005  0.00  0.00    +0.105 C 
ENDROOT
BRANCH   3   7
ATOM      7  C   UNL     1       4.549   3.352  -5.503  0.00  0.00    -0.012 A 
ATOM      8  C   UNL     1       4.635   2.608  -4.342  0.00  0.00    +0.115 A 
ATOM      9  N   UNL     1       3.785   1.628  -4.103  0.00  0.00    -0.263 NA
ATOM     10  C   UNL     1       2.826   1.320  -4.954  0.00  0.00    +0.111 A 
ATOM     11  C   UNL     1       2.677   2.021  -6.137  0.00  0.00    +0.020 A 
ATOM     12  C   UNL     1       3.550   3.061  -6.419  0.00  0.00    +0.008 A 
ENDBRANCH   3   7
TORSDOF 1
ENDMDL
MODEL 2
REMARK VINA RESULT:    -3.949      1.228      1.491
REMARK INTER + INTRA:          -4.400
REMARK INTER:                  -4.225
REMARK INTRA:                  -0.175
REMARK UNBOUND:                -0.220
REMARK  Name = Nicotine.pdb
REMARK  2 active torsions:
REMARK  status: ('A' for Active; 'I' for Inactive)
REMARK    1  A    between atoms: C_3  and  C_6
REMARK    2  A    between atoms: N_4  and  C_12
REMARK                            x       y       z     vdW  Elec       q    Type
REMARK                         _______ _______ _______ _____ _____    ______ ____
ROOT
ATOM      1  C   UNL     1       7.229   5.099  -6.933  0.00  0.00    +0.017 C 
ATOM      2  C   UNL     1       6.363   3.829  -7.141  0.00  0.00    +0.025 C 
ATOM      3  C   UNL     1       4.940   4.318  -6.798  0.00  0.00    +0.088 C 
ATOM      4  N   UNL     1       5.082   5.512  -5.945  0.00  0.00    -0.298 NA
ATOM      5  C   UNL     1       6.522   5.765  -5.725  0.00  0.00    +0.085 C 
ATOM      6  C   UNL     1       4.429   6.677  -6.555  0.00  0.00    +0.105 C 
ENDROOT
BRANCH   3   7
ATOM      7  C   UNL     1       4.193   3.241  -6.055  0.00  0.00    -0.012 A 
ATOM      8  C   UNL     1       4.634   2.810  -4.818  0.00  0.00    +0.115 A 
ATOM      9  N   UNL     1       3.986   1.868  -4.162  0.00  0.00    -0.263 NA
ATOM     10  C   UNL     1       2.900   1.303  -4.652  0.00  0.00    +0.111 A 
ATOM     11  C   UNL     1       2.399   1.683  -5.883  0.00  0.00    +0.020 A 
ATOM     12  C   UNL     1       3.051   2.675  -6.600  0.00  0.00    +0.008 A 
ENDBRANCH   3   7
TORSDOF 1
ENDMDL
MODEL 3
REMARK VINA RESULT:    -3.823      0.988      1.904
REMARK INTER + INTRA:          -4.267
REMARK INTER:                  -4.058
REMARK INTRA:                  -0.209
REMARK UNBOUND:                -0.220
REMARK  Name = Nicotine.pdb
REMARK  2 active torsions:
REMARK  status: ('A' for Active; 'I' for Inactive)
REMARK    1  A    between atoms: C_3  and  C_6
REMARK    2  A    between atoms: N_4  and  C_12
REMARK                            x       y       z     vdW  Elec       q    Type
REMARK                         _______ _______ _______ _____ _____    ______ ____
ROOT
ATOM      1  C   UNL     1       6.177   6.517  -4.570  0.00  0.00    +0.017 C 
ATOM      2  C   UNL     1       5.500   5.275  -3.932  0.00  0.00    +0.025 C 
ATOM      3  C   UNL     1       5.932   4.126  -4.868  0.00  0.00    +0.088 C 
ATOM      4  N   UNL     1       6.289   4.729  -6.165  0.00  0.00    -0.298 NA
ATOM      5  C   UNL     1       6.073   6.189  -6.080  0.00  0.00    +0.085 C 
ATOM      6  C   UNL     1       7.679   4.422  -6.524  0.00  0.00    +0.105 C 
ENDROOT
BRANCH   3   7
ATOM      7  C   UNL     1       4.793   3.156  -5.048  0.00  0.00    -0.012 A 
ATOM      8  C   UNL     1       4.421   2.315  -4.017  0.00  0.00    +0.115 A 
ATOM      9  N   UNL     1       3.426   1.463  -4.166  0.00  0.00    -0.263 NA
ATOM     10  C   UNL     1       2.750   1.378  -5.295  0.00  0.00    +0.111 A 
ATOM     11  C   UNL     1       3.064   2.188  -6.370  0.00  0.00    +0.020 A 
ATOM     12  C   UNL     1       4.101   3.100  -6.248  0.00  0.00    +0.008 A 
ENDBRANCH   3   7
TORSDOF 1
ENDMDL
MODEL 4
REMARK VINA RESULT:    -3.818      1.457      4.459
REMARK INTER + INTRA:          -4.261
REMARK INTER:                  -4.058
REMARK INTRA:                  -0.202
REMARK UNBOUND:                -0.220
REMARK  Name = Nicotine.pdb
REMARK  2 active torsions:
REMARK  status: ('A' for Active; 'I' for Inactive)
REMARK    1  A    between atoms: C_3  and  C_6
REMARK    2  A    between atoms: N_4  and  C_12
REMARK                            x       y       z     vdW  Elec       q    Type
REMARK                         _______ _______ _______ _____ _____    ______ ____
ROOT
ATOM      1  C   UNL     1       2.247   2.548  -6.478  0.00  0.00    +0.017 C 
ATOM      2  C   UNL     1       3.774   2.351  -6.671  0.00  0.00    +0.025 C 
ATOM      3  C   UNL     1       4.366   2.939  -5.372  0.00  0.00    +0.088 C 
ATOM      4  N   UNL     1       3.366   3.868  -4.817  0.00  0.00    -0.298 NA
ATOM      5  C   UNL     1       2.199   3.901  -5.724  0.00  0.00    +0.085 C 
ATOM      6  C   UNL     1       2.970   3.468  -3.461  0.00  0.00    +0.105 C 
ENDROOT
BRANCH   3   7
ATOM      7  C   UNL     1       5.642   3.679  -5.680  0.00  0.00    -0.012 A 
ATOM      8  C   UNL     1       6.112   3.753  -6.978  0.00  0.00    +0.115 A 
ATOM      9  N   UNL     1       7.227   4.399  -7.256  0.00  0.00    -0.263 NA
ATOM     10  C   UNL     1       7.934   4.997  -6.317  0.00  0.00    +0.111 A 
ATOM     11  C   UNL     1       7.526   4.966  -4.997  0.00  0.00    +0.020 A 
ATOM     12  C   UNL     1       6.356   4.301  -4.667  0.00  0.00    +0.008 A 
ENDBRANCH   3   7
TORSDOF 1
ENDMDL
MODEL 5
REMARK VINA RESULT:    -3.436      1.755      4.610
REMARK INTER + INTRA:          -3.857
REMARK INTER:                  -3.602
REMARK INTRA:                  -0.254
REMARK UNBOUND:                -0.220
REMARK  Name = Nicotine.pdb
REMARK  2 active torsions:
REMARK  status: ('A' for Active; 'I' for Inactive)
REMARK    1  A    between atoms: C_3  and  C_6
REMARK    2  A    between atoms: N_4  and  C_12
REMARK                            x       y       z     vdW  Elec       q    Type
REMARK                         _______ _______ _______ _____ _____    ______ ____
ROOT
ATOM      1  C   UNL     1       2.016   4.798  -4.491  0.00  0.00    +0.017 C 
ATOM      2  C   UNL     1       3.329   5.465  -4.979  0.00  0.00    +0.025 C 
ATOM      3  C   UNL     1       3.816   4.505  -6.085  0.00  0.00    +0.088 C 
ATOM      4  N   UNL     1       3.191   3.194  -5.831  0.00  0.00    -0.298 NA
ATOM      5  C   UNL     1       2.366   3.294  -4.609  0.00  0.00    +0.085 C 
ATOM      6  C   UNL     1       2.383   2.763  -6.980  0.00  0.00    +0.105 C 
ENDROOT
BRANCH   3   7
ATOM      7  C   UNL     1       5.316   4.379  -6.031  0.00  0.00    -0.012 A 
ATOM      8  C   UNL     1       6.040   4.150  -7.186  0.00  0.00    +0.115 A 
ATOM      9  N   UNL     1       7.354   4.039  -7.148  0.00  0.00    -0.263 NA
ATOM     10  C   UNL     1       8.025   4.139  -6.018  0.00  0.00    +0.111 A 
ATOM     11  C   UNL     1       7.369   4.368  -4.823  0.00  0.00    +0.020 A 
ATOM     12  C   UNL     1       5.988   4.496  -4.825  0.00  0.00    +0.008 A 
ENDBRANCH   3   7
TORSDOF 1
ENDMDL
MODEL 6
REMARK VINA RESULT:    -3.420      3.146      5.289
REMARK INTER + INTRA:          -3.840
REMARK INTER:                  -3.654
REMARK INTRA:                  -0.185
REMARK UNBOUND:                -0.220
REMARK  Name = Nicotine.pdb
REMARK  2 active torsions:
REMARK  status: ('A' for Active; 'I' for Inactive)
REMARK    1  A    between atoms: C_3  and  C_6
REMARK    2  A    between atoms: N_4  and  C_12
REMARK                            x       y       z     vdW  Elec       q    Type
REMARK                         _______ _______ _______ _____ _____    ______ ____
ROOT
ATOM      1  C   UNL     1       0.730   5.066  -1.878  0.00  0.00    +0.017 C 
ATOM      2  C   UNL     1       1.337   5.119  -3.305  0.00  0.00    +0.025 C 
ATOM      3  C   UNL     1       0.887   3.779  -3.924  0.00  0.00    +0.088 C 
ATOM      4  N   UNL     1       0.594   2.860  -2.809  0.00  0.00    -0.298 NA
ATOM      5  C   UNL     1       0.866   3.561  -1.536  0.00  0.00    +0.085 C 
ATOM      6  C   UNL     1      -0.796   2.389  -2.865  0.00  0.00    +0.105 C 
ENDROOT
BRANCH   3   7
ATOM      7  C   UNL     1       1.990   3.213  -4.780  0.00  0.00    -0.012 A 
ATOM      8  C   UNL     1       2.864   2.275  -4.264  0.00  0.00    +0.115 A 
ATOM      9  N   UNL     1       3.832   1.775  -5.007  0.00  0.00    -0.263 NA
ATOM     10  C   UNL     1       4.007   2.146  -6.260  0.00  0.00    +0.111 A 
ATOM     11  C   UNL     1       3.171   3.080  -6.845  0.00  0.00    +0.020 A 
ATOM     12  C   UNL     1       2.139   3.623  -6.096  0.00  0.00    +0.008 A 
ENDBRANCH   3   7
TORSDOF 1
ENDMDL
MODEL 7
REMARK VINA RESULT:    -3.271      2.204      3.685
REMARK INTER + INTRA:          -3.682
REMARK INTER:                  -3.483
REMARK INTRA:                  -0.198
REMARK UNBOUND:                -0.220
REMARK  Name = Nicotine.pdb
REMARK  2 active torsions:
REMARK  status: ('A' for Active; 'I' for Inactive)
REMARK    1  A    between atoms: C_3  and  C_6
REMARK    2  A    between atoms: N_4  and  C_12
REMARK                            x       y       z     vdW  Elec       q    Type
REMARK                         _______ _______ _______ _____ _____    ______ ____
ROOT
ATOM      1  C   UNL     1       4.444   4.076  -0.892  0.00  0.00    +0.017 C 
ATOM      2  C   UNL     1       3.551   3.394  -1.962  0.00  0.00    +0.025 C 
ATOM      3  C   UNL     1       4.563   2.569  -2.785  0.00  0.00    +0.088 C 
ATOM      4  N   UNL     1       5.890   3.179  -2.582  0.00  0.00    -0.298 NA
ATOM      5  C   UNL     1       5.739   4.352  -1.696  0.00  0.00    +0.085 C 
ATOM      6  C   UNL     1       6.835   2.208  -2.015  0.00  0.00    +0.105 C 
ENDROOT
BRANCH   3   7
ATOM      7  C   UNL     1       4.194   2.614  -4.245  0.00  0.00    -0.012 A 
ATOM      8  C   UNL     1       4.901   3.418  -5.120  0.00  0.00    +0.115 A 
ATOM      9  N   UNL     1       4.585   3.463  -6.400  0.00  0.00    -0.263 NA
ATOM     10  C   UNL     1       3.591   2.751  -6.894  0.00  0.00    +0.111 A 
ATOM     11  C   UNL     1       2.840   1.924  -6.079  0.00  0.00    +0.020 A 
ATOM     12  C   UNL     1       3.146   1.847  -4.729  0.00  0.00    +0.008 A 
ENDBRANCH   3   7
TORSDOF 1
ENDMDL
MODEL 8
REMARK VINA RESULT:    -3.203      8.893     10.559
REMARK INTER + INTRA:          -3.609
REMARK INTER:                  -3.394
REMARK INTRA:                  -0.216
REMARK UNBOUND:                -0.220
REMARK  Name = Nicotine.pdb
REMARK  2 active torsions:
REMARK  status: ('A' for Active; 'I' for Inactive)
REMARK    1  A    between atoms: C_3  and  C_6
REMARK    2  A    between atoms: N_4  and  C_12
REMARK                            x       y       z     vdW  Elec       q    Type
REMARK                         _______ _______ _______ _____ _____    ______ ____
ROOT
ATOM      1  C   UNL     1      -3.293  -4.255  -2.751  0.00  0.00    +0.017 C 
ATOM      2  C   UNL     1      -2.457  -3.711  -1.564  0.00  0.00    +0.025 C 
ATOM      3  C   UNL     1      -1.256  -3.040  -2.264  0.00  0.00    +0.088 C 
ATOM      4  N   UNL     1      -1.134  -3.648  -3.601  0.00  0.00    -0.298 NA
ATOM      5  C   UNL     1      -2.185  -4.678  -3.747  0.00  0.00    +0.085 C 
ATOM      6  C   UNL     1      -1.241  -2.631  -4.654  0.00  0.00    +0.105 C 
ENDROOT
BRANCH   3   7
ATOM      7  C   UNL     1       0.002  -3.285  -1.471  0.00  0.00    -0.012 A 
ATOM      8  C   UNL     1       1.216  -3.435  -2.114  0.00  0.00    +0.115 A 
ATOM      9  N   UNL     1       2.321  -3.649  -1.428  0.00  0.00    -0.263 NA
ATOM     10  C   UNL     1       2.315  -3.729  -0.112  0.00  0.00    +0.111 A 
ATOM     11  C   UNL     1       1.139  -3.588   0.601  0.00  0.00    +0.020 A 
ATOM     12  C   UNL     1      -0.043  -3.357  -0.087  0.00  0.00    +0.008 A 
ENDBRANCH   3   7
TORSDOF 1
ENDMDL
MODEL 9
REMARK VINA RESULT:    -3.094      8.707     10.277
REMARK INTER + INTRA:          -3.494
REMARK INTER:                  -3.285
REMARK INTRA:                  -0.209
REMARK UNBOUND:                -0.220
REMARK  Name = Nicotine.pdb
REMARK  2 active torsions:
REMARK  status: ('A' for Active; 'I' for Inactive)
REMARK    1  A    between atoms: C_3  and  C_6
REMARK    2  A    between atoms: N_4  and  C_12
REMARK                            x       y       z     vdW  Elec       q    Type
REMARK                         _______ _______ _______ _____ _____    ______ ____
ROOT
ATOM      1  C   UNL     1      -0.581  -4.615   1.074  0.00  0.00    +0.017 C 
ATOM      2  C   UNL     1      -0.910  -4.992  -0.394  0.00  0.00    +0.025 C 
ATOM      3  C   UNL     1       0.271  -4.385  -1.181  0.00  0.00    +0.088 C 
ATOM      4  N   UNL     1       0.847  -3.315  -0.347  0.00  0.00    -0.298 NA
ATOM      5  C   UNL     1       0.063  -3.217   0.902  0.00  0.00    +0.085 C 
ATOM      6  C   UNL     1       2.264  -3.575  -0.061  0.00  0.00    +0.105 C 
ENDROOT
BRANCH   3   7
ATOM      7  C   UNL     1      -0.222  -3.812  -2.485  0.00  0.00    -0.012 A 
ATOM      8  C   UNL     1      -0.625  -4.649  -3.508  0.00  0.00    +0.115 A 
ATOM      9  N   UNL     1      -1.057  -4.156  -4.652  0.00  0.00    -0.263 NA
ATOM     10  C   UNL     1      -1.123  -2.856  -4.866  0.00  0.00    +0.111 A 
ATOM     11  C   UNL     1      -0.738  -1.958  -3.888  0.00  0.00    +0.020 A 
ATOM     12  C   UNL     1      -0.283  -2.439  -2.671  0.00  0.00    +0.008 A 
ENDBRANCH   3   7
TORSDOF 1
ENDMDL
MODEL 10
REMARK VINA RESULT:    -3.087      2.092      3.037
REMARK INTER + INTRA:          -3.487
REMARK INTER:                  -3.264
REMARK INTRA:                  -0.224
REMARK UNBOUND:                -0.220
REMARK  Name = Nicotine.pdb
REMARK  2 active torsions:
REMARK  status: ('A' for Active; 'I' for Inactive)
REMARK    1  A    between atoms: C_3  and  C_6
REMARK    2  A    between atoms: N_4  and  C_12
REMARK                            x       y       z     vdW  Elec       q    Type
REMARK                         _______ _______ _______ _____ _____    ______ ____
ROOT
ATOM      1  C   UNL     1       6.802   4.019  -2.369  0.00  0.00    +0.017 C 
ATOM      2  C   UNL     1       6.080   4.377  -3.694  0.00  0.00    +0.025 C 
ATOM      3  C   UNL     1       4.604   4.052  -3.384  0.00  0.00    +0.088 C 
ATOM      4  N   UNL     1       4.593   3.089  -2.268  0.00  0.00    -0.298 NA
ATOM      5  C   UNL     1       5.991   2.787  -1.894  0.00  0.00    +0.085 C 
ATOM      6  C   UNL     1       3.843   3.619  -1.122  0.00  0.00    +0.105 C 
ENDROOT
BRANCH   3   7
ATOM      7  C   UNL     1       3.948   3.442  -4.595  0.00  0.00    -0.012 A 
ATOM      8  C   UNL     1       3.355   2.196  -4.517  0.00  0.00    +0.115 A 
ATOM      9  N   UNL     1       2.779   1.655  -5.572  0.00  0.00    -0.263 NA
ATOM     10  C   UNL     1       2.744   2.274  -6.736  0.00  0.00    +0.111 A 
ATOM     11  C   UNL     1       3.315   3.523  -6.891  0.00  0.00    +0.020 A 
ATOM     12  C   UNL     1       3.925   4.126  -5.802  0.00  0.00    +0.008 A 
ENDBRANCH   3   7
TORSDOF 1
ENDMDL
