MODEL 1
REMARK VINA RESULT:    -4.173      0.000      0.000
REMARK INTER + INTRA:          -4.633
REMARK INTER:                  -4.417
REMARK INTRA:                  -0.216
REMARK UNBOUND:                -0.216
REMARK  Name = Nicotine.pdb
REMARK  2 active torsions:
REMARK  status: ('A' for Active; 'I' for Inactive)
REMARK    1  A    between atoms: C_3  and  C_6
REMARK    2  A    between atoms: N_4  and  C_12
REMARK                            x       y       z     vdW  Elec       q    Type
REMARK                         _______ _______ _______ _____ _____    ______ ____
ROOT
ATOM      1  C   UNL     1       5.857   3.640   0.755  0.00  0.00    +0.017 C 
ATOM      2  C   UNL     1       6.814   2.940   1.756  0.00  0.00    +0.025 C 
ATOM      3  C   UNL     1       7.739   2.118   0.834  0.00  0.00    +0.088 C 
ATOM      4  N   UNL     1       7.021   1.914  -0.437  0.00  0.00    -0.298 NA
ATOM      5  C   UNL     1       5.690   2.550  -0.333  0.00  0.00    +0.085 C 
ATOM      6  C   UNL     1       7.781   2.466  -1.566  0.00  0.00    +0.105 C 
ENDROOT
BRANCH   3   7
ATOM      7  C   UNL     1       8.045   0.786   1.470  0.00  0.00    -0.012 A 
ATOM      8  C   UNL     1       8.172  -0.348   0.691  0.00  0.00    +0.115 A 
ATOM      9  N   UNL     1       8.440  -1.517   1.240  0.00  0.00    -0.263 NA
ATOM     10  C   UNL     1       8.596  -1.652   2.542  0.00  0.00    +0.111 A 
ATOM     11  C   UNL     1       8.483  -0.562   3.385  0.00  0.00    +0.020 A 
ATOM     12  C   UNL     1       8.208   0.685   2.843  0.00  0.00    +0.008 A 
ENDBRANCH   3   7
TORSDOF 1
ENDMDL
MODEL 2
REMARK VINA RESULT:    -4.042      1.782      3.222
REMARK INTER + INTRA:          -4.495
REMARK INTER:                  -4.279
REMARK INTRA:                  -0.216
REMARK UNBOUND:                -0.216
REMARK  Name = Nicotine.pdb
REMARK  2 active torsions:
REMARK  status: ('A' for Active; 'I' for Inactive)
REMARK    1  A    between atoms: C_3  and  C_6
REMARK    2  A    between atoms: N_4  and  C_12
REMARK                            x       y       z     vdW  Elec       q    Type
REMARK                         _______ _______ _______ _____ _____    ______ ____
ROOT
ATOM      1  C   UNL     1       9.487  -0.249  -1.163  0.00  0.00    +0.017 C 
ATOM      2  C   UNL     1       9.186  -1.161   0.056  0.00  0.00    +0.025 C 
ATOM      3  C   UNL     1       8.111  -0.366   0.827  0.00  0.00    +0.088 C 
ATOM      4  N   UNL     1       8.240   1.046   0.425  0.00  0.00    -0.298 NA
ATOM      5  C   UNL     1       9.357   1.162  -0.536  0.00  0.00    +0.085 C 
ATOM      6  C   UNL     1       6.988   1.544  -0.159  0.00  0.00    +0.105 C 
ENDROOT
BRANCH   3   7
ATOM      7  C   UNL     1       8.340  -0.501   2.310  0.00  0.00    -0.012 A 
ATOM      8  C   UNL     1       8.140   0.579   3.150  0.00  0.00    +0.115 A 
ATOM      9  N   UNL     1       8.338   0.469   4.449  0.00  0.00    -0.263 NA
ATOM     10  C   UNL     1       8.731  -0.664   4.997  0.00  0.00    +0.111 A 
ATOM     11  C   UNL     1       8.951  -1.787   4.221  0.00  0.00    +0.020 A 
ATOM     12  C   UNL     1       8.748  -1.711   2.851  0.00  0.00    +0.008 A 
ENDBRANCH   3   7
TORSDOF 1
ENDMDL
MODEL 3
REMARK VINA RESULT:    -4.028      1.079      2.042
REMARK INTER + INTRA:          -4.479
REMARK INTER:                  -4.267
REMARK INTRA:                  -0.213
REMARK UNBOUND:                -0.216
REMARK  Name = Nicotine.pdb
REMARK  2 active torsions:
REMARK  status: ('A' for Active; 'I' for Inactive)
REMARK    1  A    between atoms: C_3  and  C_6
REMARK    2  A    between atoms: N_4  and  C_12
REMARK                            x       y       z     vdW  Elec       q    Type
REMARK                         _______ _______ _______ _____ _____    ______ ____
ROOT
ATOM      1  C   UNL     1       8.678   2.435  -1.497  0.00  0.00    +0.017 C 
ATOM      2  C   UNL     1       8.699   0.976  -0.971  0.00  0.00    +0.025 C 
ATOM      3  C   UNL     1       7.573   0.972   0.085  0.00  0.00    +0.088 C 
ATOM      4  N   UNL     1       7.369   2.368   0.512  0.00  0.00    -0.298 NA
ATOM      5  C   UNL     1       8.332   3.226  -0.211  0.00  0.00    +0.085 C 
ATOM      6  C   UNL     1       5.988   2.799   0.263  0.00  0.00    +0.105 C 
ENDROOT
BRANCH   3   7
ATOM      7  C   UNL     1       7.980   0.127   1.265  0.00  0.00    -0.012 A 
ATOM      8  C   UNL     1       8.313  -1.203   1.091  0.00  0.00    +0.115 A 
ATOM      9  N   UNL     1       8.670  -1.949   2.118  0.00  0.00    -0.263 NA
ATOM     10  C   UNL     1       8.724  -1.463   3.342  0.00  0.00    +0.111 A 
ATOM     11  C   UNL     1       8.406  -0.141   3.593  0.00  0.00    +0.020 A 
ATOM     12  C   UNL     1       8.031   0.675   2.537  0.00  0.00    +0.008 A 
ENDBRANCH   3   7
TORSDOF 1
ENDMDL
MODEL 4
REMARK VINA RESULT:    -3.830      1.261      4.464
REMARK INTER + INTRA:          -4.270
REMARK INTER:                  -4.071
REMARK INTRA:                  -0.199
REMARK UNBOUND:                -0.216
REMARK  Name = Nicotine.pdb
REMARK  2 active torsions:
REMARK  status: ('A' for Active; 'I' for Inactive)
REMARK    1  A    between atoms: C_3  and  C_6
REMARK    2  A    between atoms: N_4  and  C_12
REMARK                            x       y       z     vdW  Elec       q    Type
REMARK                         _______ _______ _______ _____ _____    ______ ____
ROOT
ATOM      1  C   UNL     1       8.700  -1.605   2.576  0.00  0.00    +0.017 C 
ATOM      2  C   UNL     1       8.198  -0.860   1.311  0.00  0.00    +0.025 C 
ATOM      3  C   UNL     1       8.679   0.588   1.547  0.00  0.00    +0.088 C 
ATOM      4  N   UNL     1       8.883   0.749   2.998  0.00  0.00    -0.298 NA
ATOM      5  C   UNL     1       8.527  -0.520   3.668  0.00  0.00    +0.085 C 
ATOM      6  C   UNL     1      10.269   1.131   3.297  0.00  0.00    +0.105 C 
ENDROOT
BRANCH   3   7
ATOM      7  C   UNL     1       7.635   1.561   1.064  0.00  0.00    -0.012 A 
ATOM      8  C   UNL     1       7.030   1.382  -0.166  0.00  0.00    +0.115 A 
ATOM      9  N   UNL     1       6.115   2.229  -0.597  0.00  0.00    -0.263 NA
ATOM     10  C   UNL     1       5.743   3.271   0.120  0.00  0.00    +0.111 A 
ATOM     11  C   UNL     1       6.304   3.514   1.360  0.00  0.00    +0.020 A 
ATOM     12  C   UNL     1       7.266   2.643   1.848  0.00  0.00    +0.008 A 
ENDBRANCH   3   7
TORSDOF 1
ENDMDL
MODEL 5
REMARK VINA RESULT:    -3.826      1.381      2.202
REMARK INTER + INTRA:          -4.266
REMARK INTER:                  -4.015
REMARK INTRA:                  -0.252
REMARK UNBOUND:                -0.216
REMARK  Name = Nicotine.pdb
REMARK  2 active torsions:
REMARK  status: ('A' for Active; 'I' for Inactive)
REMARK    1  A    between atoms: C_3  and  C_6
REMARK    2  A    between atoms: N_4  and  C_12
REMARK                            x       y       z     vdW  Elec       q    Type
REMARK                         _______ _______ _______ _____ _____    ______ ____
ROOT
ATOM      1  C   UNL     1       7.043   2.632  -1.266  0.00  0.00    +0.017 C 
ATOM      2  C   UNL     1       6.599   1.637  -0.161  0.00  0.00    +0.025 C 
ATOM      3  C   UNL     1       7.573   1.947   0.996  0.00  0.00    +0.088 C 
ATOM      4  N   UNL     1       8.761   2.590   0.407  0.00  0.00    -0.298 NA
ATOM      5  C   UNL     1       8.578   2.667  -1.058  0.00  0.00    +0.085 C 
ATOM      6  C   UNL     1       8.979   3.923   0.982  0.00  0.00    +0.105 C 
ENDROOT
BRANCH   3   7
ATOM      7  C   UNL     1       7.969   0.669   1.689  0.00  0.00    -0.012 A 
ATOM      8  C   UNL     1       8.151   0.644   3.058  0.00  0.00    +0.115 A 
ATOM      9  N   UNL     1       8.498  -0.470   3.673  0.00  0.00    -0.263 NA
ATOM     10  C   UNL     1       8.684  -1.596   3.013  0.00  0.00    +0.111 A 
ATOM     11  C   UNL     1       8.520  -1.648   1.641  0.00  0.00    +0.020 A 
ATOM     12  C   UNL     1       8.150  -0.497   0.962  0.00  0.00    +0.008 A 
ENDBRANCH   3   7
TORSDOF 1
ENDMDL
MODEL 6
REMARK VINA RESULT:    -3.631      1.847      2.449
REMARK INTER + INTRA:          -4.060
REMARK INTER:                  -3.845
REMARK INTRA:                  -0.215
REMARK UNBOUND:                -0.216
REMARK  Name = Nicotine.pdb
REMARK  2 active torsions:
REMARK  status: ('A' for Active; 'I' for Inactive)
REMARK    1  A    between atoms: C_3  and  C_6
REMARK    2  A    between atoms: N_4  and  C_12
REMARK                            x       y       z     vdW  Elec       q    Type
REMARK                         _______ _______ _______ _____ _____    ______ ____
ROOT
ATOM      1  C   UNL     1       4.871   4.550   0.811  0.00  0.00    +0.017 C 
ATOM      2  C   UNL     1       5.887   3.514   1.359  0.00  0.00    +0.025 C 
ATOM      3  C   UNL     1       7.068   3.630   0.371  0.00  0.00    +0.088 C 
ATOM      4  N   UNL     1       6.537   4.202  -0.879  0.00  0.00    -0.298 NA
ATOM      5  C   UNL     1       5.083   4.418  -0.718  0.00  0.00    +0.085 C 
ATOM      6  C   UNL     1       7.222   5.455  -1.219  0.00  0.00    +0.105 C 
ENDROOT
BRANCH   3   7
ATOM      7  C   UNL     1       7.651   2.267   0.107  0.00  0.00    -0.012 A 
ATOM      8  C   UNL     1       8.155   1.952  -1.141  0.00  0.00    +0.115 A 
ATOM      9  N   UNL     1       8.667   0.761  -1.381  0.00  0.00    -0.263 NA
ATOM     10  C   UNL     1       8.720  -0.171  -0.450  0.00  0.00    +0.111 A 
ATOM     11  C   UNL     1       8.237   0.071   0.822  0.00  0.00    +0.020 A 
ATOM     12  C   UNL     1       7.695   1.314   1.113  0.00  0.00    +0.008 A 
ENDBRANCH   3   7
TORSDOF 1
ENDMDL
MODEL 7
REMARK VINA RESULT:    -3.610      1.316      4.314
REMARK INTER + INTRA:          -4.038
REMARK INTER:                  -3.782
REMARK INTRA:                  -0.256
REMARK UNBOUND:                -0.216
REMARK  Name = Nicotine.pdb
REMARK  2 active torsions:
REMARK  status: ('A' for Active; 'I' for Inactive)
REMARK    1  A    between atoms: C_3  and  C_6
REMARK    2  A    between atoms: N_4  and  C_12
REMARK                            x       y       z     vdW  Elec       q    Type
REMARK                         _______ _______ _______ _____ _____    ______ ____
ROOT
ATOM      1  C   UNL     1       9.692  -1.587   2.674  0.00  0.00    +0.017 C 
ATOM      2  C   UNL     1       8.362  -0.791   2.610  0.00  0.00    +0.025 C 
ATOM      3  C   UNL     1       8.241  -0.437   1.112  0.00  0.00    +0.088 C 
ATOM      4  N   UNL     1       9.597  -0.501   0.537  0.00  0.00    -0.298 NA
ATOM      5  C   UNL     1      10.548  -0.852   1.613  0.00  0.00    +0.085 C 
ATOM      6  C   UNL     1       9.658  -1.476  -0.559  0.00  0.00    +0.105 C 
ENDROOT
BRANCH   3   7
ATOM      7  C   UNL     1       7.682   0.954   0.957  0.00  0.00    -0.012 A 
ATOM      8  C   UNL     1       7.127   1.354  -0.243  0.00  0.00    +0.115 A 
ATOM      9  N   UNL     1       6.635   2.569  -0.387  0.00  0.00    -0.263 NA
ATOM     10  C   UNL     1       6.653   3.445   0.598  0.00  0.00    +0.111 A 
ATOM     11  C   UNL     1       7.192   3.116   1.828  0.00  0.00    +0.020 A 
ATOM     12  C   UNL     1       7.713   1.846   2.018  0.00  0.00    +0.008 A 
ENDBRANCH   3   7
TORSDOF 1
ENDMDL
MODEL 8
REMARK VINA RESULT:    -3.538      2.442      4.975
REMARK INTER + INTRA:          -3.961
REMARK INTER:                  -3.744
REMARK INTRA:                  -0.217
REMARK UNBOUND:                -0.216
REMARK  Name = Nicotine.pdb
REMARK  2 active torsions:
REMARK  status: ('A' for Active; 'I' for Inactive)
REMARK    1  A    between atoms: C_3  and  C_6
REMARK    2  A    between atoms: N_4  and  C_12
REMARK                            x       y       z     vdW  Elec       q    Type
REMARK                         _______ _______ _______ _____ _____    ______ ____
ROOT
ATOM      1  C   UNL     1       9.434   1.445   6.123  0.00  0.00    +0.017 C 
ATOM      2  C   UNL     1       8.484   1.360   4.900  0.00  0.00    +0.025 C 
ATOM      3  C   UNL     1       8.391  -0.158   4.637  0.00  0.00    +0.088 C 
ATOM      4  N   UNL     1       9.585  -0.779   5.238  0.00  0.00    -0.298 NA
ATOM      5  C   UNL     1      10.419   0.285   5.835  0.00  0.00    +0.085 C 
ATOM      6  C   UNL     1       9.208  -1.781   6.244  0.00  0.00    +0.105 C 
ENDROOT
BRANCH   3   7
ATOM      7  C   UNL     1       8.367  -0.421   3.153  0.00  0.00    -0.012 A 
ATOM      8  C   UNL     1       8.723  -1.661   2.657  0.00  0.00    +0.115 A 
ATOM      9  N   UNL     1       8.704  -1.899   1.360  0.00  0.00    -0.263 NA
ATOM     10  C   UNL     1       8.349  -0.974   0.490  0.00  0.00    +0.111 A 
ATOM     11  C   UNL     1       7.980   0.289   0.912  0.00  0.00    +0.020 A 
ATOM     12  C   UNL     1       7.982   0.575   2.269  0.00  0.00    +0.008 A 
ENDBRANCH   3   7
TORSDOF 1
ENDMDL
MODEL 9
REMARK VINA RESULT:    -3.486      1.944      4.448
REMARK INTER + INTRA:          -3.906
REMARK INTER:                  -3.664
REMARK INTRA:                  -0.241
REMARK UNBOUND:                -0.216
REMARK  Name = Nicotine.pdb
REMARK  2 active torsions:
REMARK  status: ('A' for Active; 'I' for Inactive)
REMARK    1  A    between atoms: C_3  and  C_6
REMARK    2  A    between atoms: N_4  and  C_12
REMARK                            x       y       z     vdW  Elec       q    Type
REMARK                         _______ _______ _______ _____ _____    ______ ____
ROOT
ATOM      1  C   UNL     1       9.040  -0.156   0.819  0.00  0.00    +0.017 C 
ATOM      2  C   UNL     1       7.558   0.250   0.604  0.00  0.00    +0.025 C 
ATOM      3  C   UNL     1       7.651   1.341  -0.484  0.00  0.00    +0.088 C 
ATOM      4  N   UNL     1       9.020   1.885  -0.440  0.00  0.00    -0.298 NA
ATOM      5  C   UNL     1       9.765   1.201   0.638  0.00  0.00    +0.085 C 
ATOM      6  C   UNL     1       9.695   1.720  -1.734  0.00  0.00    +0.105 C 
ENDROOT
BRANCH   3   7
ATOM      7  C   UNL     1       6.653   2.433  -0.201  0.00  0.00    -0.012 A 
ATOM      8  C   UNL     1       5.864   2.939  -1.216  0.00  0.00    +0.115 A 
ATOM      9  N   UNL     1       4.988   3.896  -0.977  0.00  0.00    -0.263 NA
ATOM     10  C   UNL     1       4.830   4.405   0.229  0.00  0.00    +0.111 A 
ATOM     11  C   UNL     1       5.585   3.950   1.294  0.00  0.00    +0.020 A 
ATOM     12  C   UNL     1       6.512   2.941   1.082  0.00  0.00    +0.008 A 
ENDBRANCH   3   7
TORSDOF 1
ENDMDL
MODEL 10
REMARK VINA RESULT:    -3.236      1.779      4.416
REMARK INTER + INTRA:          -3.642
REMARK INTER:                  -3.420
REMARK INTRA:                  -0.222
REMARK UNBOUND:                -0.216
REMARK  Name = Nicotine.pdb
REMARK  2 active torsions:
REMARK  status: ('A' for Active; 'I' for Inactive)
REMARK    1  A    between atoms: C_3  and  C_6
REMARK    2  A    between atoms: N_4  and  C_12
REMARK                            x       y       z     vdW  Elec       q    Type
REMARK                         _______ _______ _______ _____ _____    ______ ____
ROOT
ATOM      1  C   UNL     1       9.024   1.741   2.980  0.00  0.00    +0.017 C 
ATOM      2  C   UNL     1       7.586   2.009   2.463  0.00  0.00    +0.025 C 
ATOM      3  C   UNL     1       7.622   1.444   1.028  0.00  0.00    +0.088 C 
ATOM      4  N   UNL     1       9.033   1.418   0.603  0.00  0.00    -0.298 NA
ATOM      5  C   UNL     1       9.864   1.964   1.698  0.00  0.00    +0.085 C 
ATOM      6  C   UNL     1       9.453   0.056   0.252  0.00  0.00    +0.105 C 
ENDROOT
BRANCH   3   7
ATOM      7  C   UNL     1       6.824   2.331   0.107  0.00  0.00    -0.012 A 
ATOM      8  C   UNL     1       6.959   2.217  -1.263  0.00  0.00    +0.115 A 
ATOM      9  N   UNL     1       6.264   2.989  -2.076  0.00  0.00    -0.263 NA
ATOM     10  C   UNL     1       5.421   3.894  -1.620  0.00  0.00    +0.111 A 
ATOM     11  C   UNL     1       5.233   4.065  -0.261  0.00  0.00    +0.020 A 
ATOM     12  C   UNL     1       5.942   3.268   0.624  0.00  0.00    +0.008 A 
ENDBRANCH   3   7
TORSDOF 1
ENDMDL
