MODEL 1
REMARK VINA RESULT:     7.881      0.000      0.000
REMARK INTER + INTRA:           8.121
REMARK INTER:                   8.342
REMARK INTRA:                  -0.221
REMARK UNBOUND:                -0.221
REMARK  Name = Nicotine.pdb
REMARK  2 active torsions:
REMARK  status: ('A' for Active; 'I' for Inactive)
REMARK    1  A    between atoms: C_3  and  C_6
REMARK    2  A    between atoms: N_4  and  C_12
REMARK                            x       y       z     vdW  Elec       q    Type
REMARK                         _______ _______ _______ _____ _____    ______ ____
ROOT
ATOM      1  C   UNL     1       4.075   4.754   5.152  0.00  0.00    +0.017 C 
ATOM      2  C   UNL     1       5.076   5.779   5.745  0.00  0.00    +0.025 C 
ATOM      3  C   UNL     1       5.748   6.374   4.489  0.00  0.00    +0.088 C 
ATOM      4  N   UNL     1       5.581   5.396   3.399  0.00  0.00    -0.298 NA
ATOM      5  C   UNL     1       4.862   4.218   3.929  0.00  0.00    +0.085 C 
ATOM      6  C   UNL     1       4.859   5.989   2.266  0.00  0.00    +0.105 C 
ENDROOT
BRANCH   3   7
ATOM      7  C   UNL     1       7.214   6.605   4.752  0.00  0.00    -0.012 A 
ATOM      8  C   UNL     1       8.088   6.815   3.703  0.00  0.00    +0.115 A 
ATOM      9  N   UNL     1       9.372   7.017   3.925  0.00  0.00    -0.263 NA
ATOM     10  C   UNL     1       9.872   7.027   5.145  0.00  0.00    +0.111 A 
ATOM     11  C   UNL     1       9.058   6.825   6.244  0.00  0.00    +0.020 A 
ATOM     12  C   UNL     1       7.702   6.614   6.050  0.00  0.00    +0.008 A 
ENDBRANCH   3   7
TORSDOF 1
ENDMDL
