MODEL 1
REMARK VINA RESULT:    -3.272      0.000      0.000
REMARK INTER + INTRA:          -3.719
REMARK INTER:                  -3.464
REMARK INTRA:                  -0.256
REMARK UNBOUND:                -0.256
REMARK  Name = Nicotine.pdb
REMARK  2 active torsions:
REMARK  status: ('A' for Active; 'I' for Inactive)
REMARK    1  A    between atoms: C_3  and  C_6
REMARK    2  A    between atoms: N_4  and  C_12
REMARK                            x       y       z     vdW  Elec       q    Type
REMARK                         _______ _______ _______ _____ _____    ______ ____
ROOT
ATOM      1  C   UNL     1       5.318   7.028   0.245  0.00  0.00    +0.017 C 
ATOM      2  C   UNL     1       5.507   6.599   1.724  0.00  0.00    +0.025 C 
ATOM      3  C   UNL     1       6.871   5.878   1.704  0.00  0.00    +0.088 C 
ATOM      4  N   UNL     1       7.115   5.441   0.318  0.00  0.00    -0.298 NA
ATOM      5  C   UNL     1       5.956   5.836  -0.511  0.00  0.00    +0.085 C 
ATOM      6  C   UNL     1       8.359   6.020  -0.206  0.00  0.00    +0.105 C 
ENDROOT
BRANCH   3   7
ATOM      7  C   UNL     1       6.833   4.682   2.621  0.00  0.00    -0.012 A 
ATOM      8  C   UNL     1       7.999   4.188   3.175  0.00  0.00    +0.115 A 
ATOM      9  N   UNL     1       7.974   3.143   3.978  0.00  0.00    -0.263 NA
ATOM     10  C   UNL     1       6.847   2.529   4.282  0.00  0.00    +0.111 A 
ATOM     11  C   UNL     1       5.641   2.967   3.766  0.00  0.00    +0.020 A 
ATOM     12  C   UNL     1       5.628   4.067   2.923  0.00  0.00    +0.008 A 
ENDBRANCH   3   7
TORSDOF 1
ENDMDL
MODEL 2
REMARK VINA RESULT:    -3.079      2.028      4.903
REMARK INTER + INTRA:          -3.514
REMARK INTER:                  -3.291
REMARK INTRA:                  -0.223
REMARK UNBOUND:                -0.256
REMARK  Name = Nicotine.pdb
REMARK  2 active torsions:
REMARK  status: ('A' for Active; 'I' for Inactive)
REMARK    1  A    between atoms: C_3  and  C_6
REMARK    2  A    between atoms: N_4  and  C_12
REMARK                            x       y       z     vdW  Elec       q    Type
REMARK                         _______ _______ _______ _____ _____    ______ ____
ROOT
ATOM      1  C   UNL     1       7.670   5.424   2.770  0.00  0.00    +0.017 C 
ATOM      2  C   UNL     1       8.449   5.571   1.436  0.00  0.00    +0.025 C 
ATOM      3  C   UNL     1       7.390   6.157   0.479  0.00  0.00    +0.088 C 
ATOM      4  N   UNL     1       6.066   5.817   1.031  0.00  0.00    -0.298 NA
ATOM      5  C   UNL     1       6.259   5.029   2.267  0.00  0.00    +0.085 C 
ATOM      6  C   UNL     1       5.278   7.028   1.296  0.00  0.00    +0.105 C 
ENDROOT
BRANCH   3   7
ATOM      7  C   UNL     1       7.546   5.551  -0.892  0.00  0.00    -0.012 A 
ATOM      8  C   UNL     1       6.494   4.876  -1.482  0.00  0.00    +0.115 A 
ATOM      9  N   UNL     1       6.623   4.343  -2.682  0.00  0.00    -0.263 NA
ATOM     10  C   UNL     1       7.749   4.430  -3.361  0.00  0.00    +0.111 A 
ATOM     11  C   UNL     1       8.844   5.090  -2.835  0.00  0.00    +0.020 A 
ATOM     12  C   UNL     1       8.745   5.668  -1.579  0.00  0.00    +0.008 A 
ENDBRANCH   3   7
TORSDOF 1
ENDMDL
MODEL 3
REMARK VINA RESULT:    -3.047      4.659      6.532
REMARK INTER + INTRA:          -3.481
REMARK INTER:                  -3.268
REMARK INTRA:                  -0.212
REMARK UNBOUND:                -0.256
REMARK  Name = Nicotine.pdb
REMARK  2 active torsions:
REMARK  status: ('A' for Active; 'I' for Inactive)
REMARK    1  A    between atoms: C_3  and  C_6
REMARK    2  A    between atoms: N_4  and  C_12
REMARK                            x       y       z     vdW  Elec       q    Type
REMARK                         _______ _______ _______ _____ _____    ______ ____
ROOT
ATOM      1  C   UNL     1       9.825   2.618  -4.347  0.00  0.00    +0.017 C 
ATOM      2  C   UNL     1       8.309   2.947  -4.338  0.00  0.00    +0.025 C 
ATOM      3  C   UNL     1       8.287   4.489  -4.382  0.00  0.00    +0.088 C 
ATOM      4  N   UNL     1       9.590   4.959  -3.877  0.00  0.00    -0.298 NA
ATOM      5  C   UNL     1      10.402   3.781  -3.502  0.00  0.00    +0.085 C 
ATOM      6  C   UNL     1      10.282   5.776  -4.882  0.00  0.00    +0.105 C 
ENDROOT
BRANCH   3   7
ATOM      7  C   UNL     1       7.178   5.012  -3.506  0.00  0.00    -0.012 A 
ATOM      8  C   UNL     1       6.847   4.358  -2.334  0.00  0.00    +0.115 A 
ATOM      9  N   UNL     1       5.877   4.809  -1.562  0.00  0.00    -0.263 NA
ATOM     10  C   UNL     1       5.190   5.891  -1.871  0.00  0.00    +0.111 A 
ATOM     11  C   UNL     1       5.466   6.597  -3.027  0.00  0.00    +0.020 A 
ATOM     12  C   UNL     1       6.482   6.156  -3.862  0.00  0.00    +0.008 A 
ENDBRANCH   3   7
TORSDOF 1
ENDMDL
MODEL 4
REMARK VINA RESULT:    -3.017      4.374      6.851
REMARK INTER + INTRA:          -3.449
REMARK INTER:                  -3.203
REMARK INTRA:                  -0.246
REMARK UNBOUND:                -0.256
REMARK  Name = Nicotine.pdb
REMARK  2 active torsions:
REMARK  status: ('A' for Active; 'I' for Inactive)
REMARK    1  A    between atoms: C_3  and  C_6
REMARK    2  A    between atoms: N_4  and  C_12
REMARK                            x       y       z     vdW  Elec       q    Type
REMARK                         _______ _______ _______ _____ _____    ______ ____
ROOT
ATOM      1  C   UNL     1       7.760   5.913  -0.882  0.00  0.00    +0.017 C 
ATOM      2  C   UNL     1       8.483   5.614  -2.222  0.00  0.00    +0.025 C 
ATOM      3  C   UNL     1       7.322   5.552  -3.237  0.00  0.00    +0.088 C 
ATOM      4  N   UNL     1       6.093   5.257  -2.477  0.00  0.00    -0.298 NA
ATOM      5  C   UNL     1       6.447   5.109  -1.049  0.00  0.00    +0.085 C 
ATOM      6  C   UNL     1       5.090   6.313  -2.665  0.00  0.00    +0.105 C 
ENDROOT
BRANCH   3   7
ATOM      7  C   UNL     1       7.578   4.461  -4.244  0.00  0.00    -0.012 A 
ATOM      8  C   UNL     1       7.320   4.674  -5.585  0.00  0.00    +0.115 A 
ATOM      9  N   UNL     1       7.542   3.724  -6.473  0.00  0.00    -0.263 NA
ATOM     10  C   UNL     1       8.015   2.544  -6.123  0.00  0.00    +0.111 A 
ATOM     11  C   UNL     1       8.297   2.259  -4.800  0.00  0.00    +0.020 A 
ATOM     12  C   UNL     1       8.081   3.235  -3.839  0.00  0.00    +0.008 A 
ENDBRANCH   3   7
TORSDOF 1
ENDMDL
MODEL 5
REMARK VINA RESULT:    -2.927      4.176      6.224
REMARK INTER + INTRA:          -3.354
REMARK INTER:                  -3.149
REMARK INTRA:                  -0.205
REMARK UNBOUND:                -0.256
REMARK  Name = Nicotine.pdb
REMARK  2 active torsions:
REMARK  status: ('A' for Active; 'I' for Inactive)
REMARK    1  A    between atoms: C_3  and  C_6
REMARK    2  A    between atoms: N_4  and  C_12
REMARK                            x       y       z     vdW  Elec       q    Type
REMARK                         _______ _______ _______ _____ _____    ______ ____
ROOT
ATOM      1  C   UNL     1       7.169   6.037  -0.731  0.00  0.00    +0.017 C 
ATOM      2  C   UNL     1       8.487   5.619  -1.435  0.00  0.00    +0.025 C 
ATOM      3  C   UNL     1       8.049   5.421  -2.902  0.00  0.00    +0.088 C 
ATOM      4  N   UNL     1       6.596   5.175  -2.895  0.00  0.00    -0.298 NA
ATOM      5  C   UNL     1       6.123   5.186  -1.494  0.00  0.00    +0.085 C 
ATOM      6  C   UNL     1       5.887   6.180  -3.699  0.00  0.00    +0.105 C 
ENDROOT
BRANCH   3   7
ATOM      7  C   UNL     1       8.768   4.238  -3.497  0.00  0.00    -0.012 A 
ATOM      8  C   UNL     1      10.142   4.129  -3.389  0.00  0.00    +0.115 A 
ATOM      9  N   UNL     1      10.779   3.096  -3.907  0.00  0.00    -0.263 NA
ATOM     10  C   UNL     1      10.139   2.135  -4.542  0.00  0.00    +0.111 A 
ATOM     11  C   UNL     1       8.765   2.175  -4.689  0.00  0.00    +0.020 A 
ATOM     12  C   UNL     1       8.060   3.243  -4.153  0.00  0.00    +0.008 A 
ENDBRANCH   3   7
TORSDOF 1
ENDMDL
MODEL 6
REMARK VINA RESULT:    -2.885      2.976      5.075
REMARK INTER + INTRA:          -3.310
REMARK INTER:                  -3.112
REMARK INTRA:                  -0.198
REMARK UNBOUND:                -0.256
REMARK  Name = Nicotine.pdb
REMARK  2 active torsions:
REMARK  status: ('A' for Active; 'I' for Inactive)
REMARK    1  A    between atoms: C_3  and  C_6
REMARK    2  A    between atoms: N_4  and  C_12
REMARK                            x       y       z     vdW  Elec       q    Type
REMARK                         _______ _______ _______ _____ _____    ______ ____
ROOT
ATOM      1  C   UNL     1       9.203   3.574  -4.368  0.00  0.00    +0.017 C 
ATOM      2  C   UNL     1       7.956   4.001  -3.551  0.00  0.00    +0.025 C 
ATOM      3  C   UNL     1       8.406   5.325  -2.897  0.00  0.00    +0.088 C 
ATOM      4  N   UNL     1       9.879   5.319  -2.867  0.00  0.00    -0.298 NA
ATOM      5  C   UNL     1      10.357   4.046  -3.448  0.00  0.00    +0.085 C 
ATOM      6  C   UNL     1      10.426   6.469  -3.598  0.00  0.00    +0.105 C 
ENDROOT
BRANCH   3   7
ATOM      7  C   UNL     1       7.864   5.413  -1.494  0.00  0.00    -0.012 A 
ATOM      8  C   UNL     1       6.551   5.071  -1.228  0.00  0.00    +0.115 A 
ATOM      9  N   UNL     1       6.069   5.145  -0.003  0.00  0.00    -0.263 NA
ATOM     10  C   UNL     1       6.811   5.546   1.010  0.00  0.00    +0.111 A 
ATOM     11  C   UNL     1       8.133   5.904   0.822  0.00  0.00    +0.020 A 
ATOM     12  C   UNL     1       8.676   5.833  -0.452  0.00  0.00    +0.008 A 
ENDBRANCH   3   7
TORSDOF 1
ENDMDL
MODEL 7
REMARK VINA RESULT:    -2.878      1.455      4.239
REMARK INTER + INTRA:          -3.302
REMARK INTER:                  -3.116
REMARK INTRA:                  -0.186
REMARK UNBOUND:                -0.256
REMARK  Name = Nicotine.pdb
REMARK  2 active torsions:
REMARK  status: ('A' for Active; 'I' for Inactive)
REMARK    1  A    between atoms: C_3  and  C_6
REMARK    2  A    between atoms: N_4  and  C_12
REMARK                            x       y       z     vdW  Elec       q    Type
REMARK                         _______ _______ _______ _____ _____    ______ ____
ROOT
ATOM      1  C   UNL     1       6.309   5.085   5.221  0.00  0.00    +0.017 C 
ATOM      2  C   UNL     1       6.339   5.948   3.932  0.00  0.00    +0.025 C 
ATOM      3  C   UNL     1       6.086   4.912   2.816  0.00  0.00    +0.088 C 
ATOM      4  N   UNL     1       6.465   3.592   3.350  0.00  0.00    -0.298 NA
ATOM      5  C   UNL     1       6.962   3.768   4.732  0.00  0.00    +0.085 C 
ATOM      6  C   UNL     1       5.328   2.663   3.314  0.00  0.00    +0.105 C 
ENDROOT
BRANCH   3   7
ATOM      7  C   UNL     1       6.929   5.240   1.611  0.00  0.00    -0.012 A 
ATOM      8  C   UNL     1       8.299   5.378   1.734  0.00  0.00    +0.115 A 
ATOM      9  N   UNL     1       9.045   5.665   0.684  0.00  0.00    -0.263 NA
ATOM     10  C   UNL     1       8.521   5.831  -0.514  0.00  0.00    +0.111 A 
ATOM     11  C   UNL     1       7.158   5.709  -0.713  0.00  0.00    +0.020 A 
ATOM     12  C   UNL     1       6.343   5.402   0.365  0.00  0.00    +0.008 A 
ENDBRANCH   3   7
TORSDOF 1
ENDMDL
MODEL 8
REMARK VINA RESULT:    -2.784      1.590      4.451
REMARK INTER + INTRA:          -3.202
REMARK INTER:                  -2.955
REMARK INTRA:                  -0.247
REMARK UNBOUND:                -0.256
REMARK  Name = Nicotine.pdb
REMARK  2 active torsions:
REMARK  status: ('A' for Active; 'I' for Inactive)
REMARK    1  A    between atoms: C_3  and  C_6
REMARK    2  A    between atoms: N_4  and  C_12
REMARK                            x       y       z     vdW  Elec       q    Type
REMARK                         _______ _______ _______ _____ _____    ______ ____
ROOT
ATOM      1  C   UNL     1       5.736   2.905   5.169  0.00  0.00    +0.017 C 
ATOM      2  C   UNL     1       6.313   2.894   3.729  0.00  0.00    +0.025 C 
ATOM      3  C   UNL     1       7.372   4.016   3.771  0.00  0.00    +0.088 C 
ATOM      4  N   UNL     1       7.012   4.915   4.882  0.00  0.00    -0.298 NA
ATOM      5  C   UNL     1       5.769   4.416   5.509  0.00  0.00    +0.085 C 
ATOM      6  C   UNL     1       8.100   5.002   5.864  0.00  0.00    +0.105 C 
ENDROOT
BRANCH   3   7
ATOM      7  C   UNL     1       7.365   4.776   2.471  0.00  0.00    -0.012 A 
ATOM      8  C   UNL     1       8.553   5.165   1.881  0.00  0.00    +0.115 A 
ATOM      9  N   UNL     1       8.556   5.831   0.743  0.00  0.00    -0.263 NA
ATOM     10  C   UNL     1       7.436   6.151   0.125  0.00  0.00    +0.111 A 
ATOM     11  C   UNL     1       6.209   5.796   0.654  0.00  0.00    +0.020 A 
ATOM     12  C   UNL     1       6.167   5.091   1.847  0.00  0.00    +0.008 A 
ENDBRANCH   3   7
TORSDOF 1
ENDMDL
MODEL 9
REMARK VINA RESULT:    -2.754      3.661      5.841
REMARK INTER + INTRA:          -3.171
REMARK INTER:                  -2.916
REMARK INTRA:                  -0.255
REMARK UNBOUND:                -0.256
REMARK  Name = Nicotine.pdb
REMARK  2 active torsions:
REMARK  status: ('A' for Active; 'I' for Inactive)
REMARK    1  A    between atoms: C_3  and  C_6
REMARK    2  A    between atoms: N_4  and  C_12
REMARK                            x       y       z     vdW  Elec       q    Type
REMARK                         _______ _______ _______ _____ _____    ______ ____
ROOT
ATOM      1  C   UNL     1       9.787   4.940  -5.415  0.00  0.00    +0.017 C 
ATOM      2  C   UNL     1       9.497   4.344  -4.012  0.00  0.00    +0.025 C 
ATOM      3  C   UNL     1       7.985   4.597  -3.832  0.00  0.00    +0.088 C 
ATOM      4  N   UNL     1       7.618   5.704  -4.733  0.00  0.00    -0.298 NA
ATOM      5  C   UNL     1       8.834   6.161  -5.439  0.00  0.00    +0.085 C 
ATOM      6  C   UNL     1       6.581   5.286  -5.686  0.00  0.00    +0.105 C 
ENDROOT
BRANCH   3   7
ATOM      7  C   UNL     1       7.695   4.979  -2.404  0.00  0.00    -0.012 A 
ATOM      8  C   UNL     1       6.464   4.699  -1.842  0.00  0.00    +0.115 A 
ATOM      9  N   UNL     1       6.202   5.030  -0.592  0.00  0.00    -0.263 NA
ATOM     10  C   UNL     1       7.094   5.635   0.166  0.00  0.00    +0.111 A 
ATOM     11  C   UNL     1       8.348   5.947  -0.327  0.00  0.00    +0.020 A 
ATOM     12  C   UNL     1       8.661   5.610  -1.635  0.00  0.00    +0.008 A 
ENDBRANCH   3   7
TORSDOF 1
ENDMDL
MODEL 10
REMARK VINA RESULT:    -2.629      1.547      4.665
REMARK INTER + INTRA:          -3.038
REMARK INTER:                  -2.828
REMARK INTRA:                  -0.210
REMARK UNBOUND:                -0.256
REMARK  Name = Nicotine.pdb
REMARK  2 active torsions:
REMARK  status: ('A' for Active; 'I' for Inactive)
REMARK    1  A    between atoms: C_3  and  C_6
REMARK    2  A    between atoms: N_4  and  C_12
REMARK                            x       y       z     vdW  Elec       q    Type
REMARK                         _______ _______ _______ _____ _____    ______ ____
ROOT
ATOM      1  C   UNL     1       5.759   2.868   5.190  0.00  0.00    +0.017 C 
ATOM      2  C   UNL     1       6.252   2.886   3.720  0.00  0.00    +0.025 C 
ATOM      3  C   UNL     1       7.370   3.950   3.742  0.00  0.00    +0.088 C 
ATOM      4  N   UNL     1       7.122   4.821   4.905  0.00  0.00    -0.298 NA
ATOM      5  C   UNL     1       5.892   4.360   5.584  0.00  0.00    +0.085 C 
ATOM      6  C   UNL     1       8.266   4.811   5.825  0.00  0.00    +0.105 C 
ENDROOT
BRANCH   3   7
ATOM      7  C   UNL     1       7.330   4.763   2.474  0.00  0.00    -0.012 A 
ATOM      8  C   UNL     1       6.120   5.109   1.903  0.00  0.00    +0.115 A 
ATOM      9  N   UNL     1       6.076   5.820   0.794  0.00  0.00    -0.263 NA
ATOM     10  C   UNL     1       7.173   6.227   0.187  0.00  0.00    +0.111 A 
ATOM     11  C   UNL     1       8.420   5.919   0.699  0.00  0.00    +0.020 A 
ATOM     12  C   UNL     1       8.506   5.178   1.867  0.00  0.00    +0.008 A 
ENDBRANCH   3   7
TORSDOF 1
ENDMDL
