MODEL 1
REMARK VINA RESULT:    -2.944      0.000      0.000
REMARK INTER + INTRA:          -3.301
REMARK INTER:                  -3.116
REMARK INTRA:                  -0.185
REMARK UNBOUND:                -0.185
REMARK  Name = Nicotine.pdb
REMARK  2 active torsions:
REMARK  status: ('A' for Active; 'I' for Inactive)
REMARK    1  A    between atoms: C_3  and  C_6
REMARK    2  A    between atoms: N_4  and  C_12
REMARK                            x       y       z     vdW  Elec       q    Type
REMARK                         _______ _______ _______ _____ _____    ______ ____
ROOT
ATOM      1  C   UNL     1       5.418  -6.097   5.564  0.00  0.00    +0.017 C 
ATOM      2  C   UNL     1       6.613  -5.354   6.219  0.00  0.00    +0.025 C 
ATOM      3  C   UNL     1       6.813  -4.135   5.293  0.00  0.00    +0.088 C 
ATOM      4  N   UNL     1       6.219  -4.475   3.988  0.00  0.00    -0.298 NA
ATOM      5  C   UNL     1       5.685  -5.852   4.058  0.00  0.00    +0.085 C 
ATOM      6  C   UNL     1       5.164  -3.520   3.624  0.00  0.00    +0.105 C 
ENDROOT
BRANCH   3   7
ATOM      7  C   UNL     1       8.284  -3.852   5.130  0.00  0.00    -0.012 A 
ATOM      8  C   UNL     1       9.197  -4.351   6.039  0.00  0.00    +0.115 A 
ATOM      9  N   UNL     1      10.486  -4.108   5.903  0.00  0.00    -0.263 NA
ATOM     10  C   UNL     1      10.954  -3.384   4.905  0.00  0.00    +0.111 A 
ATOM     11  C   UNL     1      10.100  -2.852   3.957  0.00  0.00    +0.020 A 
ATOM     12  C   UNL     1       8.739  -3.091   4.064  0.00  0.00    +0.008 A 
ENDBRANCH   3   7
TORSDOF 1
ENDMDL
MODEL 2
REMARK VINA RESULT:    -2.895      1.200      4.519
REMARK INTER + INTRA:          -3.249
REMARK INTER:                  -3.030
REMARK INTRA:                  -0.218
REMARK UNBOUND:                -0.185
REMARK  Name = Nicotine.pdb
REMARK  2 active torsions:
REMARK  status: ('A' for Active; 'I' for Inactive)
REMARK    1  A    between atoms: C_3  and  C_6
REMARK    2  A    between atoms: N_4  and  C_12
REMARK                            x       y       z     vdW  Elec       q    Type
REMARK                         _______ _______ _______ _____ _____    ______ ____
ROOT
ATOM      1  C   UNL     1      10.937  -3.129   3.736  0.00  0.00    +0.017 C 
ATOM      2  C   UNL     1       9.466  -2.714   3.997  0.00  0.00    +0.025 C 
ATOM      3  C   UNL     1       9.005  -3.724   5.069  0.00  0.00    +0.088 C 
ATOM      4  N   UNL     1       9.890  -4.898   4.972  0.00  0.00    -0.298 NA
ATOM      5  C   UNL     1      10.857  -4.670   3.877  0.00  0.00    +0.085 C 
ATOM      6  C   UNL     1      10.583  -5.142   6.244  0.00  0.00    +0.105 C 
ENDROOT
BRANCH   3   7
ATOM      7  C   UNL     1       7.578  -4.133   4.808  0.00  0.00    -0.012 A 
ATOM      8  C   UNL     1       7.070  -5.291   5.365  0.00  0.00    +0.115 A 
ATOM      9  N   UNL     1       5.823  -5.656   5.142  0.00  0.00    -0.263 NA
ATOM     10  C   UNL     1       5.016  -4.940   4.385  0.00  0.00    +0.111 A 
ATOM     11  C   UNL     1       5.453  -3.769   3.794  0.00  0.00    +0.020 A 
ATOM     12  C   UNL     1       6.757  -3.351   4.010  0.00  0.00    +0.008 A 
ENDBRANCH   3   7
TORSDOF 1
ENDMDL
MODEL 3
REMARK VINA RESULT:    -2.338      1.265      2.213
REMARK INTER + INTRA:          -2.660
REMARK INTER:                  -2.446
REMARK INTRA:                  -0.214
REMARK UNBOUND:                -0.185
REMARK  Name = Nicotine.pdb
REMARK  2 active torsions:
REMARK  status: ('A' for Active; 'I' for Inactive)
REMARK    1  A    between atoms: C_3  and  C_6
REMARK    2  A    between atoms: N_4  and  C_12
REMARK                            x       y       z     vdW  Elec       q    Type
REMARK                         _______ _______ _______ _____ _____    ______ ____
ROOT
ATOM      1  C   UNL     1       5.072  -3.438   4.374  0.00  0.00    +0.017 C 
ATOM      2  C   UNL     1       6.559  -3.002   4.456  0.00  0.00    +0.025 C 
ATOM      3  C   UNL     1       7.316  -4.254   3.965  0.00  0.00    +0.088 C 
ATOM      4  N   UNL     1       6.422  -5.409   4.160  0.00  0.00    -0.298 NA
ATOM      5  C   UNL     1       5.163  -4.933   4.771  0.00  0.00    +0.085 C 
ATOM      6  C   UNL     1       6.164  -6.097   2.888  0.00  0.00    +0.105 C 
ENDROOT
BRANCH   3   7
ATOM      7  C   UNL     1       8.578  -4.438   4.767  0.00  0.00    -0.012 A 
ATOM      8  C   UNL     1       9.558  -3.464   4.762  0.00  0.00    +0.115 A 
ATOM      9  N   UNL     1      10.665  -3.617   5.462  0.00  0.00    -0.263 NA
ATOM     10  C   UNL     1      10.882  -4.695   6.188  0.00  0.00    +0.111 A 
ATOM     11  C   UNL     1       9.947  -5.712   6.243  0.00  0.00    +0.020 A 
ATOM     12  C   UNL     1       8.768  -5.584   5.525  0.00  0.00    +0.008 A 
ENDBRANCH   3   7
TORSDOF 1
ENDMDL
MODEL 4
REMARK VINA RESULT:    -1.764      1.337      2.277
REMARK INTER + INTRA:          -2.051
REMARK INTER:                  -1.845
REMARK INTRA:                  -0.206
REMARK UNBOUND:                -0.185
REMARK  Name = Nicotine.pdb
REMARK  2 active torsions:
REMARK  status: ('A' for Active; 'I' for Inactive)
REMARK    1  A    between atoms: C_3  and  C_6
REMARK    2  A    between atoms: N_4  and  C_12
REMARK                            x       y       z     vdW  Elec       q    Type
REMARK                         _______ _______ _______ _____ _____    ______ ____
ROOT
ATOM      1  C   UNL     1       4.846  -4.141   3.857  0.00  0.00    +0.017 C 
ATOM      2  C   UNL     1       6.264  -4.280   3.244  0.00  0.00    +0.025 C 
ATOM      3  C   UNL     1       7.044  -5.035   4.342  0.00  0.00    +0.088 C 
ATOM      4  N   UNL     1       6.335  -4.812   5.614  0.00  0.00    -0.298 NA
ATOM      5  C   UNL     1       5.172  -3.935   5.358  0.00  0.00    +0.085 C 
ATOM      6  C   UNL     1       5.914  -6.084   6.214  0.00  0.00    +0.105 C 
ENDROOT
BRANCH   3   7
ATOM      7  C   UNL     1       8.449  -4.498   4.434  0.00  0.00    -0.012 A 
ATOM      8  C   UNL     1       8.683  -3.137   4.368  0.00  0.00    +0.115 A 
ATOM      9  N   UNL     1       9.909  -2.659   4.449  0.00  0.00    -0.263 NA
ATOM     10  C   UNL     1      10.953  -3.450   4.594  0.00  0.00    +0.111 A 
ATOM     11  C   UNL     1      10.797  -4.822   4.668  0.00  0.00    +0.020 A 
ATOM     12  C   UNL     1       9.522  -5.361   4.593  0.00  0.00    +0.008 A 
ENDBRANCH   3   7
TORSDOF 1
ENDMDL
MODEL 5
REMARK VINA RESULT:    -0.252      1.770      2.475
REMARK INTER + INTRA:          -0.451
REMARK INTER:                  -0.197
REMARK INTRA:                  -0.254
REMARK UNBOUND:                -0.185
REMARK  Name = Nicotine.pdb
REMARK  2 active torsions:
REMARK  status: ('A' for Active; 'I' for Inactive)
REMARK    1  A    between atoms: C_3  and  C_6
REMARK    2  A    between atoms: N_4  and  C_12
REMARK                            x       y       z     vdW  Elec       q    Type
REMARK                         _______ _______ _______ _____ _____    ______ ____
ROOT
ATOM      1  C   UNL     1       5.376  -3.281   3.747  0.00  0.00    +0.017 C 
ATOM      2  C   UNL     1       6.143  -4.550   4.202  0.00  0.00    +0.025 C 
ATOM      3  C   UNL     1       7.096  -4.010   5.289  0.00  0.00    +0.088 C 
ATOM      4  N   UNL     1       7.262  -2.565   5.045  0.00  0.00    -0.298 NA
ATOM      5  C   UNL     1       6.478  -2.197   3.847  0.00  0.00    +0.085 C 
ATOM      6  C   UNL     1       6.840  -1.781   6.213  0.00  0.00    +0.105 C 
ENDROOT
BRANCH   3   7
ATOM      7  C   UNL     1       8.430  -4.704   5.193  0.00  0.00    -0.012 A 
ATOM      8  C   UNL     1       9.358  -4.579   6.209  0.00  0.00    +0.115 A 
ATOM      9  N   UNL     1      10.527  -5.184   6.133  0.00  0.00    -0.263 NA
ATOM     10  C   UNL     1      10.858  -5.925   5.094  0.00  0.00    +0.111 A 
ATOM     11  C   UNL     1       9.981  -6.097   4.039  0.00  0.00    +0.020 A 
ATOM     12  C   UNL     1       8.740  -5.481   4.087  0.00  0.00    +0.008 A 
ENDBRANCH   3   7
TORSDOF 1
ENDMDL
