MODEL 1
REMARK VINA RESULT:    -3.679      0.000      0.000
REMARK INTER + INTRA:          -4.102
REMARK INTER:                  -3.894
REMARK INTRA:                  -0.208
REMARK UNBOUND:                -0.208
REMARK  Name = Nicotine.pdb
REMARK  2 active torsions:
REMARK  status: ('A' for Active; 'I' for Inactive)
REMARK    1  A    between atoms: C_3  and  C_6
REMARK    2  A    between atoms: N_4  and  C_12
REMARK                            x       y       z     vdW  Elec       q    Type
REMARK                         _______ _______ _______ _____ _____    ______ ____
ROOT
ATOM      1  C   UNL     1      -4.472   0.299  -4.074  0.00  0.00    +0.017 C 
ATOM      2  C   UNL     1      -4.754   1.777  -4.454  0.00  0.00    +0.025 C 
ATOM      3  C   UNL     1      -4.603   1.776  -5.990  0.00  0.00    +0.088 C 
ATOM      4  N   UNL     1      -3.769   0.614  -6.346  0.00  0.00    -0.298 NA
ATOM      5  C   UNL     1      -3.379  -0.085  -5.103  0.00  0.00    +0.085 C 
ATOM      6  C   UNL     1      -4.485  -0.289  -7.256  0.00  0.00    +0.105 C 
ENDROOT
BRANCH   3   7
ATOM      7  C   UNL     1      -3.933   3.048  -6.440  0.00  0.00    -0.012 A 
ATOM      8  C   UNL     1      -4.630   4.241  -6.449  0.00  0.00    +0.115 A 
ATOM      9  N   UNL     1      -4.051   5.358  -6.842  0.00  0.00    -0.263 NA
ATOM     10  C   UNL     1      -2.794   5.385  -7.238  0.00  0.00    +0.111 A 
ATOM     11  C   UNL     1      -2.032   4.231  -7.255  0.00  0.00    +0.020 A 
ATOM     12  C   UNL     1      -2.606   3.038  -6.844  0.00  0.00    +0.008 A 
ENDBRANCH   3   7
TORSDOF 1
ENDMDL
