MODEL 1
REMARK VINA RESULT:    -2.996      0.000      0.000
REMARK INTER + INTRA:          -3.402
REMARK INTER:                  -3.172
REMARK INTRA:                  -0.230
REMARK UNBOUND:                -0.230
REMARK  Name = Nicotine.pdb
REMARK  2 active torsions:
REMARK  status: ('A' for Active; 'I' for Inactive)
REMARK    1  A    between atoms: C_3  and  C_6
REMARK    2  A    between atoms: N_4  and  C_12
REMARK                            x       y       z     vdW  Elec       q    Type
REMARK                         _______ _______ _______ _____ _____    ______ ____
ROOT
ATOM      1  C   UNL     1       1.436   0.454  -6.021  0.00  0.00    +0.017 C 
ATOM      2  C   UNL     1       2.372  -0.783  -5.976  0.00  0.00    +0.025 C 
ATOM      3  C   UNL     1       1.407  -1.958  -6.240  0.00  0.00    +0.088 C 
ATOM      4  N   UNL     1       0.053  -1.500  -5.881  0.00  0.00    -0.298 NA
ATOM      5  C   UNL     1       0.141  -0.110  -5.385  0.00  0.00    +0.085 C 
ATOM      6  C   UNL     1      -0.857  -1.593  -7.030  0.00  0.00    +0.105 C 
ENDROOT
BRANCH   3   7
ATOM      7  C   UNL     1       1.793  -3.139  -5.388  0.00  0.00    -0.012 A 
ATOM      8  C   UNL     1       0.989  -4.263  -5.346  0.00  0.00    +0.115 A 
ATOM      9  N   UNL     1       1.320  -5.301  -4.603  0.00  0.00    -0.263 NA
ATOM     10  C   UNL     1       2.420  -5.312  -3.877  0.00  0.00    +0.111 A 
ATOM     11  C   UNL     1       3.273  -4.224  -3.869  0.00  0.00    +0.020 A 
ATOM     12  C   UNL     1       2.961  -3.116  -4.642  0.00  0.00    +0.008 A 
ENDBRANCH   3   7
TORSDOF 1
ENDMDL
MODEL 2
REMARK VINA RESULT:    -2.882      1.355      4.664
REMARK INTER + INTRA:          -3.280
REMARK INTER:                  -3.057
REMARK INTRA:                  -0.223
REMARK UNBOUND:                -0.230
REMARK  Name = Nicotine.pdb
REMARK  2 active torsions:
REMARK  status: ('A' for Active; 'I' for Inactive)
REMARK    1  A    between atoms: C_3  and  C_6
REMARK    2  A    between atoms: N_4  and  C_12
REMARK                            x       y       z     vdW  Elec       q    Type
REMARK                         _______ _______ _______ _____ _____    ______ ____
ROOT
ATOM      1  C   UNL     1       1.661  -6.005  -6.547  0.00  0.00    +0.017 C 
ATOM      2  C   UNL     1       1.575  -4.537  -7.043  0.00  0.00    +0.025 C 
ATOM      3  C   UNL     1       1.951  -3.724  -5.786  0.00  0.00    +0.088 C 
ATOM      4  N   UNL     1       1.690  -4.582  -4.616  0.00  0.00    -0.298 NA
ATOM      5  C   UNL     1       1.149  -5.874  -5.091  0.00  0.00    +0.085 C 
ATOM      6  C   UNL     1       2.912  -4.781  -3.826  0.00  0.00    +0.105 C 
ENDROOT
BRANCH   3   7
ATOM      7  C   UNL     1       1.105  -2.480  -5.709  0.00  0.00    -0.012 A 
ATOM      8  C   UNL     1       1.699  -1.234  -5.637  0.00  0.00    +0.115 A 
ATOM      9  N   UNL     1       0.966  -0.140  -5.570  0.00  0.00    -0.263 NA
ATOM     10  C   UNL     1      -0.351  -0.187  -5.567  0.00  0.00    +0.111 A 
ATOM     11  C   UNL     1      -1.016  -1.397  -5.637  0.00  0.00    +0.020 A 
ATOM     12  C   UNL     1      -0.279  -2.569  -5.715  0.00  0.00    +0.008 A 
ENDBRANCH   3   7
TORSDOF 1
ENDMDL
MODEL 3
REMARK VINA RESULT:    -2.756      1.867      3.000
REMARK INTER + INTRA:          -3.147
REMARK INTER:                  -2.946
REMARK INTRA:                  -0.201
REMARK UNBOUND:                -0.230
REMARK  Name = Nicotine.pdb
REMARK  2 active torsions:
REMARK  status: ('A' for Active; 'I' for Inactive)
REMARK    1  A    between atoms: C_3  and  C_6
REMARK    2  A    between atoms: N_4  and  C_12
REMARK                            x       y       z     vdW  Elec       q    Type
REMARK                         _______ _______ _______ _____ _____    ______ ____
ROOT
ATOM      1  C   UNL     1       0.828  -2.112  -6.343  0.00  0.00    +0.017 C 
ATOM      2  C   UNL     1       2.276  -2.181  -5.790  0.00  0.00    +0.025 C 
ATOM      3  C   UNL     1       2.424  -3.665  -5.390  0.00  0.00    +0.088 C 
ATOM      4  N   UNL     1       1.066  -4.200  -5.187  0.00  0.00    -0.298 NA
ATOM      5  C   UNL     1       0.091  -3.113  -5.418  0.00  0.00    +0.085 C 
ATOM      6  C   UNL     1       0.809  -5.337  -6.081  0.00  0.00    +0.105 C 
ENDROOT
BRANCH   3   7
ATOM      7  C   UNL     1       3.216  -3.775  -4.112  0.00  0.00    -0.012 A 
ATOM      8  C   UNL     1       3.702  -2.640  -3.491  0.00  0.00    +0.115 A 
ATOM      9  N   UNL     1       4.395  -2.727  -2.373  0.00  0.00    -0.263 NA
ATOM     10  C   UNL     1       4.652  -3.889  -1.806  0.00  0.00    +0.111 A 
ATOM     11  C   UNL     1       4.198  -5.067  -2.369  0.00  0.00    +0.020 A 
ATOM     12  C   UNL     1       3.461  -5.014  -3.542  0.00  0.00    +0.008 A 
ENDBRANCH   3   7
TORSDOF 1
ENDMDL
MODEL 4
REMARK VINA RESULT:    -2.755      1.602      4.501
REMARK INTER + INTRA:          -3.146
REMARK INTER:                  -2.937
REMARK INTRA:                  -0.209
REMARK UNBOUND:                -0.230
REMARK  Name = Nicotine.pdb
REMARK  2 active torsions:
REMARK  status: ('A' for Active; 'I' for Inactive)
REMARK    1  A    between atoms: C_3  and  C_6
REMARK    2  A    between atoms: N_4  and  C_12
REMARK                            x       y       z     vdW  Elec       q    Type
REMARK                         _______ _______ _______ _____ _____    ______ ____
ROOT
ATOM      1  C   UNL     1       2.589  -5.852  -5.339  0.00  0.00    +0.017 C 
ATOM      2  C   UNL     1       1.972  -4.622  -4.622  0.00  0.00    +0.025 C 
ATOM      3  C   UNL     1       0.771  -4.262  -5.522  0.00  0.00    +0.088 C 
ATOM      4  N   UNL     1       1.040  -4.826  -6.856  0.00  0.00    -0.298 NA
ATOM      5  C   UNL     1       2.359  -5.493  -6.829  0.00  0.00    +0.085 C 
ATOM      6  C   UNL     1      -0.017  -5.764  -7.255  0.00  0.00    +0.105 C 
ENDROOT
BRANCH   3   7
ATOM      7  C   UNL     1       0.631  -2.764  -5.615  0.00  0.00    -0.012 A 
ATOM      8  C   UNL     1       1.752  -1.962  -5.703  0.00  0.00    +0.115 A 
ATOM      9  N   UNL     1       1.638  -0.650  -5.785  0.00  0.00    -0.263 NA
ATOM     10  C   UNL     1       0.462  -0.055  -5.786  0.00  0.00    +0.111 A 
ATOM     11  C   UNL     1      -0.704  -0.793  -5.702  0.00  0.00    +0.020 A 
ATOM     12  C   UNL     1      -0.624  -2.175  -5.619  0.00  0.00    +0.008 A 
ENDBRANCH   3   7
TORSDOF 1
ENDMDL
MODEL 5
REMARK VINA RESULT:    -2.742      1.641      2.099
REMARK INTER + INTRA:          -3.133
REMARK INTER:                  -2.925
REMARK INTRA:                  -0.208
REMARK UNBOUND:                -0.230
REMARK  Name = Nicotine.pdb
REMARK  2 active torsions:
REMARK  status: ('A' for Active; 'I' for Inactive)
REMARK    1  A    between atoms: C_3  and  C_6
REMARK    2  A    between atoms: N_4  and  C_12
REMARK                            x       y       z     vdW  Elec       q    Type
REMARK                         _______ _______ _______ _____ _____    ______ ____
ROOT
ATOM      1  C   UNL     1       1.517   0.710  -6.476  0.00  0.00    +0.017 C 
ATOM      2  C   UNL     1       2.792  -0.097  -6.114  0.00  0.00    +0.025 C 
ATOM      3  C   UNL     1       2.269  -1.546  -6.018  0.00  0.00    +0.088 C 
ATOM      4  N   UNL     1       0.819  -1.472  -5.765  0.00  0.00    -0.298 NA
ATOM      5  C   UNL     1       0.429  -0.049  -5.676  0.00  0.00    +0.085 C 
ATOM      6  C   UNL     1       0.064  -2.160  -6.819  0.00  0.00    +0.105 C 
ENDROOT
BRANCH   3   7
ATOM      7  C   UNL     1       2.953  -2.263  -4.883  0.00  0.00    -0.012 A 
ATOM      8  C   UNL     1       3.817  -1.583  -4.045  0.00  0.00    +0.115 A 
ATOM      9  N   UNL     1       4.419  -2.203  -3.049  0.00  0.00    -0.263 NA
ATOM     10  C   UNL     1       4.226  -3.485  -2.813  0.00  0.00    +0.111 A 
ATOM     11  C   UNL     1       3.376  -4.231  -3.608  0.00  0.00    +0.020 A 
ATOM     12  C   UNL     1       2.720  -3.612  -4.661  0.00  0.00    +0.008 A 
ENDBRANCH   3   7
TORSDOF 1
ENDMDL
MODEL 6
REMARK VINA RESULT:    -2.668      3.200      6.022
REMARK INTER + INTRA:          -3.054
REMARK INTER:                  -2.865
REMARK INTRA:                  -0.189
REMARK UNBOUND:                -0.230
REMARK  Name = Nicotine.pdb
REMARK  2 active torsions:
REMARK  status: ('A' for Active; 'I' for Inactive)
REMARK    1  A    between atoms: C_3  and  C_6
REMARK    2  A    between atoms: N_4  and  C_12
REMARK                            x       y       z     vdW  Elec       q    Type
REMARK                         _______ _______ _______ _____ _____    ______ ____
ROOT
ATOM      1  C   UNL     1       4.876  -5.525  -0.197  0.00  0.00    +0.017 C 
ATOM      2  C   UNL     1       4.474  -5.514  -1.695  0.00  0.00    +0.025 C 
ATOM      3  C   UNL     1       5.243  -4.297  -2.251  0.00  0.00    +0.088 C 
ATOM      4  N   UNL     1       5.541  -3.410  -1.112  0.00  0.00    -0.298 NA
ATOM      5  C   UNL     1       4.971  -4.010   0.113  0.00  0.00    +0.085 C 
ATOM      6  C   UNL     1       6.987  -3.200  -0.972  0.00  0.00    +0.105 C 
ENDROOT
BRANCH   3   7
ATOM      7  C   UNL     1       4.391  -3.570  -3.260  0.00  0.00    -0.012 A 
ATOM      8  C   UNL     1       3.255  -4.165  -3.774  0.00  0.00    +0.115 A 
ATOM      9  N   UNL     1       2.504  -3.535  -4.657  0.00  0.00    -0.263 NA
ATOM     10  C   UNL     1       2.803  -2.324  -5.082  0.00  0.00    +0.111 A 
ATOM     11  C   UNL     1       3.924  -1.665  -4.612  0.00  0.00    +0.020 A 
ATOM     12  C   UNL     1       4.734  -2.293  -3.679  0.00  0.00    +0.008 A 
ENDBRANCH   3   7
TORSDOF 1
ENDMDL
MODEL 7
REMARK VINA RESULT:    -2.648      1.866      4.426
REMARK INTER + INTRA:          -3.032
REMARK INTER:                  -2.796
REMARK INTRA:                  -0.237
REMARK UNBOUND:                -0.230
REMARK  Name = Nicotine.pdb
REMARK  2 active torsions:
REMARK  status: ('A' for Active; 'I' for Inactive)
REMARK    1  A    between atoms: C_3  and  C_6
REMARK    2  A    between atoms: N_4  and  C_12
REMARK                            x       y       z     vdW  Elec       q    Type
REMARK                         _______ _______ _______ _____ _____    ______ ____
ROOT
ATOM      1  C   UNL     1       4.428  -3.916  -4.646  0.00  0.00    +0.017 C 
ATOM      2  C   UNL     1       3.268  -3.638  -5.637  0.00  0.00    +0.025 C 
ATOM      3  C   UNL     1       3.122  -2.102  -5.578  0.00  0.00    +0.088 C 
ATOM      4  N   UNL     1       3.701  -1.658  -4.297  0.00  0.00    -0.298 NA
ATOM      5  C   UNL     1       4.172  -2.847  -3.555  0.00  0.00    +0.085 C 
ATOM      6  C   UNL     1       4.796  -0.705  -4.517  0.00  0.00    +0.105 C 
ENDROOT
BRANCH   3   7
ATOM      7  C   UNL     1       1.665  -1.723  -5.643  0.00  0.00    -0.012 A 
ATOM      8  C   UNL     1       1.284  -0.397  -5.560  0.00  0.00    +0.115 A 
ATOM      9  N   UNL     1       0.011  -0.056  -5.617  0.00  0.00    -0.263 NA
ATOM     10  C   UNL     1      -0.942  -0.957  -5.752  0.00  0.00    +0.111 A 
ATOM     11  C   UNL     1      -0.637  -2.302  -5.841  0.00  0.00    +0.020 A 
ATOM     12  C   UNL     1       0.691  -2.698  -5.791  0.00  0.00    +0.008 A 
ENDBRANCH   3   7
TORSDOF 1
ENDMDL
MODEL 8
REMARK VINA RESULT:    -2.558      2.142      3.998
REMARK INTER + INTRA:          -2.938
REMARK INTER:                  -2.722
REMARK INTRA:                  -0.216
REMARK UNBOUND:                -0.230
REMARK  Name = Nicotine.pdb
REMARK  2 active torsions:
REMARK  status: ('A' for Active; 'I' for Inactive)
REMARK    1  A    between atoms: C_3  and  C_6
REMARK    2  A    between atoms: N_4  and  C_12
REMARK                            x       y       z     vdW  Elec       q    Type
REMARK                         _______ _______ _______ _____ _____    ______ ____
ROOT
ATOM      1  C   UNL     1       5.255  -1.024  -4.246  0.00  0.00    +0.017 C 
ATOM      2  C   UNL     1       3.843  -1.602  -3.965  0.00  0.00    +0.025 C 
ATOM      3  C   UNL     1       3.360  -2.034  -5.366  0.00  0.00    +0.088 C 
ATOM      4  N   UNL     1       4.133  -1.259  -6.353  0.00  0.00    -0.298 NA
ATOM      5  C   UNL     1       5.050  -0.354  -5.627  0.00  0.00    +0.085 C 
ATOM      6  C   UNL     1       4.876  -2.148  -7.256  0.00  0.00    +0.105 C 
ENDROOT
BRANCH   3   7
ATOM      7  C   UNL     1       1.890  -1.736  -5.516  0.00  0.00    -0.012 A 
ATOM      8  C   UNL     1       0.992  -2.757  -5.766  0.00  0.00    +0.115 A 
ATOM      9  N   UNL     1      -0.295  -2.505  -5.899  0.00  0.00    -0.263 NA
ATOM     10  C   UNL     1      -0.776  -1.281  -5.800  0.00  0.00    +0.111 A 
ATOM     11  C   UNL     1       0.061  -0.210  -5.550  0.00  0.00    +0.020 A 
ATOM     12  C   UNL     1       1.421  -0.437  -5.399  0.00  0.00    +0.008 A 
ENDBRANCH   3   7
TORSDOF 1
ENDMDL
MODEL 9
REMARK VINA RESULT:    -2.469      1.628      4.178
REMARK INTER + INTRA:          -2.843
REMARK INTER:                  -2.590
REMARK INTRA:                  -0.253
REMARK UNBOUND:                -0.230
REMARK  Name = Nicotine.pdb
REMARK  2 active torsions:
REMARK  status: ('A' for Active; 'I' for Inactive)
REMARK    1  A    between atoms: C_3  and  C_6
REMARK    2  A    between atoms: N_4  and  C_12
REMARK                            x       y       z     vdW  Elec       q    Type
REMARK                         _______ _______ _______ _____ _____    ______ ____
ROOT
ATOM      1  C   UNL     1       1.257  -5.684  -5.701  0.00  0.00    +0.017 C 
ATOM      2  C   UNL     1       1.461  -4.321  -4.988  0.00  0.00    +0.025 C 
ATOM      3  C   UNL     1       0.490  -3.387  -5.742  0.00  0.00    +0.088 C 
ATOM      4  N   UNL     1       0.238  -3.992  -7.062  0.00  0.00    -0.298 NA
ATOM      5  C   UNL     1       1.025  -5.239  -7.167  0.00  0.00    +0.085 C 
ATOM      6  C   UNL     1      -1.194  -4.254  -7.256  0.00  0.00    +0.105 C 
ENDROOT
BRANCH   3   7
ATOM      7  C   UNL     1       1.116  -2.026  -5.911  0.00  0.00    -0.012 A 
ATOM      8  C   UNL     1       0.332  -0.888  -5.879  0.00  0.00    +0.115 A 
ATOM      9  N   UNL     1       0.871   0.307  -6.027  0.00  0.00    -0.263 NA
ATOM     10  C   UNL     1       2.168   0.464  -6.208  0.00  0.00    +0.111 A 
ATOM     11  C   UNL     1       3.014  -0.628  -6.250  0.00  0.00    +0.020 A 
ATOM     12  C   UNL     1       2.484  -1.899  -6.094  0.00  0.00    +0.008 A 
ENDBRANCH   3   7
TORSDOF 1
ENDMDL
