MODEL 1
REMARK VINA RESULT:    -3.580      0.000      0.000
REMARK INTER + INTRA:          -4.021
REMARK INTER:                  -3.789
REMARK INTRA:                  -0.232
REMARK UNBOUND:                -0.232
REMARK  Name = Nicotine.pdb
REMARK  2 active torsions:
REMARK  status: ('A' for Active; 'I' for Inactive)
REMARK    1  A    between atoms: C_3  and  C_6
REMARK    2  A    between atoms: N_4  and  C_12
REMARK                            x       y       z     vdW  Elec       q    Type
REMARK                         _______ _______ _______ _____ _____    ______ ____
ROOT
ATOM      1  C   UNL     1       4.576  -3.869  -6.452  0.00  0.00    +0.017 C 
ATOM      2  C   UNL     1       4.692  -3.468  -4.958  0.00  0.00    +0.025 C 
ATOM      3  C   UNL     1       6.177  -3.743  -4.639  0.00  0.00    +0.088 C 
ATOM      4  N   UNL     1       6.663  -4.719  -5.632  0.00  0.00    -0.298 NA
ATOM      5  C   UNL     1       5.544  -5.076  -6.528  0.00  0.00    +0.085 C 
ATOM      6  C   UNL     1       7.796  -4.177  -6.393  0.00  0.00    +0.105 C 
ENDROOT
BRANCH   3   7
ATOM      7  C   UNL     1       6.307  -4.314  -3.251  0.00  0.00    -0.012 A 
ATOM      8  C   UNL     1       7.197  -3.763  -2.349  0.00  0.00    +0.115 A 
ATOM      9  N   UNL     1       7.316  -4.256  -1.131  0.00  0.00    -0.263 NA
ATOM     10  C   UNL     1       6.599  -5.286  -0.728  0.00  0.00    +0.111 A 
ATOM     11  C   UNL     1       5.688  -5.890  -1.575  0.00  0.00    +0.020 A 
ATOM     12  C   UNL     1       5.531  -5.395  -2.860  0.00  0.00    +0.008 A 
ENDBRANCH   3   7
TORSDOF 1
ENDMDL
MODEL 2
REMARK VINA RESULT:    -3.512      8.679     10.364
REMARK INTER + INTRA:          -3.950
REMARK INTER:                  -3.749
REMARK INTRA:                  -0.201
REMARK UNBOUND:                -0.232
REMARK  Name = Nicotine.pdb
REMARK  2 active torsions:
REMARK  status: ('A' for Active; 'I' for Inactive)
REMARK    1  A    between atoms: C_3  and  C_6
REMARK    2  A    between atoms: N_4  and  C_12
REMARK                            x       y       z     vdW  Elec       q    Type
REMARK                         _______ _______ _______ _____ _____    ______ ____
ROOT
ATOM      1  C   UNL     1       3.987   3.655   2.556  0.00  0.00    +0.017 C 
ATOM      2  C   UNL     1       3.838   3.571   1.014  0.00  0.00    +0.025 C 
ATOM      3  C   UNL     1       5.267   3.224   0.545  0.00  0.00    +0.088 C 
ATOM      4  N   UNL     1       6.192   3.650   1.611  0.00  0.00    -0.298 NA
ATOM      5  C   UNL     1       5.404   4.265   2.700  0.00  0.00    +0.085 C 
ATOM      6  C   UNL     1       6.982   2.516   2.107  0.00  0.00    +0.105 C 
ENDROOT
BRANCH   3   7
ATOM      7  C   UNL     1       5.580   3.959  -0.732  0.00  0.00    -0.012 A 
ATOM      8  C   UNL     1       5.701   3.270  -1.924  0.00  0.00    +0.115 A 
ATOM      9  N   UNL     1       5.975   3.906  -3.046  0.00  0.00    -0.263 NA
ATOM     10  C   UNL     1       6.144   5.213  -3.079  0.00  0.00    +0.111 A 
ATOM     11  C   UNL     1       6.038   5.969  -1.926  0.00  0.00    +0.020 A 
ATOM     12  C   UNL     1       5.745   5.336  -0.728  0.00  0.00    +0.008 A 
ENDBRANCH   3   7
TORSDOF 1
ENDMDL
MODEL 3
REMARK VINA RESULT:    -3.462      1.403      4.430
REMARK INTER + INTRA:          -3.896
REMARK INTER:                  -3.654
REMARK INTRA:                  -0.242
REMARK UNBOUND:                -0.232
REMARK  Name = Nicotine.pdb
REMARK  2 active torsions:
REMARK  status: ('A' for Active; 'I' for Inactive)
REMARK    1  A    between atoms: C_3  and  C_6
REMARK    2  A    between atoms: N_4  and  C_12
REMARK                            x       y       z     vdW  Elec       q    Type
REMARK                         _______ _______ _______ _____ _____    ______ ____
ROOT
ATOM      1  C   UNL     1       6.750  -5.282  -0.498  0.00  0.00    +0.017 C 
ATOM      2  C   UNL     1       5.674  -5.552  -1.582  0.00  0.00    +0.025 C 
ATOM      3  C   UNL     1       6.514  -5.775  -2.858  0.00  0.00    +0.088 C 
ATOM      4  N   UNL     1       7.819  -5.127  -2.640  0.00  0.00    -0.298 NA
ATOM      5  C   UNL     1       7.814  -4.495  -1.304  0.00  0.00    +0.085 C 
ATOM      6  C   UNL     1       8.916  -6.097  -2.760  0.00  0.00    +0.105 C 
ENDROOT
BRANCH   3   7
ATOM      7  C   UNL     1       5.822  -5.153  -4.043  0.00  0.00    -0.012 A 
ATOM      8  C   UNL     1       5.717  -5.846  -5.234  0.00  0.00    +0.115 A 
ATOM      9  N   UNL     1       5.113  -5.308  -6.276  0.00  0.00    -0.263 NA
ATOM     10  C   UNL     1       4.590  -4.099  -6.226  0.00  0.00    +0.111 A 
ATOM     11  C   UNL     1       4.656  -3.346  -5.069  0.00  0.00    +0.020 A 
ATOM     12  C   UNL     1       5.279  -3.881  -3.951  0.00  0.00    +0.008 A 
ENDBRANCH   3   7
TORSDOF 1
ENDMDL
MODEL 4
REMARK VINA RESULT:    -3.421      2.330      3.292
REMARK INTER + INTRA:          -3.853
REMARK INTER:                  -3.679
REMARK INTRA:                  -0.174
REMARK UNBOUND:                -0.232
REMARK  Name = Nicotine.pdb
REMARK  2 active torsions:
REMARK  status: ('A' for Active; 'I' for Inactive)
REMARK    1  A    between atoms: C_3  and  C_6
REMARK    2  A    between atoms: N_4  and  C_12
REMARK                            x       y       z     vdW  Elec       q    Type
REMARK                         _______ _______ _______ _____ _____    ______ ____
ROOT
ATOM      1  C   UNL     1       4.681  -4.610  -4.638  0.00  0.00    +0.017 C 
ATOM      2  C   UNL     1       4.767  -3.118  -4.219  0.00  0.00    +0.025 C 
ATOM      3  C   UNL     1       6.199  -2.722  -4.636  0.00  0.00    +0.088 C 
ATOM      4  N   UNL     1       6.990  -3.964  -4.715  0.00  0.00    -0.298 NA
ATOM      5  C   UNL     1       6.121  -5.100  -4.343  0.00  0.00    +0.085 C 
ATOM      6  C   UNL     1       7.550  -4.147  -6.060  0.00  0.00    +0.105 C 
ENDROOT
BRANCH   3   7
ATOM      7  C   UNL     1       6.796  -1.798  -3.606  0.00  0.00    -0.012 A 
ATOM      8  C   UNL     1       7.044  -2.248  -2.323  0.00  0.00    +0.115 A 
ATOM      9  N   UNL     1       7.566  -1.445  -1.416  0.00  0.00    -0.263 NA
ATOM     10  C   UNL     1       7.870  -0.192  -1.692  0.00  0.00    +0.111 A 
ATOM     11  C   UNL     1       7.650   0.328  -2.954  0.00  0.00    +0.020 A 
ATOM     12  C   UNL     1       7.107  -0.487  -3.935  0.00  0.00    +0.008 A 
ENDBRANCH   3   7
TORSDOF 1
ENDMDL
MODEL 5
REMARK VINA RESULT:    -3.296      8.033      8.846
REMARK INTER + INTRA:          -3.720
REMARK INTER:                  -3.527
REMARK INTRA:                  -0.193
REMARK UNBOUND:                -0.232
REMARK  Name = Nicotine.pdb
REMARK  2 active torsions:
REMARK  status: ('A' for Active; 'I' for Inactive)
REMARK    1  A    between atoms: C_3  and  C_6
REMARK    2  A    between atoms: N_4  and  C_12
REMARK                            x       y       z     vdW  Elec       q    Type
REMARK                         _______ _______ _______ _____ _____    ______ ____
ROOT
ATOM      1  C   UNL     1       6.713   3.820  -3.822  0.00  0.00    +0.017 C 
ATOM      2  C   UNL     1       6.063   4.639  -2.676  0.00  0.00    +0.025 C 
ATOM      3  C   UNL     1       6.655   3.990  -1.407  0.00  0.00    +0.088 C 
ATOM      4  N   UNL     1       7.090   2.630  -1.774  0.00  0.00    -0.298 NA
ATOM      5  C   UNL     1       6.772   2.403  -3.200  0.00  0.00    +0.085 C 
ATOM      6  C   UNL     1       8.525   2.449  -1.519  0.00  0.00    +0.105 C 
ENDROOT
BRANCH   3   7
ATOM      7  C   UNL     1       5.604   3.919  -0.329  0.00  0.00    -0.012 A 
ATOM      8  C   UNL     1       5.609   4.828   0.713  0.00  0.00    +0.115 A 
ATOM      9  N   UNL     1       4.693   4.773   1.660  0.00  0.00    -0.263 NA
ATOM     10  C   UNL     1       3.743   3.859   1.654  0.00  0.00    +0.111 A 
ATOM     11  C   UNL     1       3.674   2.918   0.644  0.00  0.00    +0.020 A 
ATOM     12  C   UNL     1       4.617   2.947  -0.372  0.00  0.00    +0.008 A 
ENDBRANCH   3   7
TORSDOF 1
ENDMDL
MODEL 6
REMARK VINA RESULT:    -3.216      8.478     10.140
REMARK INTER + INTRA:          -3.636
REMARK INTER:                  -3.416
REMARK INTRA:                  -0.220
REMARK UNBOUND:                -0.232
REMARK  Name = Nicotine.pdb
REMARK  2 active torsions:
REMARK  status: ('A' for Active; 'I' for Inactive)
REMARK    1  A    between atoms: C_3  and  C_6
REMARK    2  A    between atoms: N_4  and  C_12
REMARK                            x       y       z     vdW  Elec       q    Type
REMARK                         _______ _______ _______ _____ _____    ______ ____
ROOT
ATOM      1  C   UNL     1       5.961   4.396   2.145  0.00  0.00    +0.017 C 
ATOM      2  C   UNL     1       6.097   5.191   0.820  0.00  0.00    +0.025 C 
ATOM      3  C   UNL     1       5.141   4.444  -0.133  0.00  0.00    +0.088 C 
ATOM      4  N   UNL     1       4.966   3.082   0.403  0.00  0.00    -0.298 NA
ATOM      5  C   UNL     1       5.788   2.947   1.624  0.00  0.00    +0.085 C 
ATOM      6  C   UNL     1       3.552   2.804   0.685  0.00  0.00    +0.105 C 
ENDROOT
BRANCH   3   7
ATOM      7  C   UNL     1       5.740   4.380  -1.514  0.00  0.00    -0.012 A 
ATOM      8  C   UNL     1       5.755   3.189  -2.215  0.00  0.00    +0.115 A 
ATOM      9  N   UNL     1       6.278   3.125  -3.424  0.00  0.00    -0.263 NA
ATOM     10  C   UNL     1       6.803   4.183  -4.010  0.00  0.00    +0.111 A 
ATOM     11  C   UNL     1       6.823   5.408  -3.370  0.00  0.00    +0.020 A 
ATOM     12  C   UNL     1       6.278   5.516  -2.100  0.00  0.00    +0.008 A 
ENDBRANCH   3   7
TORSDOF 1
ENDMDL
MODEL 7
REMARK VINA RESULT:    -3.117      2.715      4.432
REMARK INTER + INTRA:          -3.531
REMARK INTER:                  -3.278
REMARK INTRA:                  -0.253
REMARK UNBOUND:                -0.232
REMARK  Name = Nicotine.pdb
REMARK  2 active torsions:
REMARK  status: ('A' for Active; 'I' for Inactive)
REMARK    1  A    between atoms: C_3  and  C_6
REMARK    2  A    between atoms: N_4  and  C_12
REMARK                            x       y       z     vdW  Elec       q    Type
REMARK                         _______ _______ _______ _____ _____    ______ ____
ROOT
ATOM      1  C   UNL     1       7.974  -0.136  -2.252  0.00  0.00    +0.017 C 
ATOM      2  C   UNL     1       7.598  -1.631  -2.422  0.00  0.00    +0.025 C 
ATOM      3  C   UNL     1       7.783  -1.866  -3.936  0.00  0.00    +0.088 C 
ATOM      4  N   UNL     1       7.687  -0.552  -4.597  0.00  0.00    -0.298 NA
ATOM      5  C   UNL     1       7.427   0.475  -3.566  0.00  0.00    +0.085 C 
ATOM      6  C   UNL     1       8.913  -0.249  -5.347  0.00  0.00    +0.105 C 
ENDROOT
BRANCH   3   7
ATOM      7  C   UNL     1       6.700  -2.780  -4.449  0.00  0.00    -0.012 A 
ATOM      8  C   UNL     1       6.970  -3.686  -5.457  0.00  0.00    +0.115 A 
ATOM      9  N   UNL     1       6.028  -4.490  -5.912  0.00  0.00    -0.263 NA
ATOM     10  C   UNL     1       4.802  -4.463  -5.429  0.00  0.00    +0.111 A 
ATOM     11  C   UNL     1       4.458  -3.584  -4.419  0.00  0.00    +0.020 A 
ATOM     12  C   UNL     1       5.423  -2.727  -3.912  0.00  0.00    +0.008 A 
ENDBRANCH   3   7
TORSDOF 1
ENDMDL
MODEL 8
REMARK VINA RESULT:    -3.109      8.270      9.911
REMARK INTER + INTRA:          -3.522
REMARK INTER:                  -3.307
REMARK INTRA:                  -0.216
REMARK UNBOUND:                -0.232
REMARK  Name = Nicotine.pdb
REMARK  2 active torsions:
REMARK  status: ('A' for Active; 'I' for Inactive)
REMARK    1  A    between atoms: C_3  and  C_6
REMARK    2  A    between atoms: N_4  and  C_12
REMARK                            x       y       z     vdW  Elec       q    Type
REMARK                         _______ _______ _______ _____ _____    ______ ____
ROOT
ATOM      1  C   UNL     1       4.902   3.433   2.721  0.00  0.00    +0.017 C 
ATOM      2  C   UNL     1       6.001   2.963   1.731  0.00  0.00    +0.025 C 
ATOM      3  C   UNL     1       6.043   4.103   0.691  0.00  0.00    +0.088 C 
ATOM      4  N   UNL     1       4.746   4.801   0.757  0.00  0.00    -0.298 NA
ATOM      5  C   UNL     1       3.901   4.131   1.767  0.00  0.00    +0.085 C 
ATOM      6  C   UNL     1       4.929   6.222   1.080  0.00  0.00    +0.105 C 
ENDROOT
BRANCH   3   7
ATOM      7  C   UNL     1       6.250   3.532  -0.687  0.00  0.00    -0.012 A 
ATOM      8  C   UNL     1       5.611   4.090  -1.779  0.00  0.00    +0.115 A 
ATOM      9  N   UNL     1       5.787   3.596  -2.989  0.00  0.00    -0.263 NA
ATOM     10  C   UNL     1       6.572   2.559  -3.207  0.00  0.00    +0.111 A 
ATOM     11  C   UNL     1       7.244   1.949  -2.164  0.00  0.00    +0.020 A 
ATOM     12  C   UNL     1       7.088   2.443  -0.879  0.00  0.00    +0.008 A 
ENDBRANCH   3   7
TORSDOF 1
ENDMDL
MODEL 9
REMARK VINA RESULT:    -3.047      1.229      4.408
REMARK INTER + INTRA:          -3.457
REMARK INTER:                  -3.237
REMARK INTRA:                  -0.220
REMARK UNBOUND:                -0.232
REMARK  Name = Nicotine.pdb
REMARK  2 active torsions:
REMARK  status: ('A' for Active; 'I' for Inactive)
REMARK    1  A    between atoms: C_3  and  C_6
REMARK    2  A    between atoms: N_4  and  C_12
REMARK                            x       y       z     vdW  Elec       q    Type
REMARK                         _______ _______ _______ _____ _____    ______ ____
ROOT
ATOM      1  C   UNL     1       7.916  -2.236  -2.291  0.00  0.00    +0.017 C 
ATOM      2  C   UNL     1       6.745  -2.223  -3.308  0.00  0.00    +0.025 C 
ATOM      3  C   UNL     1       6.282  -3.695  -3.324  0.00  0.00    +0.088 C 
ATOM      4  N   UNL     1       7.412  -4.514  -2.850  0.00  0.00    -0.298 NA
ATOM      5  C   UNL     1       8.555  -3.620  -2.568  0.00  0.00    +0.085 C 
ATOM      6  C   UNL     1       7.040  -5.286  -1.658  0.00  0.00    +0.105 C 
ENDROOT
BRANCH   3   7
ATOM      7  C   UNL     1       5.906  -4.099  -4.726  0.00  0.00    -0.012 A 
ATOM      8  C   UNL     1       6.608  -5.095  -5.378  0.00  0.00    +0.115 A 
ATOM      9  N   UNL     1       6.286  -5.455  -6.606  0.00  0.00    -0.263 NA
ATOM     10  C   UNL     1       5.290  -4.886  -7.255  0.00  0.00    +0.111 A 
ATOM     11  C   UNL     1       4.542  -3.883  -6.667  0.00  0.00    +0.020 A 
ATOM     12  C   UNL     1       4.848  -3.482  -5.376  0.00  0.00    +0.008 A 
ENDBRANCH   3   7
TORSDOF 1
ENDMDL
MODEL 10
REMARK VINA RESULT:    -3.026      8.228      9.342
REMARK INTER + INTRA:          -3.435
REMARK INTER:                  -3.181
REMARK INTRA:                  -0.254
REMARK UNBOUND:                -0.232
REMARK  Name = Nicotine.pdb
REMARK  2 active torsions:
REMARK  status: ('A' for Active; 'I' for Inactive)
REMARK    1  A    between atoms: C_3  and  C_6
REMARK    2  A    between atoms: N_4  and  C_12
REMARK                            x       y       z     vdW  Elec       q    Type
REMARK                         _______ _______ _______ _____ _____    ______ ____
ROOT
ATOM      1  C   UNL     1       8.528   2.589  -1.027  0.00  0.00    +0.017 C 
ATOM      2  C   UNL     1       7.572   2.022   0.056  0.00  0.00    +0.025 C 
ATOM      3  C   UNL     1       6.219   2.675  -0.298  0.00  0.00    +0.088 C 
ATOM      4  N   UNL     1       6.512   3.888  -1.082  0.00  0.00    -0.298 NA
ATOM      5  C   UNL     1       7.978   4.027  -1.206  0.00  0.00    +0.085 C 
ATOM      6  C   UNL     1       5.875   3.827  -2.404  0.00  0.00    +0.105 C 
ENDROOT
BRANCH   3   7
ATOM      7  C   UNL     1       5.482   3.043   0.963  0.00  0.00    -0.012 A 
ATOM      8  C   UNL     1       4.150   3.407   0.913  0.00  0.00    +0.115 A 
ATOM      9  N   UNL     1       3.497   3.731   2.013  0.00  0.00    -0.263 NA
ATOM     10  C   UNL     1       4.082   3.722   3.194  0.00  0.00    +0.111 A 
ATOM     11  C   UNL     1       5.413   3.369   3.322  0.00  0.00    +0.020 A 
ATOM     12  C   UNL     1       6.130   3.017   2.189  0.00  0.00    +0.008 A 
ENDBRANCH   3   7
TORSDOF 1
ENDMDL
