MODEL 1
REMARK VINA RESULT:    -4.559      0.000      0.000
REMARK INTER + INTRA:          -4.998
REMARK INTER:                  -4.826
REMARK INTRA:                  -0.172
REMARK UNBOUND:                -0.172
REMARK  Name = Nicotine.pdb
REMARK  2 active torsions:
REMARK  status: ('A' for Active; 'I' for Inactive)
REMARK    1  A    between atoms: C_3  and  C_6
REMARK    2  A    between atoms: N_4  and  C_12
REMARK                            x       y       z     vdW  Elec       q    Type
REMARK                         _______ _______ _______ _____ _____    ______ ____
ROOT
ATOM      1  C   UNL     1       9.347  -2.966   6.123  0.00  0.00    +0.017 C 
ATOM      2  C   UNL     1       8.066  -2.416   5.443  0.00  0.00    +0.025 C 
ATOM      3  C   UNL     1       8.626  -1.572   4.278  0.00  0.00    +0.088 C 
ATOM      4  N   UNL     1      10.013  -1.215   4.625  0.00  0.00    -0.298 NA
ATOM      5  C   UNL     1      10.325  -1.776   5.957  0.00  0.00    +0.085 C 
ATOM      6  C   UNL     1      10.954  -1.710   3.611  0.00  0.00    +0.105 C 
ENDROOT
BRANCH   3   7
ATOM      7  C   UNL     1       7.801  -0.323   4.107  0.00  0.00    -0.012 A 
ATOM      8  C   UNL     1       7.795   0.651   5.088  0.00  0.00    +0.115 A 
ATOM      9  N   UNL     1       7.076   1.747   4.946  0.00  0.00    -0.263 NA
ATOM     10  C   UNL     1       6.339   1.958   3.873  0.00  0.00    +0.111 A 
ATOM     11  C   UNL     1       6.296   1.029   2.850  0.00  0.00    +0.020 A 
ATOM     12  C   UNL     1       7.043  -0.133   2.962  0.00  0.00    +0.008 A 
ENDBRANCH   3   7
TORSDOF 1
ENDMDL
MODEL 2
REMARK VINA RESULT:    -4.045      1.316      4.507
REMARK INTER + INTRA:          -4.454
REMARK INTER:                  -4.250
REMARK INTRA:                  -0.203
REMARK UNBOUND:                -0.172
REMARK  Name = Nicotine.pdb
REMARK  2 active torsions:
REMARK  status: ('A' for Active; 'I' for Inactive)
REMARK    1  A    between atoms: C_3  and  C_6
REMARK    2  A    between atoms: N_4  and  C_12
REMARK                            x       y       z     vdW  Elec       q    Type
REMARK                         _______ _______ _______ _____ _____    ______ ____
ROOT
ATOM      1  C   UNL     1       5.633  -0.364   2.844  0.00  0.00    +0.017 C 
ATOM      2  C   UNL     1       6.349  -1.575   3.499  0.00  0.00    +0.025 C 
ATOM      3  C   UNL     1       7.353  -0.905   4.461  0.00  0.00    +0.088 C 
ATOM      4  N   UNL     1       7.583   0.465   3.968  0.00  0.00    -0.298 NA
ATOM      5  C   UNL     1       6.789   0.662   2.737  0.00  0.00    +0.085 C 
ATOM      6  C   UNL     1       7.227   1.459   4.990  0.00  0.00    +0.105 C 
ENDROOT
BRANCH   3   7
ATOM      7  C   UNL     1       8.649  -1.674   4.465  0.00  0.00    -0.012 A 
ATOM      8  C   UNL     1       8.771  -2.836   5.203  0.00  0.00    +0.115 A 
ATOM      9  N   UNL     1       9.901  -3.515   5.212  0.00  0.00    -0.263 NA
ATOM     10  C   UNL     1      10.954  -3.117   4.524  0.00  0.00    +0.111 A 
ATOM     11  C   UNL     1      10.907  -1.964   3.763  0.00  0.00    +0.020 A 
ATOM     12  C   UNL     1       9.734  -1.227   3.725  0.00  0.00    +0.008 A 
ENDBRANCH   3   7
TORSDOF 1
ENDMDL
MODEL 3
REMARK VINA RESULT:    -3.880      1.340      2.076
REMARK INTER + INTRA:          -4.279
REMARK INTER:                  -4.065
REMARK INTRA:                  -0.214
REMARK UNBOUND:                -0.172
REMARK  Name = Nicotine.pdb
REMARK  2 active torsions:
REMARK  status: ('A' for Active; 'I' for Inactive)
REMARK    1  A    between atoms: C_3  and  C_6
REMARK    2  A    between atoms: N_4  and  C_12
REMARK                            x       y       z     vdW  Elec       q    Type
REMARK                         _______ _______ _______ _____ _____    ______ ____
ROOT
ATOM      1  C   UNL     1       8.337  -2.781   4.989  0.00  0.00    +0.017 C 
ATOM      2  C   UNL     1       7.418  -1.550   4.768  0.00  0.00    +0.025 C 
ATOM      3  C   UNL     1       8.402  -0.466   4.279  0.00  0.00    +0.088 C 
ATOM      4  N   UNL     1       9.747  -0.856   4.740  0.00  0.00    -0.298 NA
ATOM      5  C   UNL     1       9.634  -2.114   5.510  0.00  0.00    +0.085 C 
ATOM      6  C   UNL     1      10.668  -1.012   3.607  0.00  0.00    +0.105 C 
ENDROOT
BRANCH   3   7
ATOM      7  C   UNL     1       8.026   0.870   4.866  0.00  0.00    -0.012 A 
ATOM      8  C   UNL     1       6.814   1.456   4.550  0.00  0.00    +0.115 A 
ATOM      9  N   UNL     1       6.477   2.625   5.059  0.00  0.00    -0.263 NA
ATOM     10  C   UNL     1       7.273   3.278   5.882  0.00  0.00    +0.111 A 
ATOM     11  C   UNL     1       8.500   2.755   6.244  0.00  0.00    +0.020 A 
ATOM     12  C   UNL     1       8.887   1.525   5.733  0.00  0.00    +0.008 A 
ENDBRANCH   3   7
TORSDOF 1
ENDMDL
MODEL 4
REMARK VINA RESULT:    -3.596      1.958      2.857
REMARK INTER + INTRA:          -3.979
REMARK INTER:                  -3.723
REMARK INTRA:                  -0.256
REMARK UNBOUND:                -0.172
REMARK  Name = Nicotine.pdb
REMARK  2 active torsions:
REMARK  status: ('A' for Active; 'I' for Inactive)
REMARK    1  A    between atoms: C_3  and  C_6
REMARK    2  A    between atoms: N_4  and  C_12
REMARK                            x       y       z     vdW  Elec       q    Type
REMARK                         _______ _______ _______ _____ _____    ______ ____
ROOT
ATOM      1  C   UNL     1      10.291   2.198   6.237  0.00  0.00    +0.017 C 
ATOM      2  C   UNL     1       8.798   1.807   6.081  0.00  0.00    +0.025 C 
ATOM      3  C   UNL     1       8.871   0.334   5.625  0.00  0.00    +0.088 C 
ATOM      4  N   UNL     1      10.205   0.126   5.032  0.00  0.00    -0.298 NA
ATOM      5  C   UNL     1      10.946   1.404   5.078  0.00  0.00    +0.085 C 
ATOM      6  C   UNL     1      10.936  -0.933   5.740  0.00  0.00    +0.105 C 
ENDROOT
BRANCH   3   7
ATOM      7  C   UNL     1       7.804   0.062   4.597  0.00  0.00    -0.012 A 
ATOM      8  C   UNL     1       7.382  -1.231   4.353  0.00  0.00    +0.115 A 
ATOM      9  N   UNL     1       6.448  -1.478   3.455  0.00  0.00    -0.263 NA
ATOM     10  C   UNL     1       5.883  -0.511   2.759  0.00  0.00    +0.111 A 
ATOM     11  C   UNL     1       6.253   0.807   2.949  0.00  0.00    +0.020 A 
ATOM     12  C   UNL     1       7.228   1.105   3.888  0.00  0.00    +0.008 A 
ENDBRANCH   3   7
TORSDOF 1
ENDMDL
MODEL 5
REMARK VINA RESULT:    -3.295      1.396      2.408
REMARK INTER + INTRA:          -3.660
REMARK INTER:                  -3.462
REMARK INTRA:                  -0.198
REMARK UNBOUND:                -0.172
REMARK  Name = Nicotine.pdb
REMARK  2 active torsions:
REMARK  status: ('A' for Active; 'I' for Inactive)
REMARK    1  A    between atoms: C_3  and  C_6
REMARK    2  A    between atoms: N_4  and  C_12
REMARK                            x       y       z     vdW  Elec       q    Type
REMARK                         _______ _______ _______ _____ _____    ______ ____
ROOT
ATOM      1  C   UNL     1      10.890  -1.702   3.668  0.00  0.00    +0.017 C 
ATOM      2  C   UNL     1      10.742  -0.310   4.337  0.00  0.00    +0.025 C 
ATOM      3  C   UNL     1       9.590  -0.528   5.341  0.00  0.00    +0.088 C 
ATOM      4  N   UNL     1       8.815  -1.691   4.872  0.00  0.00    -0.298 NA
ATOM      5  C   UNL     1       9.418  -2.182   3.614  0.00  0.00    +0.085 C 
ATOM      6  C   UNL     1       8.783  -2.749   5.890  0.00  0.00    +0.105 C 
ENDROOT
BRANCH   3   7
ATOM      7  C   UNL     1       8.710   0.693   5.385  0.00  0.00    -0.012 A 
ATOM      8  C   UNL     1       9.052   1.774   6.177  0.00  0.00    +0.115 A 
ATOM      9  N   UNL     1       8.287   2.847   6.221  0.00  0.00    -0.263 NA
ATOM     10  C   UNL     1       7.174   2.934   5.519  0.00  0.00    +0.111 A 
ATOM     11  C   UNL     1       6.768   1.894   4.705  0.00  0.00    +0.020 A 
ATOM     12  C   UNL     1       7.550   0.751   4.629  0.00  0.00    +0.008 A 
ENDBRANCH   3   7
TORSDOF 1
ENDMDL
MODEL 6
REMARK VINA RESULT:    -3.041      1.307      2.258
REMARK INTER + INTRA:          -3.392
REMARK INTER:                  -3.202
REMARK INTRA:                  -0.189
REMARK UNBOUND:                -0.172
REMARK  Name = Nicotine.pdb
REMARK  2 active torsions:
REMARK  status: ('A' for Active; 'I' for Inactive)
REMARK    1  A    between atoms: C_3  and  C_6
REMARK    2  A    between atoms: N_4  and  C_12
REMARK                            x       y       z     vdW  Elec       q    Type
REMARK                         _______ _______ _______ _____ _____    ______ ____
ROOT
ATOM      1  C   UNL     1      10.954  -1.791   4.793  0.00  0.00    +0.017 C 
ATOM      2  C   UNL     1      10.272  -0.406   4.943  0.00  0.00    +0.025 C 
ATOM      3  C   UNL     1       8.808  -0.772   5.265  0.00  0.00    +0.088 C 
ATOM      4  N   UNL     1       8.581  -2.142   4.769  0.00  0.00    -0.298 NA
ATOM      5  C   UNL     1       9.826  -2.625   4.135  0.00  0.00    +0.085 C 
ATOM      6  C   UNL     1       8.163  -3.035   5.857  0.00  0.00    +0.105 C 
ENDROOT
BRANCH   3   7
ATOM      7  C   UNL     1       7.875   0.187   4.573  0.00  0.00    -0.012 A 
ATOM      8  C   UNL     1       7.271  -0.164   3.380  0.00  0.00    +0.115 A 
ATOM      9  N   UNL     1       6.453   0.670   2.767  0.00  0.00    -0.263 NA
ATOM     10  C   UNL     1       6.180   1.861   3.261  0.00  0.00    +0.111 A 
ATOM     11  C   UNL     1       6.746   2.281   4.451  0.00  0.00    +0.020 A 
ATOM     12  C   UNL     1       7.606   1.429   5.126  0.00  0.00    +0.008 A 
ENDBRANCH   3   7
TORSDOF 1
ENDMDL
MODEL 7
REMARK VINA RESULT:    -2.873      1.489      4.655
REMARK INTER + INTRA:          -3.214
REMARK INTER:                  -2.998
REMARK INTRA:                  -0.216
REMARK UNBOUND:                -0.172
REMARK  Name = Nicotine.pdb
REMARK  2 active torsions:
REMARK  status: ('A' for Active; 'I' for Inactive)
REMARK    1  A    between atoms: C_3  and  C_6
REMARK    2  A    between atoms: N_4  and  C_12
REMARK                            x       y       z     vdW  Elec       q    Type
REMARK                         _______ _______ _______ _____ _____    ______ ____
ROOT
ATOM      1  C   UNL     1       8.065   1.943   5.433  0.00  0.00    +0.017 C 
ATOM      2  C   UNL     1       9.314   1.024   5.482  0.00  0.00    +0.025 C 
ATOM      3  C   UNL     1       9.017  -0.025   4.390  0.00  0.00    +0.088 C 
ATOM      4  N   UNL     1       7.557  -0.044   4.188  0.00  0.00    -0.298 NA
ATOM      5  C   UNL     1       6.940   0.924   5.120  0.00  0.00    +0.085 C 
ATOM      6  C   UNL     1       7.213   0.273   2.796  0.00  0.00    +0.105 C 
ENDROOT
BRANCH   3   7
ATOM      7  C   UNL     1       9.491  -1.382   4.840  0.00  0.00    -0.012 A 
ATOM      8  C   UNL     1       8.874  -2.528   4.374  0.00  0.00    +0.115 A 
ATOM      9  N   UNL     1       9.283  -3.720   4.764  0.00  0.00    -0.263 NA
ATOM     10  C   UNL     1      10.287  -3.868   5.605  0.00  0.00    +0.111 A 
ATOM     11  C   UNL     1      10.953  -2.767   6.112  0.00  0.00    +0.020 A 
ATOM     12  C   UNL     1      10.555  -1.498   5.722  0.00  0.00    +0.008 A 
ENDBRANCH   3   7
TORSDOF 1
ENDMDL
MODEL 8
REMARK VINA RESULT:    -2.824      1.465      4.188
REMARK INTER + INTRA:          -3.161
REMARK INTER:                  -2.927
REMARK INTRA:                  -0.234
REMARK UNBOUND:                -0.172
REMARK  Name = Nicotine.pdb
REMARK  2 active torsions:
REMARK  status: ('A' for Active; 'I' for Inactive)
REMARK    1  A    between atoms: C_3  and  C_6
REMARK    2  A    between atoms: N_4  and  C_12
REMARK                            x       y       z     vdW  Elec       q    Type
REMARK                         _______ _______ _______ _____ _____    ______ ____
ROOT
ATOM      1  C   UNL     1       5.745  -1.009   2.800  0.00  0.00    +0.017 C 
ATOM      2  C   UNL     1       6.528  -1.346   4.097  0.00  0.00    +0.025 C 
ATOM      3  C   UNL     1       7.045   0.032   4.559  0.00  0.00    +0.088 C 
ATOM      4  N   UNL     1       7.062   0.912   3.376  0.00  0.00    -0.298 NA
ATOM      5  C   UNL     1       6.604   0.134   2.205  0.00  0.00    +0.085 C 
ATOM      6  C   UNL     1       6.216   2.094   3.586  0.00  0.00    +0.105 C 
ENDROOT
BRANCH   3   7
ATOM      7  C   UNL     1       8.438  -0.103   5.118  0.00  0.00    -0.012 A 
ATOM      8  C   UNL     1       9.141   1.016   5.522  0.00  0.00    +0.115 A 
ATOM      9  N   UNL     1      10.360   0.906   6.013  0.00  0.00    -0.263 NA
ATOM     10  C   UNL     1      10.954  -0.265   6.137  0.00  0.00    +0.111 A 
ATOM     11  C   UNL     1      10.313  -1.428   5.754  0.00  0.00    +0.020 A 
ATOM     12  C   UNL     1       9.028  -1.352   5.239  0.00  0.00    +0.008 A 
ENDBRANCH   3   7
TORSDOF 1
ENDMDL
