MODEL 1
REMARK VINA RESULT:    -4.045      0.000      0.000
REMARK INTER + INTRA:          -4.473
REMARK INTER:                  -4.281
REMARK INTRA:                  -0.192
REMARK UNBOUND:                -0.192
REMARK  Name = Nicotine.pdb
REMARK  2 active torsions:
REMARK  status: ('A' for Active; 'I' for Inactive)
REMARK    1  A    between atoms: C_3  and  C_6
REMARK    2  A    between atoms: N_4  and  C_12
REMARK                            x       y       z     vdW  Elec       q    Type
REMARK                         _______ _______ _______ _____ _____    ______ ____
ROOT
ATOM      1  C   UNL     1       3.973   3.730   5.205  0.00  0.00    +0.017 C 
ATOM      2  C   UNL     1       5.008   4.781   4.726  0.00  0.00    +0.025 C 
ATOM      3  C   UNL     1       6.336   3.994   4.746  0.00  0.00    +0.088 C 
ATOM      4  N   UNL     1       6.160   2.862   5.673  0.00  0.00    -0.298 NA
ATOM      5  C   UNL     1       4.797   2.929   6.244  0.00  0.00    +0.085 C 
ATOM      6  C   UNL     1       6.383   1.582   4.990  0.00  0.00    +0.105 C 
ENDROOT
BRANCH   3   7
ATOM      7  C   UNL     1       7.452   4.884   5.227  0.00  0.00    -0.012 A 
ATOM      8  C   UNL     1       7.245   6.241   5.388  0.00  0.00    +0.115 A 
ATOM      9  N   UNL     1       8.216   7.027   5.809  0.00  0.00    -0.263 NA
ATOM     10  C   UNL     1       9.415   6.557   6.092  0.00  0.00    +0.111 A 
ATOM     11  C   UNL     1       9.697   5.211   5.956  0.00  0.00    +0.020 A 
ATOM     12  C   UNL     1       8.699   4.353   5.521  0.00  0.00    +0.008 A 
ENDBRANCH   3   7
TORSDOF 1
ENDMDL
MODEL 2
REMARK VINA RESULT:    -3.916      1.512      4.460
REMARK INTER + INTRA:          -4.337
REMARK INTER:                  -4.119
REMARK INTRA:                  -0.218
REMARK UNBOUND:                -0.192
REMARK  Name = Nicotine.pdb
REMARK  2 active torsions:
REMARK  status: ('A' for Active; 'I' for Inactive)
REMARK    1  A    between atoms: C_3  and  C_6
REMARK    2  A    between atoms: N_4  and  C_12
REMARK                            x       y       z     vdW  Elec       q    Type
REMARK                         _______ _______ _______ _____ _____    ______ ____
ROOT
ATOM      1  C   UNL     1       9.272   4.311   5.768  0.00  0.00    +0.017 C 
ATOM      2  C   UNL     1       7.934   3.595   5.445  0.00  0.00    +0.025 C 
ATOM      3  C   UNL     1       7.058   4.734   4.880  0.00  0.00    +0.088 C 
ATOM      4  N   UNL     1       7.617   6.003   5.379  0.00  0.00    -0.298 NA
ATOM      5  C   UNL     1       8.777   5.700   6.244  0.00  0.00    +0.085 C 
ATOM      6  C   UNL     1       8.003   6.882   4.268  0.00  0.00    +0.105 C 
ENDROOT
BRANCH   3   7
ATOM      7  C   UNL     1       5.638   4.574   5.357  0.00  0.00    -0.012 A 
ATOM      8  C   UNL     1       4.929   5.666   5.821  0.00  0.00    +0.115 A 
ATOM      9  N   UNL     1       3.686   5.535   6.240  0.00  0.00    -0.263 NA
ATOM     10  C   UNL     1       3.072   4.368   6.236  0.00  0.00    +0.111 A 
ATOM     11  C   UNL     1       3.718   3.231   5.786  0.00  0.00    +0.020 A 
ATOM     12  C   UNL     1       5.024   3.331   5.332  0.00  0.00    +0.008 A 
ENDBRANCH   3   7
TORSDOF 1
ENDMDL
MODEL 3
REMARK VINA RESULT:    -3.708      1.560      2.470
REMARK INTER + INTRA:          -4.117
REMARK INTER:                  -3.931
REMARK INTRA:                  -0.185
REMARK UNBOUND:                -0.192
REMARK  Name = Nicotine.pdb
REMARK  2 active torsions:
REMARK  status: ('A' for Active; 'I' for Inactive)
REMARK    1  A    between atoms: C_3  and  C_6
REMARK    2  A    between atoms: N_4  and  C_12
REMARK                            x       y       z     vdW  Elec       q    Type
REMARK                         _______ _______ _______ _____ _____    ______ ____
ROOT
ATOM      1  C   UNL     1       4.677   2.796   5.751  0.00  0.00    +0.017 C 
ATOM      2  C   UNL     1       6.149   3.119   6.120  0.00  0.00    +0.025 C 
ATOM      3  C   UNL     1       6.155   4.660   6.208  0.00  0.00    +0.088 C 
ATOM      4  N   UNL     1       5.013   5.147   5.414  0.00  0.00    -0.298 NA
ATOM      5  C   UNL     1       4.320   3.983   4.822  0.00  0.00    +0.085 C 
ATOM      6  C   UNL     1       4.096   5.941   6.243  0.00  0.00    +0.105 C 
ENDROOT
BRANCH   3   7
ATOM      7  C   UNL     1       7.443   5.200   5.642  0.00  0.00    -0.012 A 
ATOM      8  C   UNL     1       8.564   4.397   5.565  0.00  0.00    +0.115 A 
ATOM      9  N   UNL     1       9.695   4.862   5.071  0.00  0.00    -0.263 NA
ATOM     10  C   UNL     1       9.802   6.102   4.634  0.00  0.00    +0.111 A 
ATOM     11  C   UNL     1       8.723   6.964   4.679  0.00  0.00    +0.020 A 
ATOM     12  C   UNL     1       7.516   6.508   5.187  0.00  0.00    +0.008 A 
ENDBRANCH   3   7
TORSDOF 1
ENDMDL
MODEL 4
REMARK VINA RESULT:    -3.601      1.343      2.098
REMARK INTER + INTRA:          -4.004
REMARK INTER:                  -3.788
REMARK INTRA:                  -0.216
REMARK UNBOUND:                -0.192
REMARK  Name = Nicotine.pdb
REMARK  2 active torsions:
REMARK  status: ('A' for Active; 'I' for Inactive)
REMARK    1  A    between atoms: C_3  and  C_6
REMARK    2  A    between atoms: N_4  and  C_12
REMARK                            x       y       z     vdW  Elec       q    Type
REMARK                         _______ _______ _______ _____ _____    ______ ____
ROOT
ATOM      1  C   UNL     1       4.245   2.825   5.662  0.00  0.00    +0.017 C 
ATOM      2  C   UNL     1       5.722   3.038   6.084  0.00  0.00    +0.025 C 
ATOM      3  C   UNL     1       5.824   4.572   6.226  0.00  0.00    +0.088 C 
ATOM      4  N   UNL     1       4.741   5.158   5.416  0.00  0.00    -0.298 NA
ATOM      5  C   UNL     1       3.994   4.062   4.764  0.00  0.00    +0.085 C 
ATOM      6  C   UNL     1       3.851   5.983   6.244  0.00  0.00    +0.105 C 
ENDROOT
BRANCH   3   7
ATOM      7  C   UNL     1       7.161   5.046   5.717  0.00  0.00    -0.012 A 
ATOM      8  C   UNL     1       7.312   6.336   5.245  0.00  0.00    +0.115 A 
ATOM      9  N   UNL     1       8.478   6.759   4.797  0.00  0.00    -0.263 NA
ATOM     10  C   UNL     1       9.539   5.976   4.781  0.00  0.00    +0.111 A 
ATOM     11  C   UNL     1       9.465   4.674   5.238  0.00  0.00    +0.020 A 
ATOM     12  C   UNL     1       8.256   4.196   5.721  0.00  0.00    +0.008 A 
ENDBRANCH   3   7
TORSDOF 1
ENDMDL
