MODEL 1
REMARK VINA RESULT:    -2.504      0.000      0.000
REMARK INTER + INTRA:          -2.860
REMARK INTER:                  -2.651
REMARK INTRA:                  -0.209
REMARK UNBOUND:                -0.209
REMARK  Name = Nicotine.pdb
REMARK  2 active torsions:
REMARK  status: ('A' for Active; 'I' for Inactive)
REMARK    1  A    between atoms: C_3  and  C_6
REMARK    2  A    between atoms: N_4  and  C_12
REMARK                            x       y       z     vdW  Elec       q    Type
REMARK                         _______ _______ _______ _____ _____    ______ ____
ROOT
ATOM      1  C   UNL     1      10.274  -6.072  -4.095  0.00  0.00    +0.017 C 
ATOM      2  C   UNL     1       8.783  -6.097  -4.523  0.00  0.00    +0.025 C 
ATOM      3  C   UNL     1       8.854  -5.837  -6.043  0.00  0.00    +0.088 C 
ATOM      4  N   UNL     1      10.139  -5.166  -6.312  0.00  0.00    -0.298 NA
ATOM      5  C   UNL     1      10.850  -4.978  -5.029  0.00  0.00    +0.085 C 
ATOM      6  C   UNL     1      10.952  -5.943  -7.256  0.00  0.00    +0.105 C 
ENDROOT
BRANCH   3   7
ATOM      7  C   UNL     1       7.713  -4.949  -6.465  0.00  0.00    -0.012 A 
ATOM      8  C   UNL     1       7.948  -3.641  -6.844  0.00  0.00    +0.115 A 
ATOM      9  N   UNL     1       6.954  -2.857  -7.215  0.00  0.00    -0.263 NA
ATOM     10  C   UNL     1       5.707  -3.283  -7.239  0.00  0.00    +0.111 A 
ATOM     11  C   UNL     1       5.395  -4.580  -6.875  0.00  0.00    +0.020 A 
ATOM     12  C   UNL     1       6.414  -5.434  -6.484  0.00  0.00    +0.008 A 
ENDBRANCH   3   7
TORSDOF 1
ENDMDL
MODEL 2
REMARK VINA RESULT:    -2.260      1.526      2.476
REMARK INTER + INTRA:          -2.601
REMARK INTER:                  -2.383
REMARK INTRA:                  -0.218
REMARK UNBOUND:                -0.209
REMARK  Name = Nicotine.pdb
REMARK  2 active torsions:
REMARK  status: ('A' for Active; 'I' for Inactive)
REMARK    1  A    between atoms: C_3  and  C_6
REMARK    2  A    between atoms: N_4  and  C_12
REMARK                            x       y       z     vdW  Elec       q    Type
REMARK                         _______ _______ _______ _____ _____    ______ ____
ROOT
ATOM      1  C   UNL     1      10.545  -4.654  -7.221  0.00  0.00    +0.017 C 
ATOM      2  C   UNL     1       9.217  -3.865  -7.085  0.00  0.00    +0.025 C 
ATOM      3  C   UNL     1       8.531  -4.543  -5.880  0.00  0.00    +0.088 C 
ATOM      4  N   UNL     1       9.111  -5.892  -5.751  0.00  0.00    -0.298 NA
ATOM      5  C   UNL     1      10.100  -6.086  -6.832  0.00  0.00    +0.085 C 
ATOM      6  C   UNL     1       9.729  -6.076  -4.432  0.00  0.00    +0.105 C 
ENDROOT
BRANCH   3   7
ATOM      7  C   UNL     1       7.048  -4.642  -6.123  0.00  0.00    -0.012 A 
ATOM      8  C   UNL     1       6.280  -5.541  -5.406  0.00  0.00    +0.115 A 
ATOM      9  N   UNL     1       4.981  -5.633  -5.612  0.00  0.00    -0.263 NA
ATOM     10  C   UNL     1       4.365  -4.880  -6.502  0.00  0.00    +0.111 A 
ATOM     11  C   UNL     1       5.067  -3.958  -7.256  0.00  0.00    +0.020 A 
ATOM     12  C   UNL     1       6.434  -3.828  -7.063  0.00  0.00    +0.008 A 
ENDBRANCH   3   7
TORSDOF 1
ENDMDL
MODEL 3
REMARK VINA RESULT:    -2.031      1.126      4.386
REMARK INTER + INTRA:          -2.359
REMARK INTER:                  -2.137
REMARK INTRA:                  -0.222
REMARK UNBOUND:                -0.209
REMARK  Name = Nicotine.pdb
REMARK  2 active torsions:
REMARK  status: ('A' for Active; 'I' for Inactive)
REMARK    1  A    between atoms: C_3  and  C_6
REMARK    2  A    between atoms: N_4  and  C_12
REMARK                            x       y       z     vdW  Elec       q    Type
REMARK                         _______ _______ _______ _____ _____    ______ ____
ROOT
ATOM      1  C   UNL     1       4.744  -5.556  -5.756  0.00  0.00    +0.017 C 
ATOM      2  C   UNL     1       6.087  -5.658  -4.985  0.00  0.00    +0.025 C 
ATOM      3  C   UNL     1       6.978  -4.620  -5.700  0.00  0.00    +0.088 C 
ATOM      4  N   UNL     1       6.412  -4.414  -7.046  0.00  0.00    -0.298 NA
ATOM      5  C   UNL     1       5.233  -5.292  -7.202  0.00  0.00    +0.085 C 
ATOM      6  C   UNL     1       6.052  -3.005  -7.255  0.00  0.00    +0.105 C 
ENDROOT
BRANCH   3   7
ATOM      7  C   UNL     1       8.387  -5.143  -5.809  0.00  0.00    -0.012 A 
ATOM      8  C   UNL     1       9.039  -5.145  -7.028  0.00  0.00    +0.115 A 
ATOM      9  N   UNL     1      10.273  -5.600  -7.132  0.00  0.00    -0.263 NA
ATOM     10  C   UNL     1      10.929  -6.068  -6.088  0.00  0.00    +0.111 A 
ATOM     11  C   UNL     1      10.341  -6.097  -4.837  0.00  0.00    +0.020 A 
ATOM     12  C   UNL     1       9.047  -5.622  -4.688  0.00  0.00    +0.008 A 
ENDBRANCH   3   7
TORSDOF 1
ENDMDL
MODEL 4
REMARK VINA RESULT:    -2.016      1.784      2.953
REMARK INTER + INTRA:          -2.343
REMARK INTER:                  -2.141
REMARK INTRA:                  -0.201
REMARK UNBOUND:                -0.209
REMARK  Name = Nicotine.pdb
REMARK  2 active torsions:
REMARK  status: ('A' for Active; 'I' for Inactive)
REMARK    1  A    between atoms: C_3  and  C_6
REMARK    2  A    between atoms: N_4  and  C_12
REMARK                            x       y       z     vdW  Elec       q    Type
REMARK                         _______ _______ _______ _____ _____    ______ ____
ROOT
ATOM      1  C   UNL     1       9.132  -3.898  -7.090  0.00  0.00    +0.017 C 
ATOM      2  C   UNL     1       7.727  -3.319  -6.779  0.00  0.00    +0.025 C 
ATOM      3  C   UNL     1       7.163  -4.315  -5.743  0.00  0.00    +0.088 C 
ATOM      4  N   UNL     1       7.896  -5.582  -5.911  0.00  0.00    -0.298 NA
ATOM      5  C   UNL     1       8.865  -5.423  -7.016  0.00  0.00    +0.085 C 
ATOM      6  C   UNL     1       8.574  -5.968  -4.667  0.00  0.00    +0.105 C 
ENDROOT
BRANCH   3   7
ATOM      7  C   UNL     1       5.693  -4.534  -5.991  0.00  0.00    -0.012 A 
ATOM      8  C   UNL     1       5.050  -3.868  -7.017  0.00  0.00    +0.115 A 
ATOM      9  N   UNL     1       3.764  -4.055  -7.241  0.00  0.00    -0.263 NA
ATOM     10  C   UNL     1       3.044  -4.876  -6.503  0.00  0.00    +0.111 A 
ATOM     11  C   UNL     1       3.618  -5.577  -5.459  0.00  0.00    +0.020 A 
ATOM     12  C   UNL     1       4.969  -5.410  -5.197  0.00  0.00    +0.008 A 
ENDBRANCH   3   7
TORSDOF 1
ENDMDL
MODEL 5
REMARK VINA RESULT:    -1.974      1.286      4.476
REMARK INTER + INTRA:          -2.298
REMARK INTER:                  -2.093
REMARK INTRA:                  -0.206
REMARK UNBOUND:                -0.209
REMARK  Name = Nicotine.pdb
REMARK  2 active torsions:
REMARK  status: ('A' for Active; 'I' for Inactive)
REMARK    1  A    between atoms: C_3  and  C_6
REMARK    2  A    between atoms: N_4  and  C_12
REMARK                            x       y       z     vdW  Elec       q    Type
REMARK                         _______ _______ _______ _____ _____    ______ ____
ROOT
ATOM      1  C   UNL     1       4.760  -5.635  -5.831  0.00  0.00    +0.017 C 
ATOM      2  C   UNL     1       6.042  -5.713  -4.961  0.00  0.00    +0.025 C 
ATOM      3  C   UNL     1       6.970  -4.668  -5.616  0.00  0.00    +0.088 C 
ATOM      4  N   UNL     1       6.504  -4.477  -7.001  0.00  0.00    -0.298 NA
ATOM      5  C   UNL     1       5.351  -5.372  -7.238  0.00  0.00    +0.085 C 
ATOM      6  C   UNL     1       6.142  -3.075  -7.247  0.00  0.00    +0.105 C 
ENDROOT
BRANCH   3   7
ATOM      7  C   UNL     1       8.390  -5.171  -5.617  0.00  0.00    -0.012 A 
ATOM      8  C   UNL     1       8.965  -5.643  -4.451  0.00  0.00    +0.115 A 
ATOM      9  N   UNL     1      10.207  -6.085  -4.443  0.00  0.00    -0.263 NA
ATOM     10  C   UNL     1      10.946  -6.097  -5.535  0.00  0.00    +0.111 A 
ATOM     11  C   UNL     1      10.439  -5.641  -6.738  0.00  0.00    +0.020 A 
ATOM     12  C   UNL     1       9.135  -5.174  -6.786  0.00  0.00    +0.008 A 
ENDBRANCH   3   7
TORSDOF 1
ENDMDL
MODEL 6
REMARK VINA RESULT:    -1.775      2.075      3.345
REMARK INTER + INTRA:          -2.088
REMARK INTER:                  -1.854
REMARK INTRA:                  -0.234
REMARK UNBOUND:                -0.209
REMARK  Name = Nicotine.pdb
REMARK  2 active torsions:
REMARK  status: ('A' for Active; 'I' for Inactive)
REMARK    1  A    between atoms: C_3  and  C_6
REMARK    2  A    between atoms: N_4  and  C_12
REMARK                            x       y       z     vdW  Elec       q    Type
REMARK                         _______ _______ _______ _____ _____    ______ ____
ROOT
ATOM      1  C   UNL     1       8.746  -5.604  -6.564  0.00  0.00    +0.017 C 
ATOM      2  C   UNL     1       7.319  -6.057  -6.973  0.00  0.00    +0.025 C 
ATOM      3  C   UNL     1       6.542  -4.726  -7.054  0.00  0.00    +0.088 C 
ATOM      4  N   UNL     1       7.268  -3.745  -6.227  0.00  0.00    -0.298 NA
ATOM      5  C   UNL     1       8.438  -4.415  -5.620  0.00  0.00    +0.085 C 
ATOM      6  C   UNL     1       7.680  -2.584  -7.025  0.00  0.00    +0.105 C 
ENDROOT
BRANCH   3   7
ATOM      7  C   UNL     1       5.145  -4.914  -6.523  0.00  0.00    -0.012 A 
ATOM      8  C   UNL     1       4.055  -4.483  -7.255  0.00  0.00    +0.115 A 
ATOM      9  N   UNL     1       2.829  -4.644  -6.797  0.00  0.00    -0.263 NA
ATOM     10  C   UNL     1       2.593  -5.217  -5.633  0.00  0.00    +0.111 A 
ATOM     11  C   UNL     1       3.634  -5.674  -4.845  0.00  0.00    +0.020 A 
ATOM     12  C   UNL     1       4.936  -5.526  -5.297  0.00  0.00    +0.008 A 
ENDBRANCH   3   7
TORSDOF 1
ENDMDL
MODEL 7
REMARK VINA RESULT:     0.005      1.763      4.745
REMARK INTER + INTRA:          -0.204
REMARK INTER:                   0.021
REMARK INTRA:                  -0.225
REMARK UNBOUND:                -0.209
REMARK  Name = Nicotine.pdb
REMARK  2 active torsions:
REMARK  status: ('A' for Active; 'I' for Inactive)
REMARK    1  A    between atoms: C_3  and  C_6
REMARK    2  A    between atoms: N_4  and  C_12
REMARK                            x       y       z     vdW  Elec       q    Type
REMARK                         _______ _______ _______ _____ _____    ______ ____
ROOT
ATOM      1  C   UNL     1       4.356  -4.982  -6.943  0.00  0.00    +0.017 C 
ATOM      2  C   UNL     1       5.731  -5.631  -7.256  0.00  0.00    +0.025 C 
ATOM      3  C   UNL     1       6.232  -6.069  -5.864  0.00  0.00    +0.088 C 
ATOM      4  N   UNL     1       5.525  -5.247  -4.865  0.00  0.00    -0.298 NA
ATOM      5  C   UNL     1       4.632  -4.307  -5.577  0.00  0.00    +0.085 C 
ATOM      6  C   UNL     1       4.767  -6.089  -3.931  0.00  0.00    +0.105 C 
ENDROOT
BRANCH   3   7
ATOM      7  C   UNL     1       7.718  -5.841  -5.758  0.00  0.00    -0.012 A 
ATOM      8  C   UNL     1       8.356  -5.941  -4.537  0.00  0.00    +0.115 A 
ATOM      9  N   UNL     1       9.656  -5.743  -4.436  0.00  0.00    -0.263 NA
ATOM     10  C   UNL     1      10.394  -5.444  -5.486  0.00  0.00    +0.111 A 
ATOM     11  C   UNL     1       9.826  -5.327  -6.741  0.00  0.00    +0.020 A 
ATOM     12  C   UNL     1       8.463  -5.533  -6.886  0.00  0.00    +0.008 A 
ENDBRANCH   3   7
TORSDOF 1
ENDMDL
