MODEL 1
REMARK VINA RESULT:    -3.507      0.000      0.000
REMARK INTER + INTRA:          -3.928
REMARK INTER:                  -3.712
REMARK INTRA:                  -0.215
REMARK UNBOUND:                -0.215
REMARK  Name = Nicotine.pdb
REMARK  2 active torsions:
REMARK  status: ('A' for Active; 'I' for Inactive)
REMARK    1  A    between atoms: C_3  and  C_6
REMARK    2  A    between atoms: N_4  and  C_12
REMARK                            x       y       z     vdW  Elec       q    Type
REMARK                         _______ _______ _______ _____ _____    ______ ____
ROOT
ATOM      1  C   UNL     1       9.967  -2.738   4.769  0.00  0.00    +0.017 C 
ATOM      2  C   UNL     1       8.875  -2.762   5.871  0.00  0.00    +0.025 C 
ATOM      3  C   UNL     1       8.159  -4.106   5.620  0.00  0.00    +0.088 C 
ATOM      4  N   UNL     1       8.417  -4.484   4.219  0.00  0.00    -0.298 NA
ATOM      5  C   UNL     1       9.236  -3.427   3.589  0.00  0.00    +0.085 C 
ATOM      6  C   UNL     1       9.088  -5.788   4.140  0.00  0.00    +0.105 C 
ENDROOT
BRANCH   3   7
ATOM      7  C   UNL     1       6.677  -3.947   5.845  0.00  0.00    -0.012 A 
ATOM      8  C   UNL     1       6.104  -2.690   5.860  0.00  0.00    +0.115 A 
ATOM      9  N   UNL     1       4.808  -2.541   6.056  0.00  0.00    -0.263 NA
ATOM     10  C   UNL     1       4.013  -3.576   6.244  0.00  0.00    +0.111 A 
ATOM     11  C   UNL     1       4.515  -4.864   6.242  0.00  0.00    +0.020 A 
ATOM     12  C   UNL     1       5.871  -5.059   6.034  0.00  0.00    +0.008 A 
ENDBRANCH   3   7
TORSDOF 1
ENDMDL
MODEL 2
REMARK VINA RESULT:    -2.926      1.792      2.559
REMARK INTER + INTRA:          -3.312
REMARK INTER:                  -3.102
REMARK INTRA:                  -0.210
REMARK UNBOUND:                -0.215
REMARK  Name = Nicotine.pdb
REMARK  2 active torsions:
REMARK  status: ('A' for Active; 'I' for Inactive)
REMARK    1  A    between atoms: C_3  and  C_6
REMARK    2  A    between atoms: N_4  and  C_12
REMARK                            x       y       z     vdW  Elec       q    Type
REMARK                         _______ _______ _______ _____ _____    ______ ____
ROOT
ATOM      1  C   UNL     1      10.919  -2.902   1.730  0.00  0.00    +0.017 C 
ATOM      2  C   UNL     1      10.467  -2.782   3.209  0.00  0.00    +0.025 C 
ATOM      3  C   UNL     1       9.809  -4.152   3.483  0.00  0.00    +0.088 C 
ATOM      4  N   UNL     1       9.415  -4.715   2.179  0.00  0.00    -0.298 NA
ATOM      5  C   UNL     1       9.774  -3.748   1.120  0.00  0.00    +0.085 C 
ATOM      6  C   UNL     1      10.061  -6.013   1.948  0.00  0.00    +0.105 C 
ENDROOT
BRANCH   3   7
ATOM      7  C   UNL     1       8.594  -3.972   4.355  0.00  0.00    -0.012 A 
ATOM      8  C   UNL     1       8.137  -2.705   4.664  0.00  0.00    +0.115 A 
ATOM      9  N   UNL     1       7.073  -2.539   5.426  0.00  0.00    -0.263 NA
ATOM     10  C   UNL     1       6.408  -3.564   5.921  0.00  0.00    +0.111 A 
ATOM     11  C   UNL     1       6.806  -4.861   5.654  0.00  0.00    +0.020 A 
ATOM     12  C   UNL     1       7.916  -5.075   4.852  0.00  0.00    +0.008 A 
ENDBRANCH   3   7
TORSDOF 1
ENDMDL
MODEL 3
REMARK VINA RESULT:    -2.877      1.633      4.607
REMARK INTER + INTRA:          -3.260
REMARK INTER:                  -3.040
REMARK INTRA:                  -0.220
REMARK UNBOUND:                -0.215
REMARK  Name = Nicotine.pdb
REMARK  2 active torsions:
REMARK  status: ('A' for Active; 'I' for Inactive)
REMARK    1  A    between atoms: C_3  and  C_6
REMARK    2  A    between atoms: N_4  and  C_12
REMARK                            x       y       z     vdW  Elec       q    Type
REMARK                         _______ _______ _______ _____ _____    ______ ____
ROOT
ATOM      1  C   UNL     1       5.926  -3.413   6.001  0.00  0.00    +0.017 C 
ATOM      2  C   UNL     1       6.873  -4.534   5.497  0.00  0.00    +0.025 C 
ATOM      3  C   UNL     1       8.222  -3.802   5.336  0.00  0.00    +0.088 C 
ATOM      4  N   UNL     1       7.925  -2.366   5.190  0.00  0.00    -0.298 NA
ATOM      5  C   UNL     1       6.459  -2.182   5.228  0.00  0.00    +0.085 C 
ATOM      6  C   UNL     1       8.582  -1.582   6.244  0.00  0.00    +0.105 C 
ENDROOT
BRANCH   3   7
ATOM      7  C   UNL     1       8.936  -4.307   4.109  0.00  0.00    -0.012 A 
ATOM      8  C   UNL     1       9.461  -3.418   3.191  0.00  0.00    +0.115 A 
ATOM      9  N   UNL     1      10.088  -3.851   2.114  0.00  0.00    -0.263 NA
ATOM     10  C   UNL     1      10.238  -5.138   1.871  0.00  0.00    +0.111 A 
ATOM     11  C   UNL     1       9.739  -6.087   2.745  0.00  0.00    +0.020 A 
ATOM     12  C   UNL     1       9.079  -5.669   3.890  0.00  0.00    +0.008 A 
ENDBRANCH   3   7
TORSDOF 1
ENDMDL
MODEL 4
REMARK VINA RESULT:    -2.757      2.725      5.512
REMARK INTER + INTRA:          -3.133
REMARK INTER:                  -2.911
REMARK INTRA:                  -0.222
REMARK UNBOUND:                -0.215
REMARK  Name = Nicotine.pdb
REMARK  2 active torsions:
REMARK  status: ('A' for Active; 'I' for Inactive)
REMARK    1  A    between atoms: C_3  and  C_6
REMARK    2  A    between atoms: N_4  and  C_12
REMARK                            x       y       z     vdW  Elec       q    Type
REMARK                         _______ _______ _______ _____ _____    ______ ____
ROOT
ATOM      1  C   UNL     1       8.789  -5.546   4.638  0.00  0.00    +0.017 C 
ATOM      2  C   UNL     1       9.407  -5.547   3.215  0.00  0.00    +0.025 C 
ATOM      3  C   UNL     1       9.990  -4.124   3.089  0.00  0.00    +0.088 C 
ATOM      4  N   UNL     1       9.273  -3.271   4.054  0.00  0.00    -0.298 NA
ATOM      5  C   UNL     1       8.261  -4.094   4.749  0.00  0.00    +0.085 C 
ATOM      6  C   UNL     1      10.204  -2.661   5.012  0.00  0.00    +0.105 C 
ENDROOT
BRANCH   3   7
ATOM      7  C   UNL     1       9.780  -3.606   1.690  0.00  0.00    -0.012 A 
ATOM      8  C   UNL     1       9.220  -2.359   1.483  0.00  0.00    +0.115 A 
ATOM      9  N   UNL     1       9.032  -1.898   0.261  0.00  0.00    -0.263 NA
ATOM     10  C   UNL     1       9.367  -2.600  -0.803  0.00  0.00    +0.111 A 
ATOM     11  C   UNL     1       9.933  -3.855  -0.674  0.00  0.00    +0.020 A 
ATOM     12  C   UNL     1      10.150  -4.370   0.594  0.00  0.00    +0.008 A 
ENDBRANCH   3   7
TORSDOF 1
ENDMDL
MODEL 5
REMARK VINA RESULT:    -2.733      2.534      4.161
REMARK INTER + INTRA:          -3.108
REMARK INTER:                  -2.893
REMARK INTRA:                  -0.215
REMARK UNBOUND:                -0.215
REMARK  Name = Nicotine.pdb
REMARK  2 active torsions:
REMARK  status: ('A' for Active; 'I' for Inactive)
REMARK    1  A    between atoms: C_3  and  C_6
REMARK    2  A    between atoms: N_4  and  C_12
REMARK                            x       y       z     vdW  Elec       q    Type
REMARK                         _______ _______ _______ _____ _____    ______ ____
ROOT
ATOM      1  C   UNL     1      10.250  -1.721   0.202  0.00  0.00    +0.017 C 
ATOM      2  C   UNL     1      10.495  -2.034   1.701  0.00  0.00    +0.025 C 
ATOM      3  C   UNL     1      10.181  -3.542   1.796  0.00  0.00    +0.088 C 
ATOM      4  N   UNL     1       9.310  -3.880   0.656  0.00  0.00    -0.298 NA
ATOM      5  C   UNL     1       9.052  -2.649  -0.120  0.00  0.00    +0.085 C 
ATOM      6  C   UNL     1       9.921  -4.916  -0.186  0.00  0.00    +0.105 C 
ENDROOT
BRANCH   3   7
ATOM      7  C   UNL     1       9.471  -3.838   3.092  0.00  0.00    -0.012 A 
ATOM      8  C   UNL     1       8.924  -2.811   3.839  0.00  0.00    +0.115 A 
ATOM      9  N   UNL     1       8.300  -3.061   4.974  0.00  0.00    -0.263 NA
ATOM     10  C   UNL     1       8.174  -4.288   5.439  0.00  0.00    +0.111 A 
ATOM     11  C   UNL     1       8.694  -5.365   4.747  0.00  0.00    +0.020 A 
ATOM     12  C   UNL     1       9.352  -5.142   3.547  0.00  0.00    +0.008 A 
ENDBRANCH   3   7
TORSDOF 1
ENDMDL
MODEL 6
REMARK VINA RESULT:    -2.692      3.345      5.360
REMARK INTER + INTRA:          -3.065
REMARK INTER:                  -2.819
REMARK INTRA:                  -0.245
REMARK UNBOUND:                -0.215
REMARK  Name = Nicotine.pdb
REMARK  2 active torsions:
REMARK  status: ('A' for Active; 'I' for Inactive)
REMARK    1  A    between atoms: C_3  and  C_6
REMARK    2  A    between atoms: N_4  and  C_12
REMARK                            x       y       z     vdW  Elec       q    Type
REMARK                         _______ _______ _______ _____ _____    ______ ____
ROOT
ATOM      1  C   UNL     1      10.568  -1.667  -0.885  0.00  0.00    +0.017 C 
ATOM      2  C   UNL     1      10.817  -1.913   0.626  0.00  0.00    +0.025 C 
ATOM      3  C   UNL     1      10.655  -3.442   0.761  0.00  0.00    +0.088 C 
ATOM      4  N   UNL     1       9.843  -3.897  -0.382  0.00  0.00    -0.298 NA
ATOM      5  C   UNL     1       9.476  -2.720  -1.198  0.00  0.00    +0.085 C 
ATOM      6  C   UNL     1      10.570  -4.889  -1.184  0.00  0.00    +0.105 C 
ENDROOT
BRANCH   3   7
ATOM      7  C   UNL     1       9.955  -3.771   2.053  0.00  0.00    -0.012 A 
ATOM      8  C   UNL     1       9.779  -5.087   2.437  0.00  0.00    +0.115 A 
ATOM      9  N   UNL     1       9.167  -5.385   3.567  0.00  0.00    -0.263 NA
ATOM     10  C   UNL     1       8.701  -4.448   4.370  0.00  0.00    +0.111 A 
ATOM     11  C   UNL     1       8.841  -3.110   4.053  0.00  0.00    +0.020 A 
ATOM     12  C   UNL     1       9.483  -2.759   2.875  0.00  0.00    +0.008 A 
ENDBRANCH   3   7
TORSDOF 1
ENDMDL
MODEL 7
REMARK VINA RESULT:    -2.332      3.496      5.439
REMARK INTER + INTRA:          -2.684
REMARK INTER:                  -2.440
REMARK INTRA:                  -0.243
REMARK UNBOUND:                -0.215
REMARK  Name = Nicotine.pdb
REMARK  2 active torsions:
REMARK  status: ('A' for Active; 'I' for Inactive)
REMARK    1  A    between atoms: C_3  and  C_6
REMARK    2  A    between atoms: N_4  and  C_12
REMARK                            x       y       z     vdW  Elec       q    Type
REMARK                         _______ _______ _______ _____ _____    ______ ____
ROOT
ATOM      1  C   UNL     1       9.491  -2.770   5.429  0.00  0.00    +0.017 C 
ATOM      2  C   UNL     1       8.711  -2.775   4.088  0.00  0.00    +0.025 C 
ATOM      3  C   UNL     1       9.406  -3.895   3.285  0.00  0.00    +0.088 C 
ATOM      4  N   UNL     1      10.754  -4.070   3.857  0.00  0.00    -0.298 NA
ATOM      5  C   UNL     1      10.929  -3.095   4.955  0.00  0.00    +0.085 C 
ATOM      6  C   UNL     1      10.948  -5.444   4.336  0.00  0.00    +0.105 C 
ENDROOT
BRANCH   3   7
ATOM      7  C   UNL     1       9.511  -3.497   1.836  0.00  0.00    -0.012 A 
ATOM      8  C   UNL     1      10.051  -4.369   0.909  0.00  0.00    +0.115 A 
ATOM      9  N   UNL     1      10.146  -4.029  -0.362  0.00  0.00    -0.263 NA
ATOM     10  C   UNL     1       9.735  -2.855  -0.798  0.00  0.00    +0.111 A 
ATOM     11  C   UNL     1       9.183  -1.931   0.070  0.00  0.00    +0.020 A 
ATOM     12  C   UNL     1       9.062  -2.255   1.413  0.00  0.00    +0.008 A 
ENDBRANCH   3   7
TORSDOF 1
ENDMDL
MODEL 8
REMARK VINA RESULT:    -1.838     12.733     13.955
REMARK INTER + INTRA:          -2.161
REMARK INTER:                  -1.954
REMARK INTRA:                  -0.206
REMARK UNBOUND:                -0.215
REMARK  Name = Nicotine.pdb
REMARK  2 active torsions:
REMARK  status: ('A' for Active; 'I' for Inactive)
REMARK    1  A    between atoms: C_3  and  C_6
REMARK    2  A    between atoms: N_4  and  C_12
REMARK                            x       y       z     vdW  Elec       q    Type
REMARK                         _______ _______ _______ _____ _____    ______ ____
ROOT
ATOM      1  C   UNL     1      10.275   5.442  -1.957  0.00  0.00    +0.017 C 
ATOM      2  C   UNL     1       8.947   4.969  -2.604  0.00  0.00    +0.025 C 
ATOM      3  C   UNL     1       8.887   5.788  -3.911  0.00  0.00    +0.088 C 
ATOM      4  N   UNL     1       9.740   6.975  -3.722  0.00  0.00    -0.298 NA
ATOM      5  C   UNL     1      10.302   6.939  -2.355  0.00  0.00    +0.085 C 
ATOM      6  C   UNL     1      10.807   7.023  -4.729  0.00  0.00    +0.105 C 
ENDROOT
BRANCH   3   7
ATOM      7  C   UNL     1       7.467   6.214  -4.184  0.00  0.00    -0.012 A 
ATOM      8  C   UNL     1       6.659   6.654  -3.153  0.00  0.00    +0.115 A 
ATOM      9  N   UNL     1       5.415   7.028  -3.383  0.00  0.00    -0.263 NA
ATOM     10  C   UNL     1       4.896   6.998  -4.594  0.00  0.00    +0.111 A 
ATOM     11  C   UNL     1       5.644   6.571  -5.675  0.00  0.00    +0.020 A 
ATOM     12  C   UNL     1       6.957   6.175  -5.473  0.00  0.00    +0.008 A 
ENDBRANCH   3   7
TORSDOF 1
ENDMDL
MODEL 9
REMARK VINA RESULT:    -1.405      3.276      5.218
REMARK INTER + INTRA:          -1.703
REMARK INTER:                  -1.534
REMARK INTRA:                  -0.169
REMARK UNBOUND:                -0.215
REMARK  Name = Nicotine.pdb
REMARK  2 active torsions:
REMARK  status: ('A' for Active; 'I' for Inactive)
REMARK    1  A    between atoms: C_3  and  C_6
REMARK    2  A    between atoms: N_4  and  C_12
REMARK                            x       y       z     vdW  Elec       q    Type
REMARK                         _______ _______ _______ _____ _____    ______ ____
ROOT
ATOM      1  C   UNL     1      10.402  -1.065  -0.826  0.00  0.00    +0.017 C 
ATOM      2  C   UNL     1      10.835  -1.036   0.663  0.00  0.00    +0.025 C 
ATOM      3  C   UNL     1      10.657  -2.505   1.105  0.00  0.00    +0.088 C 
ATOM      4  N   UNL     1       9.696  -3.127   0.176  0.00  0.00    -0.298 NA
ATOM      5  C   UNL     1       9.255  -2.107  -0.799  0.00  0.00    +0.085 C 
ATOM      6  C   UNL     1      10.294  -4.283  -0.505  0.00  0.00    +0.105 C 
ENDROOT
BRANCH   3   7
ATOM      7  C   UNL     1      10.120  -2.556   2.511  0.00  0.00    -0.012 A 
ATOM      8  C   UNL     1       8.802  -2.228   2.768  0.00  0.00    +0.115 A 
ATOM      9  N   UNL     1       8.324  -2.271   3.997  0.00  0.00    -0.263 NA
ATOM     10  C   UNL     1       9.075  -2.623   5.021  0.00  0.00    +0.111 A 
ATOM     11  C   UNL     1      10.402  -2.965   4.841  0.00  0.00    +0.020 A 
ATOM     12  C   UNL     1      10.939  -2.937   3.563  0.00  0.00    +0.008 A 
ENDBRANCH   3   7
TORSDOF 1
ENDMDL
MODEL 10
REMARK VINA RESULT:    -1.281      3.262      4.854
REMARK INTER + INTRA:          -1.571
REMARK INTER:                  -1.380
REMARK INTRA:                  -0.191
REMARK UNBOUND:                -0.215
REMARK  Name = Nicotine.pdb
REMARK  2 active torsions:
REMARK  status: ('A' for Active; 'I' for Inactive)
REMARK    1  A    between atoms: C_3  and  C_6
REMARK    2  A    between atoms: N_4  and  C_12
REMARK                            x       y       z     vdW  Elec       q    Type
REMARK                         _______ _______ _______ _____ _____    ______ ____
ROOT
ATOM      1  C   UNL     1      10.954  -3.632  -0.014  0.00  0.00    +0.017 C 
ATOM      2  C   UNL     1      10.524  -4.238   1.349  0.00  0.00    +0.025 C 
ATOM      3  C   UNL     1       9.464  -3.237   1.855  0.00  0.00    +0.088 C 
ATOM      4  N   UNL     1       9.709  -1.956   1.168  0.00  0.00    -0.298 NA
ATOM      5  C   UNL     1      10.884  -2.113   0.283  0.00  0.00    +0.085 C 
ATOM      6  C   UNL     1       8.528  -1.532   0.405  0.00  0.00    +0.105 C 
ENDROOT
BRANCH   3   7
ATOM      7  C   UNL     1       9.600  -3.056   3.344  0.00  0.00    -0.012 A 
ATOM      8  C   UNL     1      10.826  -2.746   3.902  0.00  0.00    +0.115 A 
ATOM      9  N   UNL     1      10.954  -2.585   5.205  0.00  0.00    -0.263 NA
ATOM     10  C   UNL     1       9.928  -2.713   6.022  0.00  0.00    +0.111 A 
ATOM     11  C   UNL     1       8.670  -3.021   5.537  0.00  0.00    +0.020 A 
ATOM     12  C   UNL     1       8.497  -3.192   4.173  0.00  0.00    +0.008 A 
ENDBRANCH   3   7
TORSDOF 1
ENDMDL
