MODEL 1
REMARK VINA RESULT:    -3.438      0.000      0.000
REMARK INTER + INTRA:          -3.849
REMARK INTER:                  -3.639
REMARK INTRA:                  -0.210
REMARK UNBOUND:                -0.210
REMARK  Name = Nicotine.pdb
REMARK  2 active torsions:
REMARK  status: ('A' for Active; 'I' for Inactive)
REMARK    1  A    between atoms: C_3  and  C_6
REMARK    2  A    between atoms: N_4  and  C_12
REMARK                            x       y       z     vdW  Elec       q    Type
REMARK                         _______ _______ _______ _____ _____    ______ ____
ROOT
ATOM      1  C   UNL     1       9.101  -2.673   6.244  0.00  0.00    +0.017 C 
ATOM      2  C   UNL     1       8.458  -1.910   5.055  0.00  0.00    +0.025 C 
ATOM      3  C   UNL     1       9.275  -2.405   3.843  0.00  0.00    +0.088 C 
ATOM      4  N   UNL     1      10.565  -2.900   4.357  0.00  0.00    -0.298 NA
ATOM      5  C   UNL     1      10.591  -2.709   5.823  0.00  0.00    +0.085 C 
ATOM      6  C   UNL     1      10.766  -4.311   4.006  0.00  0.00    +0.105 C 
ENDROOT
BRANCH   3   7
ATOM      7  C   UNL     1       9.507  -1.269   2.882  0.00  0.00    -0.012 A 
ATOM      8  C   UNL     1       8.988  -1.319   1.601  0.00  0.00    +0.115 A 
ATOM      9  N   UNL     1       9.187  -0.328   0.754  0.00  0.00    -0.263 NA
ATOM     10  C   UNL     1       9.881   0.742   1.088  0.00  0.00    +0.111 A 
ATOM     11  C   UNL     1      10.429   0.863   2.351  0.00  0.00    +0.020 A 
ATOM     12  C   UNL     1      10.238  -0.157   3.271  0.00  0.00    +0.008 A 
ENDBRANCH   3   7
TORSDOF 1
ENDMDL
MODEL 2
REMARK VINA RESULT:    -3.199      2.239      3.750
REMARK INTER + INTRA:          -3.596
REMARK INTER:                  -3.379
REMARK INTRA:                  -0.216
REMARK UNBOUND:                -0.210
REMARK  Name = Nicotine.pdb
REMARK  2 active torsions:
REMARK  status: ('A' for Active; 'I' for Inactive)
REMARK    1  A    between atoms: C_3  and  C_6
REMARK    2  A    between atoms: N_4  and  C_12
REMARK                            x       y       z     vdW  Elec       q    Type
REMARK                         _______ _______ _______ _____ _____    ______ ____
ROOT
ATOM      1  C   UNL     1       8.719  -1.234   1.170  0.00  0.00    +0.017 C 
ATOM      2  C   UNL     1       9.731  -0.187   1.704  0.00  0.00    +0.025 C 
ATOM      3  C   UNL     1      10.105  -0.743   3.094  0.00  0.00    +0.088 C 
ATOM      4  N   UNL     1       9.011  -1.635   3.517  0.00  0.00    -0.298 NA
ATOM      5  C   UNL     1       7.971  -1.635   2.466  0.00  0.00    +0.085 C 
ATOM      6  C   UNL     1       9.507  -2.995   3.768  0.00  0.00    +0.105 C 
ENDROOT
BRANCH   3   7
ATOM      7  C   UNL     1      10.253   0.390   4.076  0.00  0.00    -0.012 A 
ATOM      8  C   UNL     1       9.807   0.250   5.377  0.00  0.00    +0.115 A 
ATOM      9  N   UNL     1       9.933   1.237   6.243  0.00  0.00    -0.263 NA
ATOM     10  C   UNL     1      10.484   2.387   5.908  0.00  0.00    +0.111 A 
ATOM     11  C   UNL     1      10.954   2.600   4.626  0.00  0.00    +0.020 A 
ATOM     12  C   UNL     1      10.844   1.583   3.689  0.00  0.00    +0.008 A 
ENDBRANCH   3   7
TORSDOF 1
ENDMDL
MODEL 3
REMARK VINA RESULT:    -3.095      2.054      3.270
REMARK INTER + INTRA:          -3.486
REMARK INTER:                  -3.288
REMARK INTRA:                  -0.198
REMARK UNBOUND:                -0.210
REMARK  Name = Nicotine.pdb
REMARK  2 active torsions:
REMARK  status: ('A' for Active; 'I' for Inactive)
REMARK    1  A    between atoms: C_3  and  C_6
REMARK    2  A    between atoms: N_4  and  C_12
REMARK                            x       y       z     vdW  Elec       q    Type
REMARK                         _______ _______ _______ _____ _____    ______ ____
ROOT
ATOM      1  C   UNL     1       8.284  -1.769   1.742  0.00  0.00    +0.017 C 
ATOM      2  C   UNL     1       9.173  -0.520   1.506  0.00  0.00    +0.025 C 
ATOM      3  C   UNL     1      10.175  -0.580   2.679  0.00  0.00    +0.088 C 
ATOM      4  N   UNL     1       9.556  -1.393   3.741  0.00  0.00    -0.298 NA
ATOM      5  C   UNL     1       8.213  -1.814   3.289  0.00  0.00    +0.085 C 
ATOM      6  C   UNL     1      10.390  -2.555   4.069  0.00  0.00    +0.105 C 
ENDROOT
BRANCH   3   7
ATOM      7  C   UNL     1      10.449   0.811   3.190  0.00  0.00    -0.012 A 
ATOM      8  C   UNL     1      10.674   1.849   2.306  0.00  0.00    +0.115 A 
ATOM      9  N   UNL     1      10.915   3.069   2.745  0.00  0.00    -0.263 NA
ATOM     10  C   UNL     1      10.952   3.347   4.033  0.00  0.00    +0.111 A 
ATOM     11  C   UNL     1      10.737   2.360   4.977  0.00  0.00    +0.020 A 
ATOM     12  C   UNL     1      10.475   1.067   4.552  0.00  0.00    +0.008 A 
ENDBRANCH   3   7
TORSDOF 1
ENDMDL
MODEL 4
REMARK VINA RESULT:    -2.927      1.526      4.633
REMARK INTER + INTRA:          -3.308
REMARK INTER:                  -3.068
REMARK INTRA:                  -0.240
REMARK UNBOUND:                -0.210
REMARK  Name = Nicotine.pdb
REMARK  2 active torsions:
REMARK  status: ('A' for Active; 'I' for Inactive)
REMARK    1  A    between atoms: C_3  and  C_6
REMARK    2  A    between atoms: N_4  and  C_12
REMARK                            x       y       z     vdW  Elec       q    Type
REMARK                         _______ _______ _______ _____ _____    ______ ____
ROOT
ATOM      1  C   UNL     1       9.089  -0.374   1.750  0.00  0.00    +0.017 C 
ATOM      2  C   UNL     1       8.642  -1.659   2.496  0.00  0.00    +0.025 C 
ATOM      3  C   UNL     1       9.203  -1.447   3.918  0.00  0.00    +0.088 C 
ATOM      4  N   UNL     1      10.310  -0.480   3.812  0.00  0.00    -0.298 NA
ATOM      5  C   UNL     1      10.474  -0.106   2.390  0.00  0.00    +0.085 C 
ATOM      6  C   UNL     1      10.058   0.705   4.642  0.00  0.00    +0.105 C 
ENDROOT
BRANCH   3   7
ATOM      7  C   UNL     1       9.713  -2.754   4.468  0.00  0.00    -0.012 A 
ATOM      8  C   UNL     1       9.394  -3.143   5.755  0.00  0.00    +0.115 A 
ATOM      9  N   UNL     1       9.836  -4.285   6.244  0.00  0.00    -0.263 NA
ATOM     10  C   UNL     1      10.594  -5.096   5.533  0.00  0.00    +0.111 A 
ATOM     11  C   UNL     1      10.954  -4.774   4.237  0.00  0.00    +0.020 A 
ATOM     12  C   UNL     1      10.503  -3.584   3.688  0.00  0.00    +0.008 A 
ENDBRANCH   3   7
TORSDOF 1
ENDMDL
MODEL 5
REMARK VINA RESULT:    -2.164      1.800      2.769
REMARK INTER + INTRA:          -2.500
REMARK INTER:                  -2.287
REMARK INTRA:                  -0.214
REMARK UNBOUND:                -0.210
REMARK  Name = Nicotine.pdb
REMARK  2 active torsions:
REMARK  status: ('A' for Active; 'I' for Inactive)
REMARK    1  A    between atoms: C_3  and  C_6
REMARK    2  A    between atoms: N_4  and  C_12
REMARK                            x       y       z     vdW  Elec       q    Type
REMARK                         _______ _______ _______ _____ _____    ______ ____
ROOT
ATOM      1  C   UNL     1       7.484  -2.015   2.455  0.00  0.00    +0.017 C 
ATOM      2  C   UNL     1       8.063  -1.107   1.337  0.00  0.00    +0.025 C 
ATOM      3  C   UNL     1       9.549  -0.974   1.733  0.00  0.00    +0.088 C 
ATOM      4  N   UNL     1       9.644  -1.260   3.176  0.00  0.00    -0.298 NA
ATOM      5  C   UNL     1       8.287  -1.539   3.691  0.00  0.00    +0.085 C 
ATOM      6  C   UNL     1      10.546  -2.391   3.430  0.00  0.00    +0.105 C 
ENDROOT
BRANCH   3   7
ATOM      7  C   UNL     1      10.030   0.427   1.454  0.00  0.00    -0.012 A 
ATOM      8  C   UNL     1       9.991   0.936   0.170  0.00  0.00    +0.115 A 
ATOM      9  N   UNL     1      10.410   2.161  -0.082  0.00  0.00    -0.263 NA
ATOM     10  C   UNL     1      10.879   2.943   0.870  0.00  0.00    +0.111 A 
ATOM     11  C   UNL     1      10.947   2.502   2.178  0.00  0.00    +0.020 A 
ATOM     12  C   UNL     1      10.511   1.222   2.483  0.00  0.00    +0.008 A 
ENDBRANCH   3   7
TORSDOF 1
ENDMDL
MODEL 6
REMARK VINA RESULT:    -2.110      4.352      6.515
REMARK INTER + INTRA:          -2.444
REMARK INTER:                  -2.259
REMARK INTRA:                  -0.184
REMARK UNBOUND:                -0.210
REMARK  Name = Nicotine.pdb
REMARK  2 active torsions:
REMARK  status: ('A' for Active; 'I' for Inactive)
REMARK    1  A    between atoms: C_3  and  C_6
REMARK    2  A    between atoms: N_4  and  C_12
REMARK                            x       y       z     vdW  Elec       q    Type
REMARK                         _______ _______ _______ _____ _____    ______ ____
ROOT
ATOM      1  C   UNL     1       8.532   5.881   5.754  0.00  0.00    +0.017 C 
ATOM      2  C   UNL     1       9.270   4.548   6.042  0.00  0.00    +0.025 C 
ATOM      3  C   UNL     1      10.250   4.429   4.855  0.00  0.00    +0.088 C 
ATOM      4  N   UNL     1       9.712   5.257   3.761  0.00  0.00    -0.298 NA
ATOM      5  C   UNL     1       8.438   5.859   4.208  0.00  0.00    +0.085 C 
ATOM      6  C   UNL     1      10.673   6.294   3.363  0.00  0.00    +0.105 C 
ENDROOT
BRANCH   3   7
ATOM      7  C   UNL     1      10.347   2.992   4.412  0.00  0.00    -0.012 A 
ATOM      8  C   UNL     1      10.092   1.967   5.304  0.00  0.00    +0.115 A 
ATOM      9  N   UNL     1      10.175   0.707   4.924  0.00  0.00    -0.263 NA
ATOM     10  C   UNL     1      10.502   0.375   3.691  0.00  0.00    +0.111 A 
ATOM     11  C   UNL     1      10.770   1.345   2.744  0.00  0.00    +0.020 A 
ATOM     12  C   UNL     1      10.688   2.681   3.105  0.00  0.00    +0.008 A 
ENDBRANCH   3   7
TORSDOF 1
ENDMDL
MODEL 7
REMARK VINA RESULT:    -1.573      2.728      4.310
REMARK INTER + INTRA:          -1.875
REMARK INTER:                  -1.670
REMARK INTRA:                  -0.205
REMARK UNBOUND:                -0.210
REMARK  Name = Nicotine.pdb
REMARK  2 active torsions:
REMARK  status: ('A' for Active; 'I' for Inactive)
REMARK    1  A    between atoms: C_3  and  C_6
REMARK    2  A    between atoms: N_4  and  C_12
REMARK                            x       y       z     vdW  Elec       q    Type
REMARK                         _______ _______ _______ _____ _____    ______ ____
ROOT
ATOM      1  C   UNL     1       8.852  -2.379   1.171  0.00  0.00    +0.017 C 
ATOM      2  C   UNL     1       9.720  -1.808   0.019  0.00  0.00    +0.025 C 
ATOM      3  C   UNL     1      10.302  -0.516   0.631  0.00  0.00    +0.088 C 
ATOM      4  N   UNL     1       9.412  -0.116   1.736  0.00  0.00    -0.298 NA
ATOM      5  C   UNL     1       8.298  -1.085   1.817  0.00  0.00    +0.085 C 
ATOM      6  C   UNL     1      10.146  -0.050   3.006  0.00  0.00    +0.105 C 
ENDROOT
BRANCH   3   7
ATOM      7  C   UNL     1      10.346   0.571  -0.412  0.00  0.00    -0.012 A 
ATOM      8  C   UNL     1      10.907   0.328  -1.651  0.00  0.00    +0.115 A 
ATOM      9  N   UNL     1      10.950   1.274  -2.570  0.00  0.00    -0.263 NA
ATOM     10  C   UNL     1      10.463   2.478  -2.347  0.00  0.00    +0.111 A 
ATOM     11  C   UNL     1       9.885   2.795  -1.132  0.00  0.00    +0.020 A 
ATOM     12  C   UNL     1       9.818   1.825  -0.144  0.00  0.00    +0.008 A 
ENDBRANCH   3   7
TORSDOF 1
ENDMDL
MODEL 8
REMARK VINA RESULT:    -1.210      7.006      7.722
REMARK INTER + INTRA:          -1.491
REMARK INTER:                  -1.287
REMARK INTRA:                  -0.205
REMARK UNBOUND:                -0.210
REMARK  Name = Nicotine.pdb
REMARK  2 active torsions:
REMARK  status: ('A' for Active; 'I' for Inactive)
REMARK    1  A    between atoms: C_3  and  C_6
REMARK    2  A    between atoms: N_4  and  C_12
REMARK                            x       y       z     vdW  Elec       q    Type
REMARK                         _______ _______ _______ _____ _____    ______ ____
ROOT
ATOM      1  C   UNL     1       7.891   6.296   6.000  0.00  0.00    +0.017 C 
ATOM      2  C   UNL     1       7.908   5.690   4.572  0.00  0.00    +0.025 C 
ATOM      3  C   UNL     1       9.388   5.294   4.381  0.00  0.00    +0.088 C 
ATOM      4  N   UNL     1      10.183   6.110   5.317  0.00  0.00    -0.298 NA
ATOM      5  C   UNL     1       9.267   7.006   6.055  0.00  0.00    +0.085 C 
ATOM      6  C   UNL     1      10.947   5.260   6.239  0.00  0.00    +0.105 C 
ENDROOT
BRANCH   3   7
ATOM      7  C   UNL     1       9.815   5.575   2.964  0.00  0.00    -0.012 A 
ATOM      8  C   UNL     1       9.444   6.753   2.342  0.00  0.00    +0.115 A 
ATOM      9  N   UNL     1       9.813   7.007   1.102  0.00  0.00    -0.263 NA
ATOM     10  C   UNL     1      10.544   6.157   0.409  0.00  0.00    +0.111 A 
ATOM     11  C   UNL     1      10.954   4.959   0.964  0.00  0.00    +0.020 A 
ATOM     12  C   UNL     1      10.589   4.660   2.268  0.00  0.00    +0.008 A 
ENDBRANCH   3   7
TORSDOF 1
ENDMDL
