MODEL 1
REMARK VINA RESULT:    -3.076      0.000      0.000
REMARK INTER + INTRA:          -3.448
REMARK INTER:                  -3.256
REMARK INTRA:                  -0.192
REMARK UNBOUND:                -0.192
REMARK  Name = Nicotine.pdb
REMARK  2 active torsions:
REMARK  status: ('A' for Active; 'I' for Inactive)
REMARK    1  A    between atoms: C_3  and  C_6
REMARK    2  A    between atoms: N_4  and  C_12
REMARK                            x       y       z     vdW  Elec       q    Type
REMARK                         _______ _______ _______ _____ _____    ______ ____
ROOT
ATOM      1  C   UNL     1       4.727   6.947  -3.549  0.00  0.00    +0.017 C 
ATOM      2  C   UNL     1       6.213   7.008  -3.992  0.00  0.00    +0.025 C 
ATOM      3  C   UNL     1       6.134   6.738  -5.509  0.00  0.00    +0.088 C 
ATOM      4  N   UNL     1       4.864   6.034  -5.763  0.00  0.00    -0.298 NA
ATOM      5  C   UNL     1       4.170   5.835  -4.473  0.00  0.00    +0.085 C 
ATOM      6  C   UNL     1       4.023   6.786  -6.703  0.00  0.00    +0.105 C 
ENDROOT
BRANCH   3   7
ATOM      7  C   UNL     1       7.294   5.877  -5.938  0.00  0.00    -0.012 A 
ATOM      8  C   UNL     1       8.546   6.065  -5.385  0.00  0.00    +0.115 A 
ATOM      9  N   UNL     1       9.566   5.316  -5.754  0.00  0.00    -0.263 NA
ATOM     10  C   UNL     1       9.437   4.366  -6.659  0.00  0.00    +0.111 A 
ATOM     11  C   UNL     1       8.214   4.119  -7.256  0.00  0.00    +0.020 A 
ATOM     12  C   UNL     1       7.117   4.883  -6.889  0.00  0.00    +0.008 A 
ENDBRANCH   3   7
TORSDOF 1
ENDMDL
MODEL 2
REMARK VINA RESULT:    -2.082      1.163      2.198
REMARK INTER + INTRA:          -2.396
REMARK INTER:                  -2.149
REMARK INTRA:                  -0.247
REMARK UNBOUND:                -0.192
REMARK  Name = Nicotine.pdb
REMARK  2 active torsions:
REMARK  status: ('A' for Active; 'I' for Inactive)
REMARK    1  A    between atoms: C_3  and  C_6
REMARK    2  A    between atoms: N_4  and  C_12
REMARK                            x       y       z     vdW  Elec       q    Type
REMARK                         _______ _______ _______ _____ _____    ______ ____
ROOT
ATOM      1  C   UNL     1       3.789   6.994  -6.060  0.00  0.00    +0.017 C 
ATOM      2  C   UNL     1       5.197   7.028  -6.711  0.00  0.00    +0.025 C 
ATOM      3  C   UNL     1       5.799   5.665  -6.307  0.00  0.00    +0.088 C 
ATOM      4  N   UNL     1       5.073   5.204  -5.110  0.00  0.00    -0.298 NA
ATOM      5  C   UNL     1       4.071   6.228  -4.744  0.00  0.00    +0.085 C 
ATOM      6  C   UNL     1       4.434   3.904  -5.349  0.00  0.00    +0.105 C 
ENDROOT
BRANCH   3   7
ATOM      7  C   UNL     1       7.263   5.826  -5.990  0.00  0.00    -0.012 A 
ATOM      8  C   UNL     1       8.178   4.882  -6.415  0.00  0.00    +0.115 A 
ATOM      9  N   UNL     1       9.462   5.015  -6.142  0.00  0.00    -0.263 NA
ATOM     10  C   UNL     1       9.921   6.043  -5.458  0.00  0.00    +0.111 A 
ATOM     11  C   UNL     1       9.066   7.028  -4.999  0.00  0.00    +0.020 A 
ATOM     12  C   UNL     1       7.711   6.925  -5.272  0.00  0.00    +0.008 A 
ENDBRANCH   3   7
TORSDOF 1
ENDMDL
MODEL 3
REMARK VINA RESULT:    -1.704     13.782     15.062
REMARK INTER + INTRA:          -1.995
REMARK INTER:                  -1.827
REMARK INTRA:                  -0.168
REMARK UNBOUND:                -0.192
REMARK  Name = Nicotine.pdb
REMARK  2 active torsions:
REMARK  status: ('A' for Active; 'I' for Inactive)
REMARK    1  A    between atoms: C_3  and  C_6
REMARK    2  A    between atoms: N_4  and  C_12
REMARK                            x       y       z     vdW  Elec       q    Type
REMARK                         _______ _______ _______ _____ _____    ______ ____
ROOT
ATOM      1  C   UNL     1       3.822  -6.019   0.205  0.00  0.00    +0.017 C 
ATOM      2  C   UNL     1       2.713  -6.049   1.290  0.00  0.00    +0.025 C 
ATOM      3  C   UNL     1       3.017  -4.792   2.132  0.00  0.00    +0.088 C 
ATOM      4  N   UNL     1       4.436  -4.455   1.917  0.00  0.00    -0.298 NA
ATOM      5  C   UNL     1       5.025  -5.457   1.004  0.00  0.00    +0.085 C 
ATOM      6  C   UNL     1       4.578  -3.098   1.373  0.00  0.00    +0.105 C 
ENDROOT
BRANCH   3   7
ATOM      7  C   UNL     1       2.773  -5.082   3.591  0.00  0.00    -0.012 A 
ATOM      8  C   UNL     1       3.675  -5.839   4.314  0.00  0.00    +0.115 A 
ATOM      9  N   UNL     1       3.469  -6.097   5.591  0.00  0.00    -0.263 NA
ATOM     10  C   UNL     1       2.405  -5.647   6.225  0.00  0.00    +0.111 A 
ATOM     11  C   UNL     1       1.460  -4.882   5.568  0.00  0.00    +0.020 A 
ATOM     12  C   UNL     1       1.645  -4.587   4.226  0.00  0.00    +0.008 A 
ENDBRANCH   3   7
TORSDOF 1
ENDMDL
MODEL 4
REMARK VINA RESULT:    -1.388      1.998      4.680
REMARK INTER + INTRA:          -1.661
REMARK INTER:                  -1.409
REMARK INTRA:                  -0.252
REMARK UNBOUND:                -0.192
REMARK  Name = Nicotine.pdb
REMARK  2 active torsions:
REMARK  status: ('A' for Active; 'I' for Inactive)
REMARK    1  A    between atoms: C_3  and  C_6
REMARK    2  A    between atoms: N_4  and  C_12
REMARK                            x       y       z     vdW  Elec       q    Type
REMARK                         _______ _______ _______ _____ _____    ______ ____
ROOT
ATOM      1  C   UNL     1       7.251   5.375  -3.632  0.00  0.00    +0.017 C 
ATOM      2  C   UNL     1       5.886   4.934  -4.224  0.00  0.00    +0.025 C 
ATOM      3  C   UNL     1       5.802   5.738  -5.539  0.00  0.00    +0.088 C 
ATOM      4  N   UNL     1       6.696   6.901  -5.398  0.00  0.00    -0.298 NA
ATOM      5  C   UNL     1       7.307   6.865  -4.052  0.00  0.00    +0.085 C 
ATOM      6  C   UNL     1       7.727   6.904  -6.444  0.00  0.00    +0.105 C 
ENDROOT
BRANCH   3   7
ATOM      7  C   UNL     1       4.386   6.202  -5.766  0.00  0.00    -0.012 A 
ATOM      8  C   UNL     1       3.860   6.243  -7.043  0.00  0.00    +0.115 A 
ATOM      9  N   UNL     1       2.623   6.648  -7.251  0.00  0.00    -0.263 NA
ATOM     10  C   UNL     1       1.842   7.028  -6.258  0.00  0.00    +0.111 A 
ATOM     11  C   UNL     1       2.299   7.014  -4.954  0.00  0.00    +0.020 A 
ATOM     12  C   UNL     1       3.593   6.589  -4.696  0.00  0.00    +0.008 A 
ENDBRANCH   3   7
TORSDOF 1
ENDMDL
MODEL 5
REMARK VINA RESULT:    -1.167      1.658      2.345
REMARK INTER + INTRA:          -1.427
REMARK INTER:                  -1.204
REMARK INTRA:                  -0.223
REMARK UNBOUND:                -0.192
REMARK  Name = Nicotine.pdb
REMARK  2 active torsions:
REMARK  status: ('A' for Active; 'I' for Inactive)
REMARK    1  A    between atoms: C_3  and  C_6
REMARK    2  A    between atoms: N_4  and  C_12
REMARK                            x       y       z     vdW  Elec       q    Type
REMARK                         _______ _______ _______ _____ _____    ______ ____
ROOT
ATOM      1  C   UNL     1       4.225   4.218  -4.980  0.00  0.00    +0.017 C 
ATOM      2  C   UNL     1       5.340   5.057  -4.301  0.00  0.00    +0.025 C 
ATOM      3  C   UNL     1       5.618   6.167  -5.337  0.00  0.00    +0.088 C 
ATOM      4  N   UNL     1       5.161   5.667  -6.647  0.00  0.00    -0.298 NA
ATOM      5  C   UNL     1       4.639   4.295  -6.471  0.00  0.00    +0.085 C 
ATOM      6  C   UNL     1       4.138   6.551  -7.221  0.00  0.00    +0.105 C 
ENDROOT
BRANCH   3   7
ATOM      7  C   UNL     1       7.095   6.463  -5.387  0.00  0.00    -0.012 A 
ATOM      8  C   UNL     1       7.772   6.442  -6.592  0.00  0.00    +0.115 A 
ATOM      9  N   UNL     1       9.064   6.700  -6.644  0.00  0.00    -0.263 NA
ATOM     10  C   UNL     1       9.758   6.987  -5.560  0.00  0.00    +0.111 A 
ATOM     11  C   UNL     1       9.148   7.027  -4.320  0.00  0.00    +0.020 A 
ATOM     12  C   UNL     1       7.790   6.767  -4.227  0.00  0.00    +0.008 A 
ENDBRANCH   3   7
TORSDOF 1
ENDMDL
