MODEL 1
REMARK VINA RESULT:    -4.453      0.000      0.000
REMARK INTER + INTRA:          -4.931
REMARK INTER:                  -4.713
REMARK INTRA:                  -0.218
REMARK UNBOUND:                -0.218
REMARK  Name = Nicotine.pdb
REMARK  2 active torsions:
REMARK  status: ('A' for Active; 'I' for Inactive)
REMARK    1  A    between atoms: C_3  and  C_6
REMARK    2  A    between atoms: N_4  and  C_12
REMARK                            x       y       z     vdW  Elec       q    Type
REMARK                         _______ _______ _______ _____ _____    ______ ____
ROOT
ATOM      1  C   UNL     1       7.790   1.010   5.503  0.00  0.00    +0.017 C 
ATOM      2  C   UNL     1       8.711   1.303   4.290  0.00  0.00    +0.025 C 
ATOM      3  C   UNL     1       8.839   2.841   4.314  0.00  0.00    +0.088 C 
ATOM      4  N   UNL     1       7.677   3.364   5.056  0.00  0.00    -0.298 NA
ATOM      5  C   UNL     1       6.829   2.225   5.467  0.00  0.00    +0.085 C 
ATOM      6  C   UNL     1       8.106   4.149   6.221  0.00  0.00    +0.105 C 
ENDROOT
BRANCH   3   7
ATOM      7  C   UNL     1       8.834   3.379   2.907  0.00  0.00    -0.012 A 
ATOM      8  C   UNL     1       8.127   4.525   2.598  0.00  0.00    +0.115 A 
ATOM      9  N   UNL     1       8.117   5.002   1.369  0.00  0.00    -0.263 NA
ATOM     10  C   UNL     1       8.775   4.411   0.391  0.00  0.00    +0.111 A 
ATOM     11  C   UNL     1       9.505   3.261   0.624  0.00  0.00    +0.020 A 
ATOM     12  C   UNL     1       9.543   2.733   1.905  0.00  0.00    +0.008 A 
ENDBRANCH   3   7
TORSDOF 1
ENDMDL
MODEL 2
REMARK VINA RESULT:    -4.243      1.489      1.824
REMARK INTER + INTRA:          -4.708
REMARK INTER:                  -4.491
REMARK INTRA:                  -0.218
REMARK UNBOUND:                -0.218
REMARK  Name = Nicotine.pdb
REMARK  2 active torsions:
REMARK  status: ('A' for Active; 'I' for Inactive)
REMARK    1  A    between atoms: C_3  and  C_6
REMARK    2  A    between atoms: N_4  and  C_12
REMARK                            x       y       z     vdW  Elec       q    Type
REMARK                         _______ _______ _______ _____ _____    ______ ____
ROOT
ATOM      1  C   UNL     1       6.013   3.301   5.895  0.00  0.00    +0.017 C 
ATOM      2  C   UNL     1       7.274   2.880   5.096  0.00  0.00    +0.025 C 
ATOM      3  C   UNL     1       7.780   4.219   4.517  0.00  0.00    +0.088 C 
ATOM      4  N   UNL     1       6.635   5.146   4.495  0.00  0.00    -0.298 NA
ATOM      5  C   UNL     1       5.444   4.436   5.007  0.00  0.00    +0.085 C 
ATOM      6  C   UNL     1       6.915   6.349   5.290  0.00  0.00    +0.105 C 
ENDROOT
BRANCH   3   7
ATOM      7  C   UNL     1       8.299   4.009   3.118  0.00  0.00    -0.012 A 
ATOM      8  C   UNL     1       7.989   4.908   2.115  0.00  0.00    +0.115 A 
ATOM      9  N   UNL     1       8.440   4.732   0.888  0.00  0.00    -0.263 NA
ATOM     10  C   UNL     1       9.196   3.700   0.569  0.00  0.00    +0.111 A 
ATOM     11  C   UNL     1       9.548   2.760   1.519  0.00  0.00    +0.020 A 
ATOM     12  C   UNL     1       9.098   2.915   2.821  0.00  0.00    +0.008 A 
ENDBRANCH   3   7
TORSDOF 1
ENDMDL
MODEL 3
REMARK VINA RESULT:    -4.045      1.979      4.549
REMARK INTER + INTRA:          -4.499
REMARK INTER:                  -4.285
REMARK INTRA:                  -0.214
REMARK UNBOUND:                -0.218
REMARK  Name = Nicotine.pdb
REMARK  2 active torsions:
REMARK  status: ('A' for Active; 'I' for Inactive)
REMARK    1  A    between atoms: C_3  and  C_6
REMARK    2  A    between atoms: N_4  and  C_12
REMARK                            x       y       z     vdW  Elec       q    Type
REMARK                         _______ _______ _______ _____ _____    ______ ____
ROOT
ATOM      1  C   UNL     1       9.678   3.762   0.655  0.00  0.00    +0.017 C 
ATOM      2  C   UNL     1       9.124   2.541   1.435  0.00  0.00    +0.025 C 
ATOM      3  C   UNL     1       9.084   3.049   2.892  0.00  0.00    +0.088 C 
ATOM      4  N   UNL     1      10.039   4.167   2.991  0.00  0.00    -0.298 NA
ATOM      5  C   UNL     1      10.683   4.355   1.674  0.00  0.00    +0.085 C 
ATOM      6  C   UNL     1       9.367   5.397   3.429  0.00  0.00    +0.105 C 
ENDROOT
BRANCH   3   7
ATOM      7  C   UNL     1       9.488   1.943   3.832  0.00  0.00    -0.012 A 
ATOM      8  C   UNL     1       8.732   0.789   3.920  0.00  0.00    +0.115 A 
ATOM      9  N   UNL     1       9.078  -0.184   4.740  0.00  0.00    -0.263 NA
ATOM     10  C   UNL     1      10.149  -0.098   5.504  0.00  0.00    +0.111 A 
ATOM     11  C   UNL     1      10.954   1.026   5.471  0.00  0.00    +0.020 A 
ATOM     12  C   UNL     1      10.624   2.067   4.616  0.00  0.00    +0.008 A 
ENDBRANCH   3   7
TORSDOF 1
ENDMDL
MODEL 4
REMARK VINA RESULT:    -3.963      1.436      4.667
REMARK INTER + INTRA:          -4.412
REMARK INTER:                  -4.197
REMARK INTRA:                  -0.215
REMARK UNBOUND:                -0.218
REMARK  Name = Nicotine.pdb
REMARK  2 active torsions:
REMARK  status: ('A' for Active; 'I' for Inactive)
REMARK    1  A    between atoms: C_3  and  C_6
REMARK    2  A    between atoms: N_4  and  C_12
REMARK                            x       y       z     vdW  Elec       q    Type
REMARK                         _______ _______ _______ _____ _____    ______ ____
ROOT
ATOM      1  C   UNL     1       8.329   5.125   1.332  0.00  0.00    +0.017 C 
ATOM      2  C   UNL     1       8.115   4.745   2.821  0.00  0.00    +0.025 C 
ATOM      3  C   UNL     1       9.179   3.652   3.057  0.00  0.00    +0.088 C 
ATOM      4  N   UNL     1       9.521   3.084   1.740  0.00  0.00    -0.298 NA
ATOM      5  C   UNL     1       8.701   3.756   0.710  0.00  0.00    +0.085 C 
ATOM      6  C   UNL     1      10.954   3.237   1.456  0.00  0.00    +0.105 C 
ENDROOT
BRANCH   3   7
ATOM      7  C   UNL     1       8.621   2.576   3.952  0.00  0.00    -0.012 A 
ATOM      8  C   UNL     1       9.071   1.274   3.844  0.00  0.00    +0.115 A 
ATOM      9  N   UNL     1       8.587   0.327   4.623  0.00  0.00    -0.263 NA
ATOM     10  C   UNL     1       7.663   0.579   5.529  0.00  0.00    +0.111 A 
ATOM     11  C   UNL     1       7.165   1.858   5.695  0.00  0.00    +0.020 A 
ATOM     12  C   UNL     1       7.653   2.881   4.897  0.00  0.00    +0.008 A 
ENDBRANCH   3   7
TORSDOF 1
ENDMDL
MODEL 5
REMARK VINA RESULT:    -3.653      1.732      4.247
REMARK INTER + INTRA:          -4.085
REMARK INTER:                  -3.878
REMARK INTRA:                  -0.207
REMARK UNBOUND:                -0.218
REMARK  Name = Nicotine.pdb
REMARK  2 active torsions:
REMARK  status: ('A' for Active; 'I' for Inactive)
REMARK    1  A    between atoms: C_3  and  C_6
REMARK    2  A    between atoms: N_4  and  C_12
REMARK                            x       y       z     vdW  Elec       q    Type
REMARK                         _______ _______ _______ _____ _____    ______ ____
ROOT
ATOM      1  C   UNL     1       9.282   3.958   0.700  0.00  0.00    +0.017 C 
ATOM      2  C   UNL     1       8.392   4.779   1.669  0.00  0.00    +0.025 C 
ATOM      3  C   UNL     1       8.885   4.326   3.060  0.00  0.00    +0.088 C 
ATOM      4  N   UNL     1       9.526   3.010   2.889  0.00  0.00    -0.298 NA
ATOM      5  C   UNL     1       9.429   2.620   1.467  0.00  0.00    +0.085 C 
ATOM      6  C   UNL     1      10.926   3.044   3.332  0.00  0.00    +0.105 C 
ENDROOT
BRANCH   3   7
ATOM      7  C   UNL     1       7.717   4.210   4.005  0.00  0.00    -0.012 A 
ATOM      8  C   UNL     1       6.836   5.264   4.160  0.00  0.00    +0.115 A 
ATOM      9  N   UNL     1       5.811   5.170   4.985  0.00  0.00    -0.263 NA
ATOM     10  C   UNL     1       5.587   4.080   5.691  0.00  0.00    +0.111 A 
ATOM     11  C   UNL     1       6.426   2.986   5.588  0.00  0.00    +0.020 A 
ATOM     12  C   UNL     1       7.510   3.045   4.727  0.00  0.00    +0.008 A 
ENDBRANCH   3   7
TORSDOF 1
ENDMDL
MODEL 6
REMARK VINA RESULT:    -3.304      2.051      4.088
REMARK INTER + INTRA:          -3.714
REMARK INTER:                  -3.518
REMARK INTRA:                  -0.197
REMARK UNBOUND:                -0.218
REMARK  Name = Nicotine.pdb
REMARK  2 active torsions:
REMARK  status: ('A' for Active; 'I' for Inactive)
REMARK    1  A    between atoms: C_3  and  C_6
REMARK    2  A    between atoms: N_4  and  C_12
REMARK                            x       y       z     vdW  Elec       q    Type
REMARK                         _______ _______ _______ _____ _____    ______ ____
ROOT
ATOM      1  C   UNL     1       8.356   6.700   3.700  0.00  0.00    +0.017 C 
ATOM      2  C   UNL     1       8.252   5.264   3.122  0.00  0.00    +0.025 C 
ATOM      3  C   UNL     1       7.307   4.557   4.117  0.00  0.00    +0.088 C 
ATOM      4  N   UNL     1       7.366   5.308   5.384  0.00  0.00    -0.298 NA
ATOM      5  C   UNL     1       8.320   6.427   5.225  0.00  0.00    +0.085 C 
ATOM      6  C   UNL     1       6.037   5.800   5.768  0.00  0.00    +0.105 C 
ENDROOT
BRANCH   3   7
ATOM      7  C   UNL     1       7.765   3.139   4.339  0.00  0.00    -0.012 A 
ATOM      8  C   UNL     1       8.827   2.626   3.619  0.00  0.00    +0.115 A 
ATOM      9  N   UNL     1       9.233   1.386   3.807  0.00  0.00    -0.263 NA
ATOM     10  C   UNL     1       8.650   0.590   4.681  0.00  0.00    +0.111 A 
ATOM     11  C   UNL     1       7.581   1.033   5.438  0.00  0.00    +0.020 A 
ATOM     12  C   UNL     1       7.129   2.333   5.272  0.00  0.00    +0.008 A 
ENDBRANCH   3   7
TORSDOF 1
ENDMDL
MODEL 7
REMARK VINA RESULT:    -3.241      1.875      4.118
REMARK INTER + INTRA:          -3.648
REMARK INTER:                  -3.392
REMARK INTRA:                  -0.255
REMARK UNBOUND:                -0.218
REMARK  Name = Nicotine.pdb
REMARK  2 active torsions:
REMARK  status: ('A' for Active; 'I' for Inactive)
REMARK    1  A    between atoms: C_3  and  C_6
REMARK    2  A    between atoms: N_4  and  C_12
REMARK                            x       y       z     vdW  Elec       q    Type
REMARK                         _______ _______ _______ _____ _____    ______ ____
ROOT
ATOM      1  C   UNL     1       8.844   5.480   3.018  0.00  0.00    +0.017 C 
ATOM      2  C   UNL     1       9.207   3.993   2.768  0.00  0.00    +0.025 C 
ATOM      3  C   UNL     1       8.254   3.238   3.718  0.00  0.00    +0.088 C 
ATOM      4  N   UNL     1       7.851   4.184   4.775  0.00  0.00    -0.298 NA
ATOM      5  C   UNL     1       8.530   5.475   4.535  0.00  0.00    +0.085 C 
ATOM      6  C   UNL     1       6.393   4.353   4.804  0.00  0.00    +0.105 C 
ENDROOT
BRANCH   3   7
ATOM      7  C   UNL     1       8.966   2.059   4.328  0.00  0.00    -0.012 A 
ATOM      8  C   UNL     1       8.254   0.943   4.728  0.00  0.00    +0.115 A 
ATOM      9  N   UNL     1       8.870  -0.093   5.263  0.00  0.00    -0.263 NA
ATOM     10  C   UNL     1      10.176  -0.109   5.437  0.00  0.00    +0.111 A 
ATOM     11  C   UNL     1      10.954   0.970   5.061  0.00  0.00    +0.020 A 
ATOM     12  C   UNL     1      10.343   2.076   4.490  0.00  0.00    +0.008 A 
ENDBRANCH   3   7
TORSDOF 1
ENDMDL
MODEL 8
REMARK VINA RESULT:    -3.238      1.490      2.536
REMARK INTER + INTRA:          -3.644
REMARK INTER:                  -3.422
REMARK INTRA:                  -0.222
REMARK UNBOUND:                -0.218
REMARK  Name = Nicotine.pdb
REMARK  2 active torsions:
REMARK  status: ('A' for Active; 'I' for Inactive)
REMARK    1  A    between atoms: C_3  and  C_6
REMARK    2  A    between atoms: N_4  and  C_12
REMARK                            x       y       z     vdW  Elec       q    Type
REMARK                         _______ _______ _______ _____ _____    ______ ____
ROOT
ATOM      1  C   UNL     1       8.284   4.897   5.960  0.00  0.00    +0.017 C 
ATOM      2  C   UNL     1       7.999   5.008   4.439  0.00  0.00    +0.025 C 
ATOM      3  C   UNL     1       8.388   3.611   3.910  0.00  0.00    +0.088 C 
ATOM      4  N   UNL     1       9.318   3.018   4.887  0.00  0.00    -0.298 NA
ATOM      5  C   UNL     1       9.540   3.991   5.978  0.00  0.00    +0.085 C 
ATOM      6  C   UNL     1       8.795   1.750   5.411  0.00  0.00    +0.105 C 
ENDROOT
BRANCH   3   7
ATOM      7  C   UNL     1       9.064   3.740   2.570  0.00  0.00    -0.012 A 
ATOM      8  C   UNL     1      10.355   3.281   2.391  0.00  0.00    +0.115 A 
ATOM      9  N   UNL     1      10.954   3.390   1.221  0.00  0.00    -0.263 NA
ATOM     10  C   UNL     1      10.352   3.936   0.183  0.00  0.00    +0.111 A 
ATOM     11  C   UNL     1       9.060   4.417   0.286  0.00  0.00    +0.020 A 
ATOM     12  C   UNL     1       8.397   4.315   1.499  0.00  0.00    +0.008 A 
ENDBRANCH   3   7
TORSDOF 1
ENDMDL
MODEL 9
REMARK VINA RESULT:    -3.048      2.645      4.902
REMARK INTER + INTRA:          -3.443
REMARK INTER:                  -3.227
REMARK INTRA:                  -0.217
REMARK UNBOUND:                -0.218
REMARK  Name = Nicotine.pdb
REMARK  2 active torsions:
REMARK  status: ('A' for Active; 'I' for Inactive)
REMARK    1  A    between atoms: C_3  and  C_6
REMARK    2  A    between atoms: N_4  and  C_12
REMARK                            x       y       z     vdW  Elec       q    Type
REMARK                         _______ _______ _______ _____ _____    ______ ____
ROOT
ATOM      1  C   UNL     1       9.688   5.351   3.836  0.00  0.00    +0.017 C 
ATOM      2  C   UNL     1       8.653   5.829   4.889  0.00  0.00    +0.025 C 
ATOM      3  C   UNL     1       7.814   4.559   5.151  0.00  0.00    +0.088 C 
ATOM      4  N   UNL     1       7.972   3.681   3.978  0.00  0.00    -0.298 NA
ATOM      5  C   UNL     1       8.845   4.359   2.996  0.00  0.00    +0.085 C 
ATOM      6  C   UNL     1       8.527   2.378   4.366  0.00  0.00    +0.105 C 
ENDROOT
BRANCH   3   7
ATOM      7  C   UNL     1       6.364   4.930   5.325  0.00  0.00    -0.012 A 
ATOM      8  C   UNL     1       5.374   3.983   5.142  0.00  0.00    +0.115 A 
ATOM      9  N   UNL     1       4.103   4.299   5.293  0.00  0.00    -0.263 NA
ATOM     10  C   UNL     1       3.726   5.519   5.621  0.00  0.00    +0.111 A 
ATOM     11  C   UNL     1       4.659   6.518   5.821  0.00  0.00    +0.020 A 
ATOM     12  C   UNL     1       6.006   6.222   5.676  0.00  0.00    +0.008 A 
ENDBRANCH   3   7
TORSDOF 1
ENDMDL
MODEL 10
REMARK VINA RESULT:    -3.022      2.595      3.999
REMARK INTER + INTRA:          -3.416
REMARK INTER:                  -3.212
REMARK INTRA:                  -0.204
REMARK UNBOUND:                -0.218
REMARK  Name = Nicotine.pdb
REMARK  2 active torsions:
REMARK  status: ('A' for Active; 'I' for Inactive)
REMARK    1  A    between atoms: C_3  and  C_6
REMARK    2  A    between atoms: N_4  and  C_12
REMARK                            x       y       z     vdW  Elec       q    Type
REMARK                         _______ _______ _______ _____ _____    ______ ____
ROOT
ATOM      1  C   UNL     1       5.707   4.419   5.025  0.00  0.00    +0.017 C 
ATOM      2  C   UNL     1       6.292   3.141   5.682  0.00  0.00    +0.025 C 
ATOM      3  C   UNL     1       7.804   3.444   5.744  0.00  0.00    +0.088 C 
ATOM      4  N   UNL     1       8.086   4.472   4.726  0.00  0.00    -0.298 NA
ATOM      5  C   UNL     1       6.826   4.796   4.023  0.00  0.00    +0.085 C 
ATOM      6  C   UNL     1       8.674   5.672   5.336  0.00  0.00    +0.105 C 
ENDROOT
BRANCH   3   7
ATOM      7  C   UNL     1       8.591   2.195   5.445  0.00  0.00    -0.012 A 
ATOM      8  C   UNL     1       7.939   1.014   5.141  0.00  0.00    +0.115 A 
ATOM      9  N   UNL     1       8.619  -0.084   4.878  0.00  0.00    -0.263 NA
ATOM     10  C   UNL     1       9.937  -0.103   4.894  0.00  0.00    +0.111 A 
ATOM     11  C   UNL     1      10.658   1.039   5.189  0.00  0.00    +0.020 A 
ATOM     12  C   UNL     1       9.977   2.215   5.466  0.00  0.00    +0.008 A 
ENDBRANCH   3   7
TORSDOF 1
ENDMDL
