MODEL 1
REMARK VINA RESULT:    -3.419      0.000      0.000
REMARK INTER + INTRA:          -3.838
REMARK INTER:                  -3.618
REMARK INTRA:                  -0.220
REMARK UNBOUND:                -0.220
REMARK  Name = Nicotine.pdb
REMARK  2 active torsions:
REMARK  status: ('A' for Active; 'I' for Inactive)
REMARK    1  A    between atoms: C_3  and  C_6
REMARK    2  A    between atoms: N_4  and  C_12
REMARK                            x       y       z     vdW  Elec       q    Type
REMARK                         _______ _______ _______ _____ _____    ______ ____
ROOT
ATOM      1  C   UNL     1      -4.153   3.080  -6.034  0.00  0.00    +0.017 C 
ATOM      2  C   UNL     1      -2.834   3.447  -5.305  0.00  0.00    +0.025 C 
ATOM      3  C   UNL     1      -3.018   4.946  -4.987  0.00  0.00    +0.088 C 
ATOM      4  N   UNL     1      -4.020   5.473  -5.931  0.00  0.00    -0.298 NA
ATOM      5  C   UNL     1      -4.442   4.377  -6.830  0.00  0.00    +0.085 C 
ATOM      6  C   UNL     1      -5.171   6.040  -5.217  0.00  0.00    +0.105 C 
ENDROOT
BRANCH   3   7
ATOM      7  C   UNL     1      -1.711   5.673  -5.166  0.00  0.00    -0.012 A 
ATOM      8  C   UNL     1      -1.154   6.379  -4.117  0.00  0.00    +0.115 A 
ATOM      9  N   UNL     1      -0.010   7.018  -4.265  0.00  0.00    -0.263 NA
ATOM     10  C   UNL     1       0.644   7.011  -5.410  0.00  0.00    +0.111 A 
ATOM     11  C   UNL     1       0.149   6.327  -6.504  0.00  0.00    +0.020 A 
ATOM     12  C   UNL     1      -1.049   5.639  -6.384  0.00  0.00    +0.008 A 
ENDBRANCH   3   7
TORSDOF 1
ENDMDL
MODEL 2
REMARK VINA RESULT:    -3.218      1.800      4.370
REMARK INTER + INTRA:          -3.626
REMARK INTER:                  -3.408
REMARK INTRA:                  -0.218
REMARK UNBOUND:                -0.220
REMARK  Name = Nicotine.pdb
REMARK  2 active torsions:
REMARK  status: ('A' for Active; 'I' for Inactive)
REMARK    1  A    between atoms: C_3  and  C_6
REMARK    2  A    between atoms: N_4  and  C_12
REMARK                            x       y       z     vdW  Elec       q    Type
REMARK                         _______ _______ _______ _____ _____    ______ ____
ROOT
ATOM      1  C   UNL     1      -0.937   6.948  -4.298  0.00  0.00    +0.017 C 
ATOM      2  C   UNL     1      -1.746   6.405  -5.505  0.00  0.00    +0.025 C 
ATOM      3  C   UNL     1      -3.106   6.037  -4.875  0.00  0.00    +0.088 C 
ATOM      4  N   UNL     1      -2.879   5.836  -3.432  0.00  0.00    -0.298 NA
ATOM      5  C   UNL     1      -1.442   6.038  -3.149  0.00  0.00    +0.085 C 
ATOM      6  C   UNL     1      -3.707   6.751  -2.636  0.00  0.00    +0.105 C 
ENDROOT
BRANCH   3   7
ATOM      7  C   UNL     1      -3.631   4.767  -5.494  0.00  0.00    -0.012 A 
ATOM      8  C   UNL     1      -4.590   4.016  -4.841  0.00  0.00    +0.115 A 
ATOM      9  N   UNL     1      -5.054   2.904  -5.376  0.00  0.00    -0.263 NA
ATOM     10  C   UNL     1      -4.628   2.466  -6.544  0.00  0.00    +0.111 A 
ATOM     11  C   UNL     1      -3.671   3.165  -7.256  0.00  0.00    +0.020 A 
ATOM     12  C   UNL     1      -3.163   4.341  -6.728  0.00  0.00    +0.008 A 
ENDBRANCH   3   7
TORSDOF 1
ENDMDL
MODEL 3
REMARK VINA RESULT:    -3.136      1.559      4.470
REMARK INTER + INTRA:          -3.539
REMARK INTER:                  -3.316
REMARK INTRA:                  -0.223
REMARK UNBOUND:                -0.220
REMARK  Name = Nicotine.pdb
REMARK  2 active torsions:
REMARK  status: ('A' for Active; 'I' for Inactive)
REMARK    1  A    between atoms: C_3  and  C_6
REMARK    2  A    between atoms: N_4  and  C_12
REMARK                            x       y       z     vdW  Elec       q    Type
REMARK                         _______ _______ _______ _____ _____    ______ ____
ROOT
ATOM      1  C   UNL     1      -1.055   5.937  -3.617  0.00  0.00    +0.017 C 
ATOM      2  C   UNL     1      -1.523   4.587  -4.222  0.00  0.00    +0.025 C 
ATOM      3  C   UNL     1      -1.733   4.929  -5.713  0.00  0.00    +0.088 C 
ATOM      4  N   UNL     1      -1.937   6.386  -5.802  0.00  0.00    -0.298 NA
ATOM      5  C   UNL     1      -1.888   6.953  -4.437  0.00  0.00    +0.085 C 
ATOM      6  C   UNL     1      -0.927   7.008  -6.667  0.00  0.00    +0.105 C 
ENDROOT
BRANCH   3   7
ATOM      7  C   UNL     1      -2.947   4.207  -6.238  0.00  0.00    -0.012 A 
ATOM      8  C   UNL     1      -4.004   4.917  -6.775  0.00  0.00    +0.115 A 
ATOM      9  N   UNL     1      -5.070   4.292  -7.237  0.00  0.00    -0.263 NA
ATOM     10  C   UNL     1      -5.171   2.978  -7.207  0.00  0.00    +0.111 A 
ATOM     11  C   UNL     1      -4.153   2.202  -6.686  0.00  0.00    +0.020 A 
ATOM     12  C   UNL     1      -3.014   2.823  -6.195  0.00  0.00    +0.008 A 
ENDBRANCH   3   7
TORSDOF 1
ENDMDL
MODEL 4
REMARK VINA RESULT:    -2.883      1.848      2.777
REMARK INTER + INTRA:          -3.271
REMARK INTER:                  -3.103
REMARK INTRA:                  -0.168
REMARK UNBOUND:                -0.220
REMARK  Name = Nicotine.pdb
REMARK  2 active torsions:
REMARK  status: ('A' for Active; 'I' for Inactive)
REMARK    1  A    between atoms: C_3  and  C_6
REMARK    2  A    between atoms: N_4  and  C_12
REMARK                            x       y       z     vdW  Elec       q    Type
REMARK                         _______ _______ _______ _____ _____    ______ ____
ROOT
ATOM      1  C   UNL     1      -3.990   3.112  -6.347  0.00  0.00    +0.017 C 
ATOM      2  C   UNL     1      -4.027   3.550  -4.859  0.00  0.00    +0.025 C 
ATOM      3  C   UNL     1      -4.249   5.074  -4.950  0.00  0.00    +0.088 C 
ATOM      4  N   UNL     1      -3.796   5.502  -6.286  0.00  0.00    -0.298 NA
ATOM      5  C   UNL     1      -3.283   4.320  -7.010  0.00  0.00    +0.085 C 
ATOM      6  C   UNL     1      -4.886   6.145  -7.032  0.00  0.00    +0.105 C 
ENDROOT
BRANCH   3   7
ATOM      7  C   UNL     1      -3.445   5.775  -3.886  0.00  0.00    -0.012 A 
ATOM      8  C   UNL     1      -2.082   5.942  -4.037  0.00  0.00    +0.115 A 
ATOM      9  N   UNL     1      -1.371   6.554  -3.110  0.00  0.00    -0.263 NA
ATOM     10  C   UNL     1      -1.925   7.027  -2.011  0.00  0.00    +0.111 A 
ATOM     11  C   UNL     1      -3.283   6.898  -1.791  0.00  0.00    +0.020 A 
ATOM     12  C   UNL     1      -4.064   6.265  -2.746  0.00  0.00    +0.008 A 
ENDBRANCH   3   7
TORSDOF 1
ENDMDL
MODEL 5
REMARK VINA RESULT:    -2.540      5.656      7.269
REMARK INTER + INTRA:          -2.908
REMARK INTER:                  -2.674
REMARK INTRA:                  -0.234
REMARK UNBOUND:                -0.220
REMARK  Name = Nicotine.pdb
REMARK  2 active torsions:
REMARK  status: ('A' for Active; 'I' for Inactive)
REMARK    1  A    between atoms: C_3  and  C_6
REMARK    2  A    between atoms: N_4  and  C_12
REMARK                            x       y       z     vdW  Elec       q    Type
REMARK                         _______ _______ _______ _____ _____    ______ ____
ROOT
ATOM      1  C   UNL     1      -0.702   5.998   2.799  0.00  0.00    +0.017 C 
ATOM      2  C   UNL     1      -0.969   6.887   1.556  0.00  0.00    +0.025 C 
ATOM      3  C   UNL     1      -2.506   7.028   1.554  0.00  0.00    +0.088 C 
ATOM      4  N   UNL     1      -3.050   5.892   2.320  0.00  0.00    -0.298 NA
ATOM      5  C   UNL     1      -1.925   5.047   2.771  0.00  0.00    +0.085 C 
ATOM      6  C   UNL     1      -3.849   6.360   3.460  0.00  0.00    +0.105 C 
ENDROOT
BRANCH   3   7
ATOM      7  C   UNL     1      -3.023   6.988   0.139  0.00  0.00    -0.012 A 
ATOM      8  C   UNL     1      -4.382   7.014  -0.110  0.00  0.00    +0.115 A 
ATOM      9  N   UNL     1      -4.842   6.979  -1.346  0.00  0.00    -0.263 NA
ATOM     10  C   UNL     1      -4.034   6.919  -2.385  0.00  0.00    +0.111 A 
ATOM     11  C   UNL     1      -2.662   6.891  -2.214  0.00  0.00    +0.020 A 
ATOM     12  C   UNL     1      -2.141   6.931  -0.930  0.00  0.00    +0.008 A 
ENDBRANCH   3   7
TORSDOF 1
ENDMDL
MODEL 6
REMARK VINA RESULT:    -2.296      8.278      9.511
REMARK INTER + INTRA:          -2.650
REMARK INTER:                  -2.431
REMARK INTRA:                  -0.219
REMARK UNBOUND:                -0.220
REMARK  Name = Nicotine.pdb
REMARK  2 active torsions:
REMARK  status: ('A' for Active; 'I' for Inactive)
REMARK    1  A    between atoms: C_3  and  C_6
REMARK    2  A    between atoms: N_4  and  C_12
REMARK                            x       y       z     vdW  Elec       q    Type
REMARK                         _______ _______ _______ _____ _____    ______ ____
ROOT
ATOM      1  C   UNL     1      -2.757   6.415   0.773  0.00  0.00    +0.017 C 
ATOM      2  C   UNL     1      -1.525   6.025   1.631  0.00  0.00    +0.025 C 
ATOM      3  C   UNL     1      -2.159   5.575   2.965  0.00  0.00    +0.088 C 
ATOM      4  N   UNL     1      -3.493   6.196   3.045  0.00  0.00    -0.298 NA
ATOM      5  C   UNL     1      -3.700   7.026   1.839  0.00  0.00    +0.085 C 
ATOM      6  C   UNL     1      -4.543   5.176   3.170  0.00  0.00    +0.105 C 
ENDROOT
BRANCH   3   7
ATOM      7  C   UNL     1      -1.307   6.036   4.119  0.00  0.00    -0.012 A 
ATOM      8  C   UNL     1      -1.889   6.622   5.227  0.00  0.00    +0.115 A 
ATOM      9  N   UNL     1      -1.150   7.028   6.242  0.00  0.00    -0.263 NA
ATOM     10  C   UNL     1       0.161   6.893   6.241  0.00  0.00    +0.111 A 
ATOM     11  C   UNL     1       0.813   6.316   5.168  0.00  0.00    +0.020 A 
ATOM     12  C   UNL     1       0.070   5.873   4.085  0.00  0.00    +0.008 A 
ENDBRANCH   3   7
TORSDOF 1
ENDMDL
MODEL 7
REMARK VINA RESULT:    -0.929      7.991      9.839
REMARK INTER + INTRA:          -1.203
REMARK INTER:                  -0.980
REMARK INTRA:                  -0.224
REMARK UNBOUND:                -0.220
REMARK  Name = Nicotine.pdb
REMARK  2 active torsions:
REMARK  status: ('A' for Active; 'I' for Inactive)
REMARK    1  A    between atoms: C_3  and  C_6
REMARK    2  A    between atoms: N_4  and  C_12
REMARK                            x       y       z     vdW  Elec       q    Type
REMARK                         _______ _______ _______ _____ _____    ______ ____
ROOT
ATOM      1  C   UNL     1       0.828   6.285   3.639  0.00  0.00    +0.017 C 
ATOM      2  C   UNL     1      -0.281   6.993   2.818  0.00  0.00    +0.025 C 
ATOM      3  C   UNL     1      -1.473   7.024   3.799  0.00  0.00    +0.088 C 
ATOM      4  N   UNL     1      -1.250   5.956   4.790  0.00  0.00    -0.298 NA
ATOM      5  C   UNL     1       0.006   5.254   4.452  0.00  0.00    +0.085 C 
ATOM      6  C   UNL     1      -1.198   6.503   6.152  0.00  0.00    +0.105 C 
ENDROOT
BRANCH   3   7
ATOM      7  C   UNL     1      -2.758   6.773   3.053  0.00  0.00    -0.012 A 
ATOM      8  C   UNL     1      -3.923   6.492   3.742  0.00  0.00    +0.115 A 
ATOM      9  N   UNL     1      -5.051   6.272   3.096  0.00  0.00    -0.263 NA
ATOM     10  C   UNL     1      -5.116   6.309   1.780  0.00  0.00    +0.111 A 
ATOM     11  C   UNL     1      -3.992   6.585   1.024  0.00  0.00    +0.020 A 
ATOM     12  C   UNL     1      -2.788   6.827   1.668  0.00  0.00    +0.008 A 
ENDBRANCH   3   7
TORSDOF 1
ENDMDL
MODEL 8
REMARK VINA RESULT:    -0.443      8.020      9.360
REMARK INTER + INTRA:          -0.688
REMARK INTER:                  -0.435
REMARK INTRA:                  -0.254
REMARK UNBOUND:                -0.220
REMARK  Name = Nicotine.pdb
REMARK  2 active torsions:
REMARK  status: ('A' for Active; 'I' for Inactive)
REMARK    1  A    between atoms: C_3  and  C_6
REMARK    2  A    between atoms: N_4  and  C_12
REMARK                            x       y       z     vdW  Elec       q    Type
REMARK                         _______ _______ _______ _____ _____    ______ ____
ROOT
ATOM      1  C   UNL     1      -1.414   5.674   0.724  0.00  0.00    +0.017 C 
ATOM      2  C   UNL     1      -1.796   5.188   2.147  0.00  0.00    +0.025 C 
ATOM      3  C   UNL     1      -3.251   5.681   2.303  0.00  0.00    +0.088 C 
ATOM      4  N   UNL     1      -3.438   6.795   1.357  0.00  0.00    -0.298 NA
ATOM      5  C   UNL     1      -2.164   7.028   0.644  0.00  0.00    +0.085 C 
ATOM      6  C   UNL     1      -4.525   6.507   0.412  0.00  0.00    +0.105 C 
ENDROOT
BRANCH   3   7
ATOM      7  C   UNL     1      -3.480   6.161   3.713  0.00  0.00    -0.012 A 
ATOM      8  C   UNL     1      -4.762   6.409   4.167  0.00  0.00    +0.115 A 
ATOM      9  N   UNL     1      -4.972   6.828   5.400  0.00  0.00    -0.263 NA
ATOM     10  C   UNL     1      -3.978   7.027   6.243  0.00  0.00    +0.111 A 
ATOM     11  C   UNL     1      -2.669   6.800   5.860  0.00  0.00    +0.020 A 
ATOM     12  C   UNL     1      -2.410   6.353   4.573  0.00  0.00    +0.008 A 
ENDBRANCH   3   7
TORSDOF 1
ENDMDL
