MODEL 1
REMARK VINA RESULT:    -3.442      0.000      0.000
REMARK INTER + INTRA:          -3.881
REMARK INTER:                  -3.643
REMARK INTRA:                  -0.238
REMARK UNBOUND:                -0.238
REMARK  Name = Nicotine.pdb
REMARK  2 active torsions:
REMARK  status: ('A' for Active; 'I' for Inactive)
REMARK    1  A    between atoms: C_3  and  C_6
REMARK    2  A    between atoms: N_4  and  C_12
REMARK                            x       y       z     vdW  Elec       q    Type
REMARK                         _______ _______ _______ _____ _____    ______ ____
ROOT
ATOM      1  C   UNL     1       7.746  -1.724  -3.982  0.00  0.00    +0.017 C 
ATOM      2  C   UNL     1       7.888  -1.612  -2.441  0.00  0.00    +0.025 C 
ATOM      3  C   UNL     1       9.182  -2.403  -2.154  0.00  0.00    +0.088 C 
ATOM      4  N   UNL     1       9.391  -3.324  -3.286  0.00  0.00    -0.298 NA
ATOM      5  C   UNL     1       8.277  -3.156  -4.242  0.00  0.00    +0.085 C 
ATOM      6  C   UNL     1      10.685  -3.075  -3.935  0.00  0.00    +0.105 C 
ENDROOT
BRANCH   3   7
ATOM      7  C   UNL     1       9.030  -3.186  -0.875  0.00  0.00    -0.012 A 
ATOM      8  C   UNL     1      10.052  -4.005  -0.432  0.00  0.00    +0.115 A 
ATOM      9  N   UNL     1       9.927  -4.694   0.686  0.00  0.00    -0.263 NA
ATOM     10  C   UNL     1       8.835  -4.631   1.420  0.00  0.00    +0.111 A 
ATOM     11  C   UNL     1       7.772  -3.833   1.041  0.00  0.00    +0.020 A 
ATOM     12  C   UNL     1       7.868  -3.091  -0.126  0.00  0.00    +0.008 A 
ENDBRANCH   3   7
TORSDOF 1
ENDMDL
MODEL 2
REMARK VINA RESULT:    -3.391      6.278      7.469
REMARK INTER + INTRA:          -3.827
REMARK INTER:                  -3.571
REMARK INTRA:                  -0.256
REMARK UNBOUND:                -0.238
REMARK  Name = Nicotine.pdb
REMARK  2 active torsions:
REMARK  status: ('A' for Active; 'I' for Inactive)
REMARK    1  A    between atoms: C_3  and  C_6
REMARK    2  A    between atoms: N_4  and  C_12
REMARK                            x       y       z     vdW  Elec       q    Type
REMARK                         _______ _______ _______ _____ _____    ______ ____
ROOT
ATOM      1  C   UNL     1       7.562  -4.452   4.714  0.00  0.00    +0.017 C 
ATOM      2  C   UNL     1       7.802  -3.127   3.943  0.00  0.00    +0.025 C 
ATOM      3  C   UNL     1       9.260  -2.774   4.305  0.00  0.00    +0.088 C 
ATOM      4  N   UNL     1       9.579  -3.470   5.564  0.00  0.00    -0.298 NA
ATOM      5  C   UNL     1       8.380  -4.214   6.008  0.00  0.00    +0.085 C 
ATOM      6  C   UNL     1      10.725  -4.372   5.393  0.00  0.00    +0.105 C 
ENDROOT
BRANCH   3   7
ATOM      7  C   UNL     1       9.395  -1.285   4.492  0.00  0.00    -0.012 A 
ATOM      8  C   UNL     1      10.632  -0.677   4.389  0.00  0.00    +0.115 A 
ATOM      9  N   UNL     1      10.759   0.626   4.551  0.00  0.00    -0.263 NA
ATOM     10  C   UNL     1       9.722   1.395   4.817  0.00  0.00    +0.111 A 
ATOM     11  C   UNL     1       8.454   0.858   4.935  0.00  0.00    +0.020 A 
ATOM     12  C   UNL     1       8.280  -0.507   4.765  0.00  0.00    +0.008 A 
ENDBRANCH   3   7
TORSDOF 1
ENDMDL
MODEL 3
REMARK VINA RESULT:    -3.359      8.592      9.458
REMARK INTER + INTRA:          -3.793
REMARK INTER:                  -3.578
REMARK INTRA:                  -0.215
REMARK UNBOUND:                -0.238
REMARK  Name = Nicotine.pdb
REMARK  2 active torsions:
REMARK  status: ('A' for Active; 'I' for Inactive)
REMARK    1  A    between atoms: C_3  and  C_6
REMARK    2  A    between atoms: N_4  and  C_12
REMARK                            x       y       z     vdW  Elec       q    Type
REMARK                         _______ _______ _______ _____ _____    ______ ____
ROOT
ATOM      1  C   UNL     1       9.073   6.191   2.045  0.00  0.00    +0.017 C 
ATOM      2  C   UNL     1       8.668   4.694   2.091  0.00  0.00    +0.025 C 
ATOM      3  C   UNL     1       7.547   4.670   3.152  0.00  0.00    +0.088 C 
ATOM      4  N   UNL     1       7.724   5.862   4.001  0.00  0.00    -0.298 NA
ATOM      5  C   UNL     1       8.913   6.604   3.529  0.00  0.00    +0.085 C 
ATOM      6  C   UNL     1       6.526   6.712   3.972  0.00  0.00    +0.105 C 
ENDROOT
BRANCH   3   7
ATOM      7  C   UNL     1       7.660   3.422   3.989  0.00  0.00    -0.012 A 
ATOM      8  C   UNL     1       8.884   2.802   4.158  0.00  0.00    +0.115 A 
ATOM      9  N   UNL     1       8.991   1.710   4.889  0.00  0.00    -0.263 NA
ATOM     10  C   UNL     1       7.946   1.168   5.483  0.00  0.00    +0.111 A 
ATOM     11  C   UNL     1       6.690   1.732   5.359  0.00  0.00    +0.020 A 
ATOM     12  C   UNL     1       6.540   2.884   4.603  0.00  0.00    +0.008 A 
ENDBRANCH   3   7
TORSDOF 1
ENDMDL
MODEL 4
REMARK VINA RESULT:    -3.319      8.954      9.902
REMARK INTER + INTRA:          -3.751
REMARK INTER:                  -3.495
REMARK INTRA:                  -0.255
REMARK UNBOUND:                -0.238
REMARK  Name = Nicotine.pdb
REMARK  2 active torsions:
REMARK  status: ('A' for Active; 'I' for Inactive)
REMARK    1  A    between atoms: C_3  and  C_6
REMARK    2  A    between atoms: N_4  and  C_12
REMARK                            x       y       z     vdW  Elec       q    Type
REMARK                         _______ _______ _______ _____ _____    ______ ____
ROOT
ATOM      1  C   UNL     1       5.236   6.226   5.222  0.00  0.00    +0.017 C 
ATOM      2  C   UNL     1       6.037   5.115   5.951  0.00  0.00    +0.025 C 
ATOM      3  C   UNL     1       7.258   4.907   5.030  0.00  0.00    +0.088 C 
ATOM      4  N   UNL     1       6.882   5.393   3.690  0.00  0.00    -0.298 NA
ATOM      5  C   UNL     1       5.482   5.867   3.736  0.00  0.00    +0.085 C 
ATOM      6  C   UNL     1       7.785   6.462   3.245  0.00  0.00    +0.105 C 
ENDROOT
BRANCH   3   7
ATOM      7  C   UNL     1       7.608   3.443   4.966  0.00  0.00    -0.012 A 
ATOM      8  C   UNL     1       8.832   3.038   4.468  0.00  0.00    +0.115 A 
ATOM      9  N   UNL     1       9.147   1.759   4.409  0.00  0.00    -0.263 NA
ATOM     10  C   UNL     1       8.315   0.821   4.817  0.00  0.00    +0.111 A 
ATOM     11  C   UNL     1       7.073   1.150   5.327  0.00  0.00    +0.020 A 
ATOM     12  C   UNL     1       6.709   2.485   5.410  0.00  0.00    +0.008 A 
ENDBRANCH   3   7
TORSDOF 1
ENDMDL
MODEL 5
REMARK VINA RESULT:    -3.308      7.109      8.079
REMARK INTER + INTRA:          -3.739
REMARK INTER:                  -3.496
REMARK INTRA:                  -0.243
REMARK UNBOUND:                -0.238
REMARK  Name = Nicotine.pdb
REMARK  2 active torsions:
REMARK  status: ('A' for Active; 'I' for Inactive)
REMARK    1  A    between atoms: C_3  and  C_6
REMARK    2  A    between atoms: N_4  and  C_12
REMARK                            x       y       z     vdW  Elec       q    Type
REMARK                         _______ _______ _______ _____ _____    ______ ____
ROOT
ATOM      1  C   UNL     1       6.836   4.189   3.794  0.00  0.00    +0.017 C 
ATOM      2  C   UNL     1       7.095   2.975   4.724  0.00  0.00    +0.025 C 
ATOM      3  C   UNL     1       8.634   2.864   4.731  0.00  0.00    +0.088 C 
ATOM      4  N   UNL     1       9.126   3.531   3.512  0.00  0.00    -0.298 NA
ATOM      5  C   UNL     1       7.963   4.024   2.743  0.00  0.00    +0.085 C 
ATOM      6  C   UNL     1      10.041   4.630   3.845  0.00  0.00    +0.105 C 
ENDROOT
BRANCH   3   7
ATOM      7  C   UNL     1       9.044   1.414   4.724  0.00  0.00    -0.012 A 
ATOM      8  C   UNL     1      10.380   1.065   4.785  0.00  0.00    +0.115 A 
ATOM      9  N   UNL     1      10.748  -0.201   4.780  0.00  0.00    -0.263 NA
ATOM     10  C   UNL     1       9.865  -1.179   4.716  0.00  0.00    +0.111 A 
ATOM     11  C   UNL     1       8.511  -0.906   4.653  0.00  0.00    +0.020 A 
ATOM     12  C   UNL     1       8.087   0.413   4.662  0.00  0.00    +0.008 A 
ENDBRANCH   3   7
TORSDOF 1
ENDMDL
MODEL 6
REMARK VINA RESULT:    -3.199      9.252     10.619
REMARK INTER + INTRA:          -3.624
REMARK INTER:                  -3.369
REMARK INTRA:                  -0.255
REMARK UNBOUND:                -0.238
REMARK  Name = Nicotine.pdb
REMARK  2 active torsions:
REMARK  status: ('A' for Active; 'I' for Inactive)
REMARK    1  A    between atoms: C_3  and  C_6
REMARK    2  A    between atoms: N_4  and  C_12
REMARK                            x       y       z     vdW  Elec       q    Type
REMARK                         _______ _______ _______ _____ _____    ______ ____
ROOT
ATOM      1  C   UNL     1       6.254   5.772   5.949  0.00  0.00    +0.017 C 
ATOM      2  C   UNL     1       6.514   6.211   4.483  0.00  0.00    +0.025 C 
ATOM      3  C   UNL     1       6.980   4.904   3.807  0.00  0.00    +0.088 C 
ATOM      4  N   UNL     1       7.485   4.018   4.871  0.00  0.00    -0.298 NA
ATOM      5  C   UNL     1       7.375   4.725   6.165  0.00  0.00    +0.085 C 
ATOM      6  C   UNL     1       6.742   2.751   4.898  0.00  0.00    +0.105 C 
ENDROOT
BRANCH   3   7
ATOM      7  C   UNL     1       8.080   5.201   2.822  0.00  0.00    -0.012 A 
ATOM      8  C   UNL     1       8.460   4.253   1.891  0.00  0.00    +0.115 A 
ATOM      9  N   UNL     1       9.422   4.505   1.025  0.00  0.00    -0.263 NA
ATOM     10  C   UNL     1      10.056   5.661   1.010  0.00  0.00    +0.111 A 
ATOM     11  C   UNL     1       9.730   6.658   1.910  0.00  0.00    +0.020 A 
ATOM     12  C   UNL     1       8.720   6.431   2.832  0.00  0.00    +0.008 A 
ENDBRANCH   3   7
TORSDOF 1
ENDMDL
MODEL 7
REMARK VINA RESULT:    -2.951      4.085      6.359
REMARK INTER + INTRA:          -3.361
REMARK INTER:                  -3.130
REMARK INTRA:                  -0.231
REMARK UNBOUND:                -0.238
REMARK  Name = Nicotine.pdb
REMARK  2 active torsions:
REMARK  status: ('A' for Active; 'I' for Inactive)
REMARK    1  A    between atoms: C_3  and  C_6
REMARK    2  A    between atoms: N_4  and  C_12
REMARK                            x       y       z     vdW  Elec       q    Type
REMARK                         _______ _______ _______ _____ _____    ______ ____
ROOT
ATOM      1  C   UNL     1       9.132  -0.487   5.013  0.00  0.00    +0.017 C 
ATOM      2  C   UNL     1       8.229  -1.556   4.343  0.00  0.00    +0.025 C 
ATOM      3  C   UNL     1       8.981  -2.874   4.629  0.00  0.00    +0.088 C 
ATOM      4  N   UNL     1      10.389  -2.526   4.888  0.00  0.00    -0.298 NA
ATOM      5  C   UNL     1      10.546  -1.062   4.750  0.00  0.00    +0.085 C 
ATOM      6  C   UNL     1      10.807  -2.977   6.222  0.00  0.00    +0.105 C 
ENDROOT
BRANCH   3   7
ATOM      7  C   UNL     1       8.888  -3.787   3.434  0.00  0.00    -0.012 A 
ATOM      8  C   UNL     1       9.594  -4.975   3.406  0.00  0.00    +0.115 A 
ATOM      9  N   UNL     1       9.518  -5.780   2.364  0.00  0.00    -0.263 NA
ATOM     10  C   UNL     1       8.774  -5.489   1.316  0.00  0.00    +0.111 A 
ATOM     11  C   UNL     1       8.040  -4.318   1.272  0.00  0.00    +0.020 A 
ATOM     12  C   UNL     1       8.090  -3.450   2.352  0.00  0.00    +0.008 A 
ENDBRANCH   3   7
TORSDOF 1
ENDMDL
MODEL 8
REMARK VINA RESULT:    -2.732      1.155      1.873
REMARK INTER + INTRA:          -3.130
REMARK INTER:                  -2.924
REMARK INTRA:                  -0.205
REMARK UNBOUND:                -0.238
REMARK  Name = Nicotine.pdb
REMARK  2 active torsions:
REMARK  status: ('A' for Active; 'I' for Inactive)
REMARK    1  A    between atoms: C_3  and  C_6
REMARK    2  A    between atoms: N_4  and  C_12
REMARK                            x       y       z     vdW  Elec       q    Type
REMARK                         _______ _______ _______ _____ _____    ______ ____
ROOT
ATOM      1  C   UNL     1      10.577  -0.905  -2.555  0.00  0.00    +0.017 C 
ATOM      2  C   UNL     1      10.954  -2.111  -1.655  0.00  0.00    +0.025 C 
ATOM      3  C   UNL     1       9.807  -3.110  -1.915  0.00  0.00    +0.088 C 
ATOM      4  N   UNL     1       8.657  -2.335  -2.413  0.00  0.00    -0.298 NA
ATOM      5  C   UNL     1       9.032  -0.905  -2.447  0.00  0.00    +0.085 C 
ATOM      6  C   UNL     1       8.241  -2.802  -3.742  0.00  0.00    +0.105 C 
ENDROOT
BRANCH   3   7
ATOM      7  C   UNL     1       9.437  -3.813  -0.635  0.00  0.00    -0.012 A 
ATOM      8  C   UNL     1      10.227  -4.836  -0.146  0.00  0.00    +0.115 A 
ATOM      9  N   UNL     1       9.911  -5.456   0.975  0.00  0.00    -0.263 NA
ATOM     10  C   UNL     1       8.839  -5.129   1.669  0.00  0.00    +0.111 A 
ATOM     11  C   UNL     1       8.001  -4.115   1.242  0.00  0.00    +0.020 A 
ATOM     12  C   UNL     1       8.304  -3.438   0.071  0.00  0.00    +0.008 A 
ENDBRANCH   3   7
TORSDOF 1
ENDMDL
MODEL 9
REMARK VINA RESULT:    -2.718      2.362      4.303
REMARK INTER + INTRA:          -3.115
REMARK INTER:                  -2.929
REMARK INTRA:                  -0.186
REMARK UNBOUND:                -0.238
REMARK  Name = Nicotine.pdb
REMARK  2 active torsions:
REMARK  status: ('A' for Active; 'I' for Inactive)
REMARK    1  A    between atoms: C_3  and  C_6
REMARK    2  A    between atoms: N_4  and  C_12
REMARK                            x       y       z     vdW  Elec       q    Type
REMARK                         _______ _______ _______ _____ _____    ______ ____
ROOT
ATOM      1  C   UNL     1      10.826  -5.691  -0.254  0.00  0.00    +0.017 C 
ATOM      2  C   UNL     1       9.823  -6.097   0.858  0.00  0.00    +0.025 C 
ATOM      3  C   UNL     1       8.860  -4.891   0.913  0.00  0.00    +0.088 C 
ATOM      4  N   UNL     1       9.576  -3.734   0.347  0.00  0.00    -0.298 NA
ATOM      5  C   UNL     1      10.940  -4.163  -0.030  0.00  0.00    +0.085 C 
ATOM      6  C   UNL     1       8.857  -3.185  -0.810  0.00  0.00    +0.105 C 
ENDROOT
BRANCH   3   7
ATOM      7  C   UNL     1       8.474  -4.608   2.342  0.00  0.00    -0.012 A 
ATOM      8  C   UNL     1       8.656  -5.569   3.319  0.00  0.00    +0.115 A 
ATOM      9  N   UNL     1       8.321  -5.329   4.571  0.00  0.00    -0.263 NA
ATOM     10  C   UNL     1       7.804  -4.174   4.942  0.00  0.00    +0.111 A 
ATOM     11  C   UNL     1       7.593  -3.165   4.020  0.00  0.00    +0.020 A 
ATOM     12  C   UNL     1       7.938  -3.379   2.695  0.00  0.00    +0.008 A 
ENDBRANCH   3   7
TORSDOF 1
ENDMDL
