MODEL 1
REMARK VINA RESULT:     9.361      0.000      0.000
REMARK INTER + INTRA:           9.700
REMARK INTER:                   9.908
REMARK INTRA:                  -0.208
REMARK UNBOUND:                -0.208
REMARK  Name = Nicotine.pdb
REMARK  2 active torsions:
REMARK  status: ('A' for Active; 'I' for Inactive)
REMARK    1  A    between atoms: C_3  and  C_6
REMARK    2  A    between atoms: N_4  and  C_12
REMARK                            x       y       z     vdW  Elec       q    Type
REMARK                         _______ _______ _______ _____ _____    ______ ____
ROOT
ATOM      1  C   UNL     1       9.413   1.668  -3.888  0.00  0.00    +0.017 C 
ATOM      2  C   UNL     1       8.697   2.839  -4.612  0.00  0.00    +0.025 C 
ATOM      3  C   UNL     1       9.443   2.922  -5.961  0.00  0.00    +0.088 C 
ATOM      4  N   UNL     1      10.764   2.297  -5.768  0.00  0.00    -0.298 NA
ATOM      5  C   UNL     1      10.876   1.856  -4.361  0.00  0.00    +0.085 C 
ATOM      6  C   UNL     1      10.953   1.169  -6.690  0.00  0.00    +0.105 C 
ENDROOT
BRANCH   3   7
ATOM      7  C   UNL     1       9.611   4.363  -6.366  0.00  0.00    -0.012 A 
ATOM      8  C   UNL     1       8.534   5.083  -6.849  0.00  0.00    +0.115 A 
ATOM      9  N   UNL     1       8.672   6.345  -7.206  0.00  0.00    -0.263 NA
ATOM     10  C   UNL     1       9.831   6.967  -7.118  0.00  0.00    +0.111 A 
ATOM     11  C   UNL     1      10.952   6.312  -6.644  0.00  0.00    +0.020 A 
ATOM     12  C   UNL     1      10.844   4.986  -6.254  0.00  0.00    +0.008 A 
ENDBRANCH   3   7
TORSDOF 1
ENDMDL
MODEL 2
REMARK VINA RESULT:    10.586      1.416      4.355
REMARK INTER + INTRA:          10.997
REMARK INTER:                  11.215
REMARK INTRA:                  -0.218
REMARK UNBOUND:                -0.208
REMARK  Name = Nicotine.pdb
REMARK  2 active torsions:
REMARK  status: ('A' for Active; 'I' for Inactive)
REMARK    1  A    between atoms: C_3  and  C_6
REMARK    2  A    between atoms: N_4  and  C_12
REMARK                            x       y       z     vdW  Elec       q    Type
REMARK                         _______ _______ _______ _____ _____    ______ ____
ROOT
ATOM      1  C   UNL     1       8.342   6.924  -5.332  0.00  0.00    +0.017 C 
ATOM      2  C   UNL     1       9.006   5.686  -4.675  0.00  0.00    +0.025 C 
ATOM      3  C   UNL     1      10.218   5.414  -5.591  0.00  0.00    +0.088 C 
ATOM      4  N   UNL     1       9.925   6.031  -6.897  0.00  0.00    -0.298 NA
ATOM      5  C   UNL     1       8.582   6.647  -6.837  0.00  0.00    +0.085 C 
ATOM      6  C   UNL     1      10.946   7.027  -7.250  0.00  0.00    +0.105 C 
ENDROOT
BRANCH   3   7
ATOM      7  C   UNL     1      10.413   3.929  -5.757  0.00  0.00    -0.012 A 
ATOM      8  C   UNL     1      10.672   3.393  -7.004  0.00  0.00    +0.115 A 
ATOM      9  N   UNL     1      10.845   2.095  -7.157  0.00  0.00    -0.263 NA
ATOM     10  C   UNL     1      10.778   1.261  -6.138  0.00  0.00    +0.111 A 
ATOM     11  C   UNL     1      10.523   1.725  -4.860  0.00  0.00    +0.020 A 
ATOM     12  C   UNL     1      10.341   3.085  -4.660  0.00  0.00    +0.008 A 
ENDBRANCH   3   7
TORSDOF 1
ENDMDL
