MODEL 1
REMARK VINA RESULT:    -3.695      0.000      0.000
REMARK INTER + INTRA:          -4.127
REMARK INTER:                  -3.911
REMARK INTRA:                  -0.216
REMARK UNBOUND:                -0.216
REMARK  Name = Nicotine.pdb
REMARK  2 active torsions:
REMARK  status: ('A' for Active; 'I' for Inactive)
REMARK    1  A    between atoms: C_3  and  C_6
REMARK    2  A    between atoms: N_4  and  C_12
REMARK                            x       y       z     vdW  Elec       q    Type
REMARK                         _______ _______ _______ _____ _____    ______ ____
ROOT
ATOM      1  C   UNL     1       5.669  -1.594   5.521  0.00  0.00    +0.017 C 
ATOM      2  C   UNL     1       4.204  -2.106   5.497  0.00  0.00    +0.025 C 
ATOM      3  C   UNL     1       4.369  -3.635   5.627  0.00  0.00    +0.088 C 
ATOM      4  N   UNL     1       5.733  -3.967   5.179  0.00  0.00    -0.298 NA
ATOM      5  C   UNL     1       6.406  -2.721   4.756  0.00  0.00    +0.085 C 
ATOM      6  C   UNL     1       6.489  -4.639   6.244  0.00  0.00    +0.105 C 
ENDROOT
BRANCH   3   7
ATOM      7  C   UNL     1       3.357  -4.335   4.758  0.00  0.00    -0.012 A 
ATOM      8  C   UNL     1       3.704  -5.478   4.063  0.00  0.00    +0.115 A 
ATOM      9  N   UNL     1       2.825  -6.097   3.300  0.00  0.00    -0.263 NA
ATOM     10  C   UNL     1       1.589  -5.656   3.169  0.00  0.00    +0.111 A 
ATOM     11  C   UNL     1       1.169  -4.520   3.834  0.00  0.00    +0.020 A 
ATOM     12  C   UNL     1       2.064  -3.845   4.650  0.00  0.00    +0.008 A 
ENDBRANCH   3   7
TORSDOF 1
ENDMDL
MODEL 2
REMARK VINA RESULT:    -3.601      1.195      4.501
REMARK INTER + INTRA:          -4.028
REMARK INTER:                  -3.827
REMARK INTRA:                  -0.201
REMARK UNBOUND:                -0.216
REMARK  Name = Nicotine.pdb
REMARK  2 active torsions:
REMARK  status: ('A' for Active; 'I' for Inactive)
REMARK    1  A    between atoms: C_3  and  C_6
REMARK    2  A    between atoms: N_4  and  C_12
REMARK                            x       y       z     vdW  Elec       q    Type
REMARK                         _______ _______ _______ _____ _____    ______ ____
ROOT
ATOM      1  C   UNL     1       1.905  -5.944   3.240  0.00  0.00    +0.017 C 
ATOM      2  C   UNL     1       3.293  -5.667   3.875  0.00  0.00    +0.025 C 
ATOM      3  C   UNL     1       2.942  -4.846   5.133  0.00  0.00    +0.088 C 
ATOM      4  N   UNL     1       1.617  -4.241   4.905  0.00  0.00    -0.298 NA
ATOM      5  C   UNL     1       1.148  -4.630   3.558  0.00  0.00    +0.085 C 
ATOM      6  C   UNL     1       0.661  -4.661   5.938  0.00  0.00    +0.105 C 
ENDROOT
BRANCH   3   7
ATOM      7  C   UNL     1       3.971  -3.765   5.344  0.00  0.00    -0.012 A 
ATOM      8  C   UNL     1       5.319  -4.059   5.267  0.00  0.00    +0.115 A 
ATOM      9  N   UNL     1       6.226  -3.119   5.450  0.00  0.00    -0.263 NA
ATOM     10  C   UNL     1       5.888  -1.872   5.711  0.00  0.00    +0.111 A 
ATOM     11  C   UNL     1       4.559  -1.502   5.802  0.00  0.00    +0.020 A 
ATOM     12  C   UNL     1       3.577  -2.462   5.610  0.00  0.00    +0.008 A 
ENDBRANCH   3   7
TORSDOF 1
ENDMDL
MODEL 3
REMARK VINA RESULT:    -3.470     13.305     14.296
REMARK INTER + INTRA:          -3.889
REMARK INTER:                  -3.665
REMARK INTRA:                  -0.224
REMARK UNBOUND:                -0.216
REMARK  Name = Nicotine.pdb
REMARK  2 active torsions:
REMARK  status: ('A' for Active; 'I' for Inactive)
REMARK    1  A    between atoms: C_3  and  C_6
REMARK    2  A    between atoms: N_4  and  C_12
REMARK                            x       y       z     vdW  Elec       q    Type
REMARK                         _______ _______ _______ _____ _____    ______ ____
ROOT
ATOM      1  C   UNL     1       9.806   5.277  -6.019  0.00  0.00    +0.017 C 
ATOM      2  C   UNL     1       9.018   5.472  -4.696  0.00  0.00    +0.025 C 
ATOM      3  C   UNL     1       7.664   4.795  -4.997  0.00  0.00    +0.088 C 
ATOM      4  N   UNL     1       7.505   4.768  -6.462  0.00  0.00    -0.298 NA
ATOM      5  C   UNL     1       8.683   5.417  -7.076  0.00  0.00    +0.085 C 
ATOM      6  C   UNL     1       7.347   3.391  -6.949  0.00  0.00    +0.105 C 
ENDROOT
BRANCH   3   7
ATOM      7  C   UNL     1       6.545   5.589  -4.373  0.00  0.00    -0.012 A 
ATOM      8  C   UNL     1       5.494   6.043  -5.147  0.00  0.00    +0.115 A 
ATOM      9  N   UNL     1       4.511   6.738  -4.608  0.00  0.00    -0.263 NA
ATOM     10  C   UNL     1       4.489   7.026  -3.322  0.00  0.00    +0.111 A 
ATOM     11  C   UNL     1       5.506   6.604  -2.485  0.00  0.00    +0.020 A 
ATOM     12  C   UNL     1       6.553   5.867  -3.014  0.00  0.00    +0.008 A 
ENDBRANCH   3   7
TORSDOF 1
ENDMDL
MODEL 4
REMARK VINA RESULT:    -3.159      1.379      4.598
REMARK INTER + INTRA:          -3.560
REMARK INTER:                  -3.343
REMARK INTRA:                  -0.217
REMARK UNBOUND:                -0.216
REMARK  Name = Nicotine.pdb
REMARK  2 active torsions:
REMARK  status: ('A' for Active; 'I' for Inactive)
REMARK    1  A    between atoms: C_3  and  C_6
REMARK    2  A    between atoms: N_4  and  C_12
REMARK                            x       y       z     vdW  Elec       q    Type
REMARK                         _______ _______ _______ _____ _____    ______ ____
ROOT
ATOM      1  C   UNL     1       1.327  -5.421   2.883  0.00  0.00    +0.017 C 
ATOM      2  C   UNL     1       2.797  -5.763   3.244  0.00  0.00    +0.025 C 
ATOM      3  C   UNL     1       2.948  -5.186   4.667  0.00  0.00    +0.088 C 
ATOM      4  N   UNL     1       1.913  -4.149   4.830  0.00  0.00    -0.298 NA
ATOM      5  C   UNL     1       1.150  -4.043   3.569  0.00  0.00    +0.085 C 
ATOM      6  C   UNL     1       1.027  -4.462   5.959  0.00  0.00    +0.105 C 
ENDROOT
BRANCH   3   7
ATOM      7  C   UNL     1       4.317  -4.576   4.830  0.00  0.00    -0.012 A 
ATOM      8  C   UNL     1       4.474  -3.383   5.510  0.00  0.00    +0.115 A 
ATOM      9  N   UNL     1       5.668  -2.843   5.657  0.00  0.00    -0.263 NA
ATOM     10  C   UNL     1       6.751  -3.412   5.166  0.00  0.00    +0.111 A 
ATOM     11  C   UNL     1       6.672  -4.606   4.475  0.00  0.00    +0.020 A 
ATOM     12  C   UNL     1       5.434  -5.207   4.305  0.00  0.00    +0.008 A 
ENDBRANCH   3   7
TORSDOF 1
ENDMDL
MODEL 5
REMARK VINA RESULT:    -3.102      1.839      3.142
REMARK INTER + INTRA:          -3.499
REMARK INTER:                  -3.289
REMARK INTRA:                  -0.211
REMARK UNBOUND:                -0.216
REMARK  Name = Nicotine.pdb
REMARK  2 active torsions:
REMARK  status: ('A' for Active; 'I' for Inactive)
REMARK    1  A    between atoms: C_3  and  C_6
REMARK    2  A    between atoms: N_4  and  C_12
REMARK                            x       y       z     vdW  Elec       q    Type
REMARK                         _______ _______ _______ _____ _____    ______ ____
ROOT
ATOM      1  C   UNL     1       7.934  -6.094   4.253  0.00  0.00    +0.017 C 
ATOM      2  C   UNL     1       6.570  -5.502   3.810  0.00  0.00    +0.025 C 
ATOM      3  C   UNL     1       6.475  -4.197   4.629  0.00  0.00    +0.088 C 
ATOM      4  N   UNL     1       7.363  -4.349   5.796  0.00  0.00    -0.298 NA
ATOM      5  C   UNL     1       7.978  -5.692   5.748  0.00  0.00    +0.085 C 
ATOM      6  C   UNL     1       8.389  -3.299   5.817  0.00  0.00    +0.105 C 
ENDROOT
BRANCH   3   7
ATOM      7  C   UNL     1       5.056  -3.981   5.087  0.00  0.00    -0.012 A 
ATOM      8  C   UNL     1       4.105  -4.968   4.907  0.00  0.00    +0.115 A 
ATOM      9  N   UNL     1       2.861  -4.787   5.305  0.00  0.00    -0.263 NA
ATOM     10  C   UNL     1       2.475  -3.668   5.885  0.00  0.00    +0.111 A 
ATOM     11  C   UNL     1       3.370  -2.636   6.099  0.00  0.00    +0.020 A 
ATOM     12  C   UNL     1       4.688  -2.792   5.698  0.00  0.00    +0.008 A 
ENDBRANCH   3   7
TORSDOF 1
ENDMDL
MODEL 6
REMARK VINA RESULT:    -2.790      1.389      4.700
REMARK INTER + INTRA:          -3.169
REMARK INTER:                  -2.935
REMARK INTRA:                  -0.234
REMARK UNBOUND:                -0.216
REMARK  Name = Nicotine.pdb
REMARK  2 active torsions:
REMARK  status: ('A' for Active; 'I' for Inactive)
REMARK    1  A    between atoms: C_3  and  C_6
REMARK    2  A    between atoms: N_4  and  C_12
REMARK                            x       y       z     vdW  Elec       q    Type
REMARK                         _______ _______ _______ _____ _____    ______ ____
ROOT
ATOM      1  C   UNL     1       1.013  -6.065   5.429  0.00  0.00    +0.017 C 
ATOM      2  C   UNL     1       1.990  -5.160   6.225  0.00  0.00    +0.025 C 
ATOM      3  C   UNL     1       2.271  -4.004   5.241  0.00  0.00    +0.088 C 
ATOM      4  N   UNL     1       1.977  -4.503   3.886  0.00  0.00    -0.298 NA
ATOM      5  C   UNL     1       1.553  -5.916   3.985  0.00  0.00    +0.085 C 
ATOM      6  C   UNL     1       0.943  -3.686   3.237  0.00  0.00    +0.105 C 
ENDROOT
BRANCH   3   7
ATOM      7  C   UNL     1       3.718  -3.592   5.334  0.00  0.00    -0.012 A 
ATOM      8  C   UNL     1       4.056  -2.262   5.492  0.00  0.00    +0.115 A 
ATOM      9  N   UNL     1       5.320  -1.892   5.575  0.00  0.00    -0.263 NA
ATOM     10  C   UNL     1       6.303  -2.768   5.511  0.00  0.00    +0.111 A 
ATOM     11  C   UNL     1       6.041  -4.116   5.355  0.00  0.00    +0.020 A 
ATOM     12  C   UNL     1       4.725  -4.543   5.269  0.00  0.00    +0.008 A 
ENDBRANCH   3   7
TORSDOF 1
ENDMDL
MODEL 7
REMARK VINA RESULT:    -2.761      2.010      4.360
REMARK INTER + INTRA:          -3.139
REMARK INTER:                  -2.947
REMARK INTRA:                  -0.192
REMARK UNBOUND:                -0.216
REMARK  Name = Nicotine.pdb
REMARK  2 active torsions:
REMARK  status: ('A' for Active; 'I' for Inactive)
REMARK    1  A    between atoms: C_3  and  C_6
REMARK    2  A    between atoms: N_4  and  C_12
REMARK                            x       y       z     vdW  Elec       q    Type
REMARK                         _______ _______ _______ _____ _____    ______ ____
ROOT
ATOM      1  C   UNL     1       6.402  -6.073   3.665  0.00  0.00    +0.017 C 
ATOM      2  C   UNL     1       6.870  -4.960   4.640  0.00  0.00    +0.025 C 
ATOM      3  C   UNL     1       5.595  -4.652   5.453  0.00  0.00    +0.088 C 
ATOM      4  N   UNL     1       4.444  -5.094   4.646  0.00  0.00    -0.298 NA
ATOM      5  C   UNL     1       4.947  -5.634   3.365  0.00  0.00    +0.085 C 
ATOM      6  C   UNL     1       3.649  -6.097   5.365  0.00  0.00    +0.105 C 
ENDROOT
BRANCH   3   7
ATOM      7  C   UNL     1       5.501  -3.172   5.718  0.00  0.00    -0.012 A 
ATOM      8  C   UNL     1       6.636  -2.440   6.011  0.00  0.00    +0.115 A 
ATOM      9  N   UNL     1       6.562  -1.144   6.244  0.00  0.00    -0.263 NA
ATOM     10  C   UNL     1       5.413  -0.498   6.207  0.00  0.00    +0.111 A 
ATOM     11  C   UNL     1       4.236  -1.164   5.920  0.00  0.00    +0.020 A 
ATOM     12  C   UNL     1       4.275  -2.526   5.665  0.00  0.00    +0.008 A 
ENDBRANCH   3   7
TORSDOF 1
ENDMDL
MODEL 8
REMARK VINA RESULT:    -2.560     13.908     14.636
REMARK INTER + INTRA:          -2.926
REMARK INTER:                  -2.717
REMARK INTRA:                  -0.209
REMARK UNBOUND:                -0.216
REMARK  Name = Nicotine.pdb
REMARK  2 active torsions:
REMARK  status: ('A' for Active; 'I' for Inactive)
REMARK    1  A    between atoms: C_3  and  C_6
REMARK    2  A    between atoms: N_4  and  C_12
REMARK                            x       y       z     vdW  Elec       q    Type
REMARK                         _______ _______ _______ _____ _____    ______ ____
ROOT
ATOM      1  C   UNL     1       6.018   7.028  -3.586  0.00  0.00    +0.017 C 
ATOM      2  C   UNL     1       7.223   6.444  -4.369  0.00  0.00    +0.025 C 
ATOM      3  C   UNL     1       6.621   6.143  -5.758  0.00  0.00    +0.088 C 
ATOM      4  N   UNL     1       5.164   6.012  -5.584  0.00  0.00    -0.298 NA
ATOM      5  C   UNL     1       4.843   6.193  -4.152  0.00  0.00    +0.085 C 
ATOM      6  C   UNL     1       4.444   6.987  -6.413  0.00  0.00    +0.105 C 
ENDROOT
BRANCH   3   7
ATOM      7  C   UNL     1       7.192   4.856  -6.296  0.00  0.00    -0.012 A 
ATOM      8  C   UNL     1       8.560   4.680  -6.381  0.00  0.00    +0.115 A 
ATOM      9  N   UNL     1       9.068   3.557  -6.850  0.00  0.00    -0.263 NA
ATOM     10  C   UNL     1       8.300   2.565  -7.256  0.00  0.00    +0.111 A 
ATOM     11  C   UNL     1       6.923   2.669  -7.201  0.00  0.00    +0.020 A 
ATOM     12  C   UNL     1       6.352   3.833  -6.708  0.00  0.00    +0.008 A 
ENDBRANCH   3   7
TORSDOF 1
ENDMDL
MODEL 9
REMARK VINA RESULT:    -2.178      1.544      2.293
REMARK INTER + INTRA:          -2.521
REMARK INTER:                  -2.328
REMARK INTRA:                  -0.193
REMARK UNBOUND:                -0.216
REMARK  Name = Nicotine.pdb
REMARK  2 active torsions:
REMARK  status: ('A' for Active; 'I' for Inactive)
REMARK    1  A    between atoms: C_3  and  C_6
REMARK    2  A    between atoms: N_4  and  C_12
REMARK                            x       y       z     vdW  Elec       q    Type
REMARK                         _______ _______ _______ _____ _____    ______ ____
ROOT
ATOM      1  C   UNL     1       6.033  -4.367   4.836  0.00  0.00    +0.017 C 
ATOM      2  C   UNL     1       4.731  -4.770   4.096  0.00  0.00    +0.025 C 
ATOM      3  C   UNL     1       3.682  -3.805   4.688  0.00  0.00    +0.088 C 
ATOM      4  N   UNL     1       4.195  -3.350   5.993  0.00  0.00    -0.298 NA
ATOM      5  C   UNL     1       5.495  -4.008   6.244  0.00  0.00    +0.085 C 
ATOM      6  C   UNL     1       4.329  -1.888   6.027  0.00  0.00    +0.105 C 
ENDROOT
BRANCH   3   7
ATOM      7  C   UNL     1       2.370  -4.523   4.873  0.00  0.00    -0.012 A 
ATOM      8  C   UNL     1       1.926  -5.422   3.922  0.00  0.00    +0.115 A 
ATOM      9  N   UNL     1       0.779  -6.055   4.077  0.00  0.00    -0.263 NA
ATOM     10  C   UNL     1       0.016  -5.859   5.133  0.00  0.00    +0.111 A 
ATOM     11  C   UNL     1       0.395  -4.975   6.126  0.00  0.00    +0.020 A 
ATOM     12  C   UNL     1       1.597  -4.295   6.001  0.00  0.00    +0.008 A 
ENDBRANCH   3   7
TORSDOF 1
ENDMDL
