MODEL 1
REMARK VINA RESULT:    -3.733      0.000      0.000
REMARK INTER + INTRA:          -4.188
REMARK INTER:                  -3.951
REMARK INTRA:                  -0.237
REMARK UNBOUND:                -0.237
REMARK  Name = Nicotine.pdb
REMARK  2 active torsions:
REMARK  status: ('A' for Active; 'I' for Inactive)
REMARK    1  A    between atoms: C_3  and  C_6
REMARK    2  A    between atoms: N_4  and  C_12
REMARK                            x       y       z     vdW  Elec       q    Type
REMARK                         _______ _______ _______ _____ _____    ______ ____
ROOT
ATOM      1  C   UNL     1       2.225   4.005  -2.648  0.00  0.00    +0.017 C 
ATOM      2  C   UNL     1       3.109   2.838  -3.163  0.00  0.00    +0.025 C 
ATOM      3  C   UNL     1       4.205   2.730  -2.081  0.00  0.00    +0.088 C 
ATOM      4  N   UNL     1       4.269   4.031  -1.392  0.00  0.00    -0.298 NA
ATOM      5  C   UNL     1       3.283   4.942  -2.013  0.00  0.00    +0.085 C 
ATOM      6  C   UNL     1       4.013   3.878   0.046  0.00  0.00    +0.105 C 
ENDROOT
BRANCH   3   7
ATOM      7  C   UNL     1       5.532   2.424  -2.726  0.00  0.00    -0.012 A 
ATOM      8  C   UNL     1       6.331   1.409  -2.234  0.00  0.00    +0.115 A 
ATOM      9  N   UNL     1       7.494   1.135  -2.792  0.00  0.00    -0.263 NA
ATOM     10  C   UNL     1       7.939   1.810  -3.832  0.00  0.00    +0.111 A 
ATOM     11  C   UNL     1       7.195   2.839  -4.380  0.00  0.00    +0.020 A 
ATOM     12  C   UNL     1       5.965   3.152  -3.823  0.00  0.00    +0.008 A 
ENDBRANCH   3   7
TORSDOF 1
ENDMDL
MODEL 2
REMARK VINA RESULT:    -3.659      1.295      4.448
REMARK INTER + INTRA:          -4.110
REMARK INTER:                  -3.887
REMARK INTRA:                  -0.223
REMARK UNBOUND:                -0.237
REMARK  Name = Nicotine.pdb
REMARK  2 active torsions:
REMARK  status: ('A' for Active; 'I' for Inactive)
REMARK    1  A    between atoms: C_3  and  C_6
REMARK    2  A    between atoms: N_4  and  C_12
REMARK                            x       y       z     vdW  Elec       q    Type
REMARK                         _______ _______ _______ _____ _____    ______ ____
ROOT
ATOM      1  C   UNL     1       7.948   2.217  -4.326  0.00  0.00    +0.017 C 
ATOM      2  C   UNL     1       6.794   3.249  -4.424  0.00  0.00    +0.025 C 
ATOM      3  C   UNL     1       6.487   3.568  -2.945  0.00  0.00    +0.088 C 
ATOM      4  N   UNL     1       6.979   2.434  -2.143  0.00  0.00    -0.298 NA
ATOM      5  C   UNL     1       7.550   1.422  -3.057  0.00  0.00    +0.085 C 
ATOM      6  C   UNL     1       7.975   2.877  -1.159  0.00  0.00    +0.105 C 
ENDROOT
BRANCH   3   7
ATOM      7  C   UNL     1       5.001   3.728  -2.753  0.00  0.00    -0.012 A 
ATOM      8  C   UNL     1       4.488   4.891  -2.212  0.00  0.00    +0.115 A 
ATOM      9  N   UNL     1       3.189   5.039  -2.040  0.00  0.00    -0.263 NA
ATOM     10  C   UNL     1       2.333   4.094  -2.375  0.00  0.00    +0.111 A 
ATOM     11  C   UNL     1       2.773   2.903  -2.923  0.00  0.00    +0.020 A 
ATOM     12  C   UNL     1       4.132   2.713  -3.123  0.00  0.00    +0.008 A 
ENDBRANCH   3   7
TORSDOF 1
ENDMDL
MODEL 3
REMARK VINA RESULT:    -3.388      1.299      4.555
REMARK INTER + INTRA:          -3.823
REMARK INTER:                  -3.628
REMARK INTRA:                  -0.195
REMARK UNBOUND:                -0.237
REMARK  Name = Nicotine.pdb
REMARK  2 active torsions:
REMARK  status: ('A' for Active; 'I' for Inactive)
REMARK    1  A    between atoms: C_3  and  C_6
REMARK    2  A    between atoms: N_4  and  C_12
REMARK                            x       y       z     vdW  Elec       q    Type
REMARK                         _______ _______ _______ _____ _____    ______ ____
ROOT
ATOM      1  C   UNL     1       7.303   1.259  -1.956  0.00  0.00    +0.017 C 
ATOM      2  C   UNL     1       5.759   1.395  -2.015  0.00  0.00    +0.025 C 
ATOM      3  C   UNL     1       5.546   2.448  -3.124  0.00  0.00    +0.088 C 
ATOM      4  N   UNL     1       6.795   3.222  -3.238  0.00  0.00    -0.298 NA
ATOM      5  C   UNL     1       7.756   2.714  -2.236  0.00  0.00    +0.085 C 
ATOM      6  C   UNL     1       7.349   3.131  -4.594  0.00  0.00    +0.105 C 
ENDROOT
BRANCH   3   7
ATOM      7  C   UNL     1       4.407   3.361  -2.752  0.00  0.00    -0.012 A 
ATOM      8  C   UNL     1       4.659   4.625  -2.252  0.00  0.00    +0.115 A 
ATOM      9  N   UNL     1       3.668   5.431  -1.924  0.00  0.00    -0.263 NA
ATOM     10  C   UNL     1       2.407   5.069  -2.056  0.00  0.00    +0.111 A 
ATOM     11  C   UNL     1       2.078   3.820  -2.550  0.00  0.00    +0.020 A 
ATOM     12  C   UNL     1       3.093   2.947  -2.911  0.00  0.00    +0.008 A 
ENDBRANCH   3   7
TORSDOF 1
ENDMDL
MODEL 4
REMARK VINA RESULT:    -3.339      2.078      3.164
REMARK INTER + INTRA:          -3.771
REMARK INTER:                  -3.574
REMARK INTRA:                  -0.197
REMARK UNBOUND:                -0.237
REMARK  Name = Nicotine.pdb
REMARK  2 active torsions:
REMARK  status: ('A' for Active; 'I' for Inactive)
REMARK    1  A    between atoms: C_3  and  C_6
REMARK    2  A    between atoms: N_4  and  C_12
REMARK                            x       y       z     vdW  Elec       q    Type
REMARK                         _______ _______ _______ _____ _____    ______ ____
ROOT
ATOM      1  C   UNL     1       5.751   5.908  -2.362  0.00  0.00    +0.017 C 
ATOM      2  C   UNL     1       6.720   5.563  -3.524  0.00  0.00    +0.025 C 
ATOM      3  C   UNL     1       6.409   4.078  -3.806  0.00  0.00    +0.088 C 
ATOM      4  N   UNL     1       5.797   3.521  -2.586  0.00  0.00    -0.298 NA
ATOM      5  C   UNL     1       5.740   4.583  -1.560  0.00  0.00    +0.085 C 
ATOM      6  C   UNL     1       4.458   2.985  -2.866  0.00  0.00    +0.105 C 
ENDROOT
BRANCH   3   7
ATOM      7  C   UNL     1       7.682   3.339  -4.126  0.00  0.00    -0.012 A 
ATOM      8  C   UNL     1       8.879   4.022  -4.234  0.00  0.00    +0.115 A 
ATOM      9  N   UNL     1       9.998   3.383  -4.514  0.00  0.00    -0.263 NA
ATOM     10  C   UNL     1      10.023   2.079  -4.701  0.00  0.00    +0.111 A 
ATOM     11  C   UNL     1       8.865   1.328  -4.609  0.00  0.00    +0.020 A 
ATOM     12  C   UNL     1       7.670   1.965  -4.311  0.00  0.00    +0.008 A 
ENDBRANCH   3   7
TORSDOF 1
ENDMDL
MODEL 5
REMARK VINA RESULT:    -3.335      2.647      4.248
REMARK INTER + INTRA:          -3.767
REMARK INTER:                  -3.537
REMARK INTRA:                  -0.230
REMARK UNBOUND:                -0.237
REMARK  Name = Nicotine.pdb
REMARK  2 active torsions:
REMARK  status: ('A' for Active; 'I' for Inactive)
REMARK    1  A    between atoms: C_3  and  C_6
REMARK    2  A    between atoms: N_4  and  C_12
REMARK                            x       y       z     vdW  Elec       q    Type
REMARK                         _______ _______ _______ _____ _____    ______ ____
ROOT
ATOM      1  C   UNL     1       6.151   3.697  -3.369  0.00  0.00    +0.017 C 
ATOM      2  C   UNL     1       6.162   2.536  -2.340  0.00  0.00    +0.025 C 
ATOM      3  C   UNL     1       7.488   1.810  -2.649  0.00  0.00    +0.088 C 
ATOM      4  N   UNL     1       7.860   2.150  -4.034  0.00  0.00    -0.298 NA
ATOM      5  C   UNL     1       6.815   3.030  -4.600  0.00  0.00    +0.085 C 
ATOM      6  C   UNL     1       9.177   2.799  -4.082  0.00  0.00    +0.105 C 
ENDROOT
BRANCH   3   7
ATOM      7  C   UNL     1       7.300   0.321  -2.519  0.00  0.00    -0.012 A 
ATOM      8  C   UNL     1       8.303  -0.548  -2.906  0.00  0.00    +0.115 A 
ATOM      9  N   UNL     1       8.146  -1.852  -2.795  0.00  0.00    -0.263 NA
ATOM     10  C   UNL     1       7.037  -2.379  -2.316  0.00  0.00    +0.111 A 
ATOM     11  C   UNL     1       5.990  -1.573  -1.908  0.00  0.00    +0.020 A 
ATOM     12  C   UNL     1       6.120  -0.196  -2.005  0.00  0.00    +0.008 A 
ENDBRANCH   3   7
TORSDOF 1
ENDMDL
MODEL 6
REMARK VINA RESULT:    -3.307      1.090      1.896
REMARK INTER + INTRA:          -3.737
REMARK INTER:                  -3.562
REMARK INTRA:                  -0.175
REMARK UNBOUND:                -0.237
REMARK  Name = Nicotine.pdb
REMARK  2 active torsions:
REMARK  status: ('A' for Active; 'I' for Inactive)
REMARK    1  A    between atoms: C_3  and  C_6
REMARK    2  A    between atoms: N_4  and  C_12
REMARK                            x       y       z     vdW  Elec       q    Type
REMARK                         _______ _______ _______ _____ _____    ______ ____
ROOT
ATOM      1  C   UNL     1       4.250   4.962  -1.040  0.00  0.00    +0.017 C 
ATOM      2  C   UNL     1       5.460   4.861  -2.005  0.00  0.00    +0.025 C 
ATOM      3  C   UNL     1       5.047   3.723  -2.962  0.00  0.00    +0.088 C 
ATOM      4  N   UNL     1       4.035   2.910  -2.264  0.00  0.00    -0.298 NA
ATOM      5  C   UNL     1       3.825   3.477  -0.915  0.00  0.00    +0.085 C 
ATOM      6  C   UNL     1       2.777   2.869  -3.021  0.00  0.00    +0.105 C 
ENDROOT
BRANCH   3   7
ATOM      7  C   UNL     1       6.246   2.874  -3.298  0.00  0.00    -0.012 A 
ATOM      8  C   UNL     1       6.596   1.808  -2.491  0.00  0.00    +0.115 A 
ATOM      9  N   UNL     1       7.644   1.060  -2.777  0.00  0.00    -0.263 NA
ATOM     10  C   UNL     1       8.395   1.296  -3.834  0.00  0.00    +0.111 A 
ATOM     11  C   UNL     1       8.107   2.345  -4.688  0.00  0.00    +0.020 A 
ATOM     12  C   UNL     1       7.010   3.149  -4.422  0.00  0.00    +0.008 A 
ENDBRANCH   3   7
TORSDOF 1
ENDMDL
MODEL 7
REMARK VINA RESULT:    -3.094      7.715      9.297
REMARK INTER + INTRA:          -3.512
REMARK INTER:                  -3.258
REMARK INTRA:                  -0.254
REMARK UNBOUND:                -0.237
REMARK  Name = Nicotine.pdb
REMARK  2 active torsions:
REMARK  status: ('A' for Active; 'I' for Inactive)
REMARK    1  A    between atoms: C_3  and  C_6
REMARK    2  A    between atoms: N_4  and  C_12
REMARK                            x       y       z     vdW  Elec       q    Type
REMARK                         _______ _______ _______ _____ _____    ______ ____
ROOT
ATOM      1  C   UNL     1      -4.234   2.282   1.597  0.00  0.00    +0.017 C 
ATOM      2  C   UNL     1      -2.832   1.625   1.485  0.00  0.00    +0.025 C 
ATOM      3  C   UNL     1      -2.614   1.033   2.894  0.00  0.00    +0.088 C 
ATOM      4  N   UNL     1      -3.491   1.772   3.820  0.00  0.00    -0.298 NA
ATOM      5  C   UNL     1      -4.219   2.806   3.054  0.00  0.00    +0.085 C 
ATOM      6  C   UNL     1      -4.424   0.864   4.499  0.00  0.00    +0.105 C 
ENDROOT
BRANCH   3   7
ATOM      7  C   UNL     1      -1.174   1.203   3.303  0.00  0.00    -0.012 A 
ATOM      8  C   UNL     1      -0.674   0.524   4.399  0.00  0.00    +0.115 A 
ATOM      9  N   UNL     1       0.585   0.667   4.764  0.00  0.00    -0.263 NA
ATOM     10  C   UNL     1       1.412   1.456   4.107  0.00  0.00    +0.111 A 
ATOM     11  C   UNL     1       0.984   2.166   3.001  0.00  0.00    +0.020 A 
ATOM     12  C   UNL     1      -0.332   2.037   2.584  0.00  0.00    +0.008 A 
ENDBRANCH   3   7
TORSDOF 1
ENDMDL
MODEL 8
REMARK VINA RESULT:    -3.068      1.795      2.400
REMARK INTER + INTRA:          -3.484
REMARK INTER:                  -3.228
REMARK INTRA:                  -0.256
REMARK UNBOUND:                -0.237
REMARK  Name = Nicotine.pdb
REMARK  2 active torsions:
REMARK  status: ('A' for Active; 'I' for Inactive)
REMARK    1  A    between atoms: C_3  and  C_6
REMARK    2  A    between atoms: N_4  and  C_12
REMARK                            x       y       z     vdW  Elec       q    Type
REMARK                         _______ _______ _______ _____ _____    ______ ____
ROOT
ATOM      1  C   UNL     1       2.416   3.509  -1.091  0.00  0.00    +0.017 C 
ATOM      2  C   UNL     1       3.943   3.255  -1.183  0.00  0.00    +0.025 C 
ATOM      3  C   UNL     1       4.484   4.588  -1.742  0.00  0.00    +0.088 C 
ATOM      4  N   UNL     1       3.365   5.261  -2.426  0.00  0.00    -0.298 NA
ATOM      5  C   UNL     1       2.170   4.395  -2.337  0.00  0.00    +0.085 C 
ATOM      6  C   UNL     1       3.104   6.581  -1.838  0.00  0.00    +0.105 C 
ENDROOT
BRANCH   3   7
ATOM      7  C   UNL     1       5.598   4.320  -2.720  0.00  0.00    -0.012 A 
ATOM      8  C   UNL     1       6.546   5.291  -2.983  0.00  0.00    +0.115 A 
ATOM      9  N   UNL     1       7.525   5.064  -3.838  0.00  0.00    -0.263 NA
ATOM     10  C   UNL     1       7.638   3.914  -4.472  0.00  0.00    +0.111 A 
ATOM     11  C   UNL     1       6.728   2.896  -4.259  0.00  0.00    +0.020 A 
ATOM     12  C   UNL     1       5.688   3.095  -3.364  0.00  0.00    +0.008 A 
ENDBRANCH   3   7
TORSDOF 1
ENDMDL
MODEL 9
REMARK VINA RESULT:    -3.017      6.352      7.815
REMARK INTER + INTRA:          -3.430
REMARK INTER:                  -3.229
REMARK INTRA:                  -0.201
REMARK UNBOUND:                -0.237
REMARK  Name = Nicotine.pdb
REMARK  2 active torsions:
REMARK  status: ('A' for Active; 'I' for Inactive)
REMARK    1  A    between atoms: C_3  and  C_6
REMARK    2  A    between atoms: N_4  and  C_12
REMARK                            x       y       z     vdW  Elec       q    Type
REMARK                         _______ _______ _______ _____ _____    ______ ____
ROOT
ATOM      1  C   UNL     1      -2.619   0.378   2.612  0.00  0.00    +0.017 C 
ATOM      2  C   UNL     1      -1.441   0.565   3.604  0.00  0.00    +0.025 C 
ATOM      3  C   UNL     1      -0.841   1.922   3.177  0.00  0.00    +0.088 C 
ATOM      4  N   UNL     1      -1.244   2.157   1.779  0.00  0.00    -0.298 NA
ATOM      5  C   UNL     1      -2.040   1.001   1.317  0.00  0.00    +0.085 C 
ATOM      6  C   UNL     1      -2.005   3.406   1.653  0.00  0.00    +0.105 C 
ENDROOT
BRANCH   3   7
ATOM      7  C   UNL     1       0.662   1.872   3.278  0.00  0.00    -0.012 A 
ATOM      8  C   UNL     1       1.270   1.359   4.409  0.00  0.00    +0.115 A 
ATOM      9  N   UNL     1       2.584   1.312   4.505  0.00  0.00    -0.263 NA
ATOM     10  C   UNL     1       3.366   1.747   3.537  0.00  0.00    +0.111 A 
ATOM     11  C   UNL     1       2.830   2.272   2.376  0.00  0.00    +0.020 A 
ATOM     12  C   UNL     1       1.452   2.333   2.237  0.00  0.00    +0.008 A 
ENDBRANCH   3   7
TORSDOF 1
ENDMDL
MODEL 10
REMARK VINA RESULT:    -2.910      2.454      5.176
REMARK INTER + INTRA:          -3.317
REMARK INTER:                  -3.101
REMARK INTRA:                  -0.216
REMARK UNBOUND:                -0.237
REMARK  Name = Nicotine.pdb
REMARK  2 active torsions:
REMARK  status: ('A' for Active; 'I' for Inactive)
REMARK    1  A    between atoms: C_3  and  C_6
REMARK    2  A    between atoms: N_4  and  C_12
REMARK                            x       y       z     vdW  Elec       q    Type
REMARK                         _______ _______ _______ _____ _____    ______ ____
ROOT
ATOM      1  C   UNL     1       3.062   2.919  -3.150  0.00  0.00    +0.017 C 
ATOM      2  C   UNL     1       2.052   3.114  -1.989  0.00  0.00    +0.025 C 
ATOM      3  C   UNL     1       2.902   3.806  -0.902  0.00  0.00    +0.088 C 
ATOM      4  N   UNL     1       4.314   3.493  -1.186  0.00  0.00    -0.298 NA
ATOM      5  C   UNL     1       4.372   2.621  -2.379  0.00  0.00    +0.085 C 
ATOM      6  C   UNL     1       5.095   4.719  -1.391  0.00  0.00    +0.105 C 
ENDROOT
BRANCH   3   7
ATOM      7  C   UNL     1       2.522   3.280   0.458  0.00  0.00    -0.012 A 
ATOM      8  C   UNL     1       3.476   3.156   1.451  0.00  0.00    +0.115 A 
ATOM      9  N   UNL     1       3.152   2.697   2.644  0.00  0.00    -0.263 NA
ATOM     10  C   UNL     1       1.918   2.339   2.937  0.00  0.00    +0.111 A 
ATOM     11  C   UNL     1       0.910   2.436   1.995  0.00  0.00    +0.020 A 
ATOM     12  C   UNL     1       1.212   2.919   0.732  0.00  0.00    +0.008 A 
ENDBRANCH   3   7
TORSDOF 1
ENDMDL
