MODEL 1
REMARK VINA RESULT:     6.819      0.000      0.000
REMARK INTER + INTRA:           7.008
REMARK INTER:                   7.218
REMARK INTRA:                  -0.210
REMARK UNBOUND:                -0.210
REMARK  Name = Nicotine.pdb
REMARK  2 active torsions:
REMARK  status: ('A' for Active; 'I' for Inactive)
REMARK    1  A    between atoms: C_3  and  C_6
REMARK    2  A    between atoms: N_4  and  C_12
REMARK                            x       y       z     vdW  Elec       q    Type
REMARK                         _______ _______ _______ _____ _____    ______ ____
ROOT
ATOM      1  C   UNL     1      -1.141   6.939   2.096  0.00  0.00    +0.017 C 
ATOM      2  C   UNL     1      -2.123   7.012   3.294  0.00  0.00    +0.025 C 
ATOM      3  C   UNL     1      -1.531   5.992   4.291  0.00  0.00    +0.088 C 
ATOM      4  N   UNL     1      -0.697   5.057   3.515  0.00  0.00    -0.298 NA
ATOM      5  C   UNL     1      -0.767   5.436   2.088  0.00  0.00    +0.085 C 
ATOM      6  C   UNL     1       0.691   5.067   3.995  0.00  0.00    +0.105 C 
ENDROOT
BRANCH   3   7
ATOM      7  C   UNL     1      -2.642   5.242   4.978  0.00  0.00    -0.012 A 
ATOM      8  C   UNL     1      -3.646   5.927   5.636  0.00  0.00    +0.115 A 
ATOM      9  N   UNL     1      -4.622   5.277   6.240  0.00  0.00    -0.263 NA
ATOM     10  C   UNL     1      -4.681   3.960   6.241  0.00  0.00    +0.111 A 
ATOM     11  C   UNL     1      -3.713   3.208   5.602  0.00  0.00    +0.020 A 
ATOM     12  C   UNL     1      -2.674   3.856   4.953  0.00  0.00    +0.008 A 
ENDBRANCH   3   7
TORSDOF 1
ENDMDL
MODEL 2
REMARK VINA RESULT:     8.708      1.178      4.512
REMARK INTER + INTRA:           9.007
REMARK INTER:                   9.231
REMARK INTRA:                  -0.224
REMARK UNBOUND:                -0.210
REMARK  Name = Nicotine.pdb
REMARK  2 active torsions:
REMARK  status: ('A' for Active; 'I' for Inactive)
REMARK    1  A    between atoms: C_3  and  C_6
REMARK    2  A    between atoms: N_4  and  C_12
REMARK                            x       y       z     vdW  Elec       q    Type
REMARK                         _______ _______ _______ _____ _____    ______ ____
ROOT
ATOM      1  C   UNL     1      -3.792   3.793   6.242  0.00  0.00    +0.017 C 
ATOM      2  C   UNL     1      -2.361   3.874   5.649  0.00  0.00    +0.025 C 
ATOM      3  C   UNL     1      -2.187   5.382   5.366  0.00  0.00    +0.088 C 
ATOM      4  N   UNL     1      -3.537   5.963   5.253  0.00  0.00    -0.298 NA
ATOM      5  C   UNL     1      -4.531   4.882   5.426  0.00  0.00    +0.085 C 
ATOM      6  C   UNL     1      -3.738   7.028   6.244  0.00  0.00    +0.105 C 
ENDROOT
BRANCH   3   7
ATOM      7  C   UNL     1      -1.433   5.578   4.077  0.00  0.00    -0.012 A 
ATOM      8  C   UNL     1      -1.971   6.347   3.063  0.00  0.00    +0.115 A 
ATOM      9  N   UNL     1      -1.317   6.525   1.931  0.00  0.00    -0.263 NA
ATOM     10  C   UNL     1      -0.134   5.981   1.722  0.00  0.00    +0.111 A 
ATOM     11  C   UNL     1       0.467   5.200   2.691  0.00  0.00    +0.020 A 
ATOM     12  C   UNL     1      -0.188   4.996   3.896  0.00  0.00    +0.008 A 
ENDBRANCH   3   7
TORSDOF 1
ENDMDL
