MODEL 1
REMARK VINA RESULT:    -4.398      0.000      0.000
REMARK INTER + INTRA:          -4.907
REMARK INTER:                  -4.656
REMARK INTRA:                  -0.251
REMARK UNBOUND:                -0.251
REMARK  Name = Nicotine.pdb
REMARK  2 active torsions:
REMARK  status: ('A' for Active; 'I' for Inactive)
REMARK    1  A    between atoms: C_3  and  C_6
REMARK    2  A    between atoms: N_4  and  C_12
REMARK                            x       y       z     vdW  Elec       q    Type
REMARK                         _______ _______ _______ _____ _____    ______ ____
ROOT
ATOM      1  C   UNL     1       8.560  -1.680   0.943  0.00  0.00    +0.017 C 
ATOM      2  C   UNL     1       7.575  -1.658   2.142  0.00  0.00    +0.025 C 
ATOM      3  C   UNL     1       7.153  -3.137   2.272  0.00  0.00    +0.088 C 
ATOM      4  N   UNL     1       7.395  -3.777   0.966  0.00  0.00    -0.298 NA
ATOM      5  C   UNL     1       7.920  -2.757   0.033  0.00  0.00    +0.085 C 
ATOM      6  C   UNL     1       8.327  -4.904   1.095  0.00  0.00    +0.105 C 
ENDROOT
BRANCH   3   7
ATOM      7  C   UNL     1       5.691  -3.224   2.625  0.00  0.00    -0.012 A 
ATOM      8  C   UNL     1       5.129  -4.436   2.980  0.00  0.00    +0.115 A 
ATOM      9  N   UNL     1       3.850  -4.521   3.290  0.00  0.00    -0.263 NA
ATOM     10  C   UNL     1       3.061  -3.465   3.275  0.00  0.00    +0.111 A 
ATOM     11  C   UNL     1       3.553  -2.219   2.931  0.00  0.00    +0.020 A 
ATOM     12  C   UNL     1       4.894  -2.090   2.603  0.00  0.00    +0.008 A 
ENDBRANCH   3   7
TORSDOF 1
ENDMDL
MODEL 2
REMARK VINA RESULT:    -4.242      1.910      2.972
REMARK INTER + INTRA:          -4.741
REMARK INTER:                  -4.518
REMARK INTRA:                  -0.223
REMARK UNBOUND:                -0.251
REMARK  Name = Nicotine.pdb
REMARK  2 active torsions:
REMARK  status: ('A' for Active; 'I' for Inactive)
REMARK    1  A    between atoms: C_3  and  C_6
REMARK    2  A    between atoms: N_4  and  C_12
REMARK                            x       y       z     vdW  Elec       q    Type
REMARK                         _______ _______ _______ _____ _____    ______ ____
ROOT
ATOM      1  C   UNL     1       8.239  -5.957   4.557  0.00  0.00    +0.017 C 
ATOM      2  C   UNL     1       6.716  -5.841   4.285  0.00  0.00    +0.025 C 
ATOM      3  C   UNL     1       6.659  -5.046   2.963  0.00  0.00    +0.088 C 
ATOM      4  N   UNL     1       7.930  -4.310   2.840  0.00  0.00    -0.298 NA
ATOM      5  C   UNL     1       8.755  -4.593   4.034  0.00  0.00    +0.085 C 
ATOM      6  C   UNL     1       8.639  -4.683   1.610  0.00  0.00    +0.105 C 
ENDROOT
BRANCH   3   7
ATOM      7  C   UNL     1       5.505  -4.078   2.996  0.00  0.00    -0.012 A 
ATOM      8  C   UNL     1       5.723  -2.724   2.821  0.00  0.00    +0.115 A 
ATOM      9  N   UNL     1       4.719  -1.870   2.849  0.00  0.00    -0.263 NA
ATOM     10  C   UNL     1       3.477  -2.267   3.043  0.00  0.00    +0.111 A 
ATOM     11  C   UNL     1       3.182  -3.605   3.225  0.00  0.00    +0.020 A 
ATOM     12  C   UNL     1       4.211  -4.533   3.197  0.00  0.00    +0.008 A 
ENDBRANCH   3   7
TORSDOF 1
ENDMDL
MODEL 3
REMARK VINA RESULT:    -4.100      1.391      2.383
REMARK INTER + INTRA:          -4.591
REMARK INTER:                  -4.372
REMARK INTRA:                  -0.219
REMARK UNBOUND:                -0.251
REMARK  Name = Nicotine.pdb
REMARK  2 active torsions:
REMARK  status: ('A' for Active; 'I' for Inactive)
REMARK    1  A    between atoms: C_3  and  C_6
REMARK    2  A    between atoms: N_4  and  C_12
REMARK                            x       y       z     vdW  Elec       q    Type
REMARK                         _______ _______ _______ _____ _____    ______ ____
ROOT
ATOM      1  C   UNL     1       8.798  -4.632   1.131  0.00  0.00    +0.017 C 
ATOM      2  C   UNL     1       7.402  -4.015   0.857  0.00  0.00    +0.025 C 
ATOM      3  C   UNL     1       7.196  -3.072   2.062  0.00  0.00    +0.088 C 
ATOM      4  N   UNL     1       8.073  -3.550   3.146  0.00  0.00    -0.298 NA
ATOM      5  C   UNL     1       8.788  -4.756   2.676  0.00  0.00    +0.085 C 
ATOM      6  C   UNL     1       9.018  -2.505   3.560  0.00  0.00    +0.105 C 
ENDROOT
BRANCH   3   7
ATOM      7  C   UNL     1       5.758  -3.115   2.508  0.00  0.00    -0.012 A 
ATOM      8  C   UNL     1       4.998  -1.961   2.531  0.00  0.00    +0.115 A 
ATOM      9  N   UNL     1       3.738  -1.990   2.919  0.00  0.00    -0.263 NA
ATOM     10  C   UNL     1       3.156  -3.110   3.299  0.00  0.00    +0.111 A 
ATOM     11  C   UNL     1       3.852  -4.304   3.302  0.00  0.00    +0.020 A 
ATOM     12  C   UNL     1       5.178  -4.313   2.895  0.00  0.00    +0.008 A 
ENDBRANCH   3   7
TORSDOF 1
ENDMDL
MODEL 4
REMARK VINA RESULT:    -4.020      1.611      4.808
REMARK INTER + INTRA:          -4.506
REMARK INTER:                  -4.250
REMARK INTRA:                  -0.256
REMARK UNBOUND:                -0.251
REMARK  Name = Nicotine.pdb
REMARK  2 active torsions:
REMARK  status: ('A' for Active; 'I' for Inactive)
REMARK    1  A    between atoms: C_3  and  C_6
REMARK    2  A    between atoms: N_4  and  C_12
REMARK                            x       y       z     vdW  Elec       q    Type
REMARK                         _______ _______ _______ _____ _____    ______ ____
ROOT
ATOM      1  C   UNL     1       6.427  -5.505   3.990  0.00  0.00    +0.017 C 
ATOM      2  C   UNL     1       7.651  -5.175   3.096  0.00  0.00    +0.025 C 
ATOM      3  C   UNL     1       7.243  -3.846   2.426  0.00  0.00    +0.088 C 
ATOM      4  N   UNL     1       5.772  -3.766   2.474  0.00  0.00    -0.298 NA
ATOM      5  C   UNL     1       5.255  -4.992   3.118  0.00  0.00    +0.085 C 
ATOM      6  C   UNL     1       5.333  -2.566   3.197  0.00  0.00    +0.105 C 
ENDROOT
BRANCH   3   7
ATOM      7  C   UNL     1       7.713  -3.828   0.994  0.00  0.00    -0.012 A 
ATOM      8  C   UNL     1       7.810  -2.634   0.306  0.00  0.00    +0.115 A 
ATOM      9  N   UNL     1       8.220  -2.610  -0.948  0.00  0.00    -0.263 NA
ATOM     10  C   UNL     1       8.551  -3.712  -1.590  0.00  0.00    +0.111 A 
ATOM     11  C   UNL     1       8.479  -4.944  -0.966  0.00  0.00    +0.020 A 
ATOM     12  C   UNL     1       8.057  -5.008   0.353  0.00  0.00    +0.008 A 
ENDBRANCH   3   7
TORSDOF 1
ENDMDL
MODEL 5
REMARK VINA RESULT:    -3.908      1.937      4.517
REMARK INTER + INTRA:          -4.388
REMARK INTER:                  -4.133
REMARK INTRA:                  -0.254
REMARK UNBOUND:                -0.251
REMARK  Name = Nicotine.pdb
REMARK  2 active torsions:
REMARK  status: ('A' for Active; 'I' for Inactive)
REMARK    1  A    between atoms: C_3  and  C_6
REMARK    2  A    between atoms: N_4  and  C_12
REMARK                            x       y       z     vdW  Elec       q    Type
REMARK                         _______ _______ _______ _____ _____    ______ ____
ROOT
ATOM      1  C   UNL     1       5.950  -2.365   3.230  0.00  0.00    +0.017 C 
ATOM      2  C   UNL     1       6.064  -2.424   1.683  0.00  0.00    +0.025 C 
ATOM      3  C   UNL     1       6.464  -3.891   1.420  0.00  0.00    +0.088 C 
ATOM      4  N   UNL     1       7.072  -4.407   2.660  0.00  0.00    -0.298 NA
ATOM      5  C   UNL     1       7.088  -3.322   3.664  0.00  0.00    +0.085 C 
ATOM      6  C   UNL     1       6.338  -5.577   3.160  0.00  0.00    +0.105 C 
ENDROOT
BRANCH   3   7
ATOM      7  C   UNL     1       7.462  -3.956   0.293  0.00  0.00    -0.012 A 
ATOM      8  C   UNL     1       7.766  -5.166  -0.302  0.00  0.00    +0.115 A 
ATOM      9  N   UNL     1       8.638  -5.231  -1.290  0.00  0.00    -0.263 NA
ATOM     10  C   UNL     1       9.250  -4.156  -1.746  0.00  0.00    +0.111 A 
ATOM     11  C   UNL     1       8.996  -2.912  -1.200  0.00  0.00    +0.020 A 
ATOM     12  C   UNL     1       8.082  -2.803  -0.164  0.00  0.00    +0.008 A 
ENDBRANCH   3   7
TORSDOF 1
ENDMDL
MODEL 6
REMARK VINA RESULT:    -3.809      1.573      4.500
REMARK INTER + INTRA:          -4.283
REMARK INTER:                  -4.028
REMARK INTRA:                  -0.256
REMARK UNBOUND:                -0.251
REMARK  Name = Nicotine.pdb
REMARK  2 active torsions:
REMARK  status: ('A' for Active; 'I' for Inactive)
REMARK    1  A    between atoms: C_3  and  C_6
REMARK    2  A    between atoms: N_4  and  C_12
REMARK                            x       y       z     vdW  Elec       q    Type
REMARK                         _______ _______ _______ _____ _____    ______ ____
ROOT
ATOM      1  C   UNL     1       4.676  -3.184   2.985  0.00  0.00    +0.017 C 
ATOM      2  C   UNL     1       5.368  -2.061   2.169  0.00  0.00    +0.025 C 
ATOM      3  C   UNL     1       6.452  -2.825   1.378  0.00  0.00    +0.088 C 
ATOM      4  N   UNL     1       6.718  -4.081   2.103  0.00  0.00    -0.298 NA
ATOM      5  C   UNL     1       5.870  -4.114   3.314  0.00  0.00    +0.085 C 
ATOM      6  C   UNL     1       6.463  -5.247   1.248  0.00  0.00    +0.105 C 
ENDROOT
BRANCH   3   7
ATOM      7  C   UNL     1       7.710  -1.999   1.302  0.00  0.00    -0.012 A 
ATOM      8  C   UNL     1       8.610  -2.189   0.271  0.00  0.00    +0.115 A 
ATOM      9  N   UNL     1       9.713  -1.470   0.198  0.00  0.00    -0.263 NA
ATOM     10  C   UNL     1      10.001  -0.549   1.095  0.00  0.00    +0.111 A 
ATOM     11  C   UNL     1       9.148  -0.302   2.155  0.00  0.00    +0.020 A 
ATOM     12  C   UNL     1       7.976  -1.034   2.262  0.00  0.00    +0.008 A 
ENDBRANCH   3   7
TORSDOF 1
ENDMDL
MODEL 7
REMARK VINA RESULT:    -3.742      1.615      4.535
REMARK INTER + INTRA:          -4.212
REMARK INTER:                  -3.991
REMARK INTRA:                  -0.221
REMARK UNBOUND:                -0.251
REMARK  Name = Nicotine.pdb
REMARK  2 active torsions:
REMARK  status: ('A' for Active; 'I' for Inactive)
REMARK    1  A    between atoms: C_3  and  C_6
REMARK    2  A    between atoms: N_4  and  C_12
REMARK                            x       y       z     vdW  Elec       q    Type
REMARK                         _______ _______ _______ _____ _____    ______ ____
ROOT
ATOM      1  C   UNL     1       7.585  -3.089   4.592  0.00  0.00    +0.017 C 
ATOM      2  C   UNL     1       8.337  -2.275   3.506  0.00  0.00    +0.025 C 
ATOM      3  C   UNL     1       7.245  -2.015   2.448  0.00  0.00    +0.088 C 
ATOM      4  N   UNL     1       6.206  -3.045   2.629  0.00  0.00    -0.298 NA
ATOM      5  C   UNL     1       6.619  -3.941   3.731  0.00  0.00    +0.085 C 
ATOM      6  C   UNL     1       4.901  -2.434   2.908  0.00  0.00    +0.105 C 
ENDROOT
BRANCH   3   7
ATOM      7  C   UNL     1       7.835  -2.118   1.065  0.00  0.00    -0.012 A 
ATOM      8  C   UNL     1       7.370  -3.068   0.176  0.00  0.00    +0.115 A 
ATOM      9  N   UNL     1       7.881  -3.166  -1.036  0.00  0.00    -0.263 NA
ATOM     10  C   UNL     1       8.848  -2.369  -1.446  0.00  0.00    +0.111 A 
ATOM     11  C   UNL     1       9.363  -1.394  -0.612  0.00  0.00    +0.020 A 
ATOM     12  C   UNL     1       8.847  -1.258   0.667  0.00  0.00    +0.008 A 
ENDBRANCH   3   7
TORSDOF 1
ENDMDL
MODEL 8
REMARK VINA RESULT:    -3.593      2.038      4.663
REMARK INTER + INTRA:          -4.054
REMARK INTER:                  -3.861
REMARK INTRA:                  -0.193
REMARK UNBOUND:                -0.251
REMARK  Name = Nicotine.pdb
REMARK  2 active torsions:
REMARK  status: ('A' for Active; 'I' for Inactive)
REMARK    1  A    between atoms: C_3  and  C_6
REMARK    2  A    between atoms: N_4  and  C_12
REMARK                            x       y       z     vdW  Elec       q    Type
REMARK                         _______ _______ _______ _____ _____    ______ ____
ROOT
ATOM      1  C   UNL     1       5.631  -2.083   1.809  0.00  0.00    +0.017 C 
ATOM      2  C   UNL     1       6.864  -2.861   1.278  0.00  0.00    +0.025 C 
ATOM      3  C   UNL     1       6.747  -4.225   1.991  0.00  0.00    +0.088 C 
ATOM      4  N   UNL     1       5.921  -4.019   3.194  0.00  0.00    -0.298 NA
ATOM      5  C   UNL     1       5.546  -2.591   3.270  0.00  0.00    +0.085 C 
ATOM      6  C   UNL     1       4.729  -4.877   3.168  0.00  0.00    +0.105 C 
ENDROOT
BRANCH   3   7
ATOM      7  C   UNL     1       8.116  -4.717   2.385  0.00  0.00    -0.012 A 
ATOM      8  C   UNL     1       9.189  -4.554   1.530  0.00  0.00    +0.115 A 
ATOM      9  N   UNL     1      10.391  -4.982   1.867  0.00  0.00    -0.263 NA
ATOM     10  C   UNL     1      10.616  -5.576   3.022  0.00  0.00    +0.111 A 
ATOM     11  C   UNL     1       9.591  -5.774   3.928  0.00  0.00    +0.020 A 
ATOM     12  C   UNL     1       8.315  -5.333   3.611  0.00  0.00    +0.008 A 
ENDBRANCH   3   7
TORSDOF 1
ENDMDL
MODEL 9
REMARK VINA RESULT:    -3.592      1.684      2.971
REMARK INTER + INTRA:          -4.053
REMARK INTER:                  -3.797
REMARK INTRA:                  -0.256
REMARK UNBOUND:                -0.251
REMARK  Name = Nicotine.pdb
REMARK  2 active torsions:
REMARK  status: ('A' for Active; 'I' for Inactive)
REMARK    1  A    between atoms: C_3  and  C_6
REMARK    2  A    between atoms: N_4  and  C_12
REMARK                            x       y       z     vdW  Elec       q    Type
REMARK                         _______ _______ _______ _____ _____    ______ ____
ROOT
ATOM      1  C   UNL     1       9.750  -3.272  -1.171  0.00  0.00    +0.017 C 
ATOM      2  C   UNL     1       8.285  -3.719  -0.924  0.00  0.00    +0.025 C 
ATOM      3  C   UNL     1       7.812  -2.759   0.188  0.00  0.00    +0.088 C 
ATOM      4  N   UNL     1       9.017  -2.261   0.877  0.00  0.00    -0.298 NA
ATOM      5  C   UNL     1      10.205  -2.888   0.259  0.00  0.00    +0.085 C 
ATOM      6  C   UNL     1       9.097  -0.797   0.807  0.00  0.00    +0.105 C 
ENDROOT
BRANCH   3   7
ATOM      7  C   UNL     1       6.931  -3.497   1.162  0.00  0.00    -0.012 A 
ATOM      8  C   UNL     1       6.119  -2.801   2.037  0.00  0.00    +0.115 A 
ATOM      9  N   UNL     1       5.345  -3.439   2.893  0.00  0.00    -0.263 NA
ATOM     10  C   UNL     1       5.313  -4.756   2.949  0.00  0.00    +0.111 A 
ATOM     11  C   UNL     1       6.097  -5.520   2.105  0.00  0.00    +0.020 A 
ATOM     12  C   UNL     1       6.920  -4.883   1.188  0.00  0.00    +0.008 A 
ENDBRANCH   3   7
TORSDOF 1
ENDMDL
MODEL 10
REMARK VINA RESULT:    -3.564      1.751      2.956
REMARK INTER + INTRA:          -4.024
REMARK INTER:                  -3.831
REMARK INTRA:                  -0.193
REMARK UNBOUND:                -0.251
REMARK  Name = Nicotine.pdb
REMARK  2 active torsions:
REMARK  status: ('A' for Active; 'I' for Inactive)
REMARK    1  A    between atoms: C_3  and  C_6
REMARK    2  A    between atoms: N_4  and  C_12
REMARK                            x       y       z     vdW  Elec       q    Type
REMARK                         _______ _______ _______ _____ _____    ______ ____
ROOT
ATOM      1  C   UNL     1       8.495  -2.725  -0.464  0.00  0.00    +0.017 C 
ATOM      2  C   UNL     1       7.361  -3.626   0.090  0.00  0.00    +0.025 C 
ATOM      3  C   UNL     1       7.080  -3.017   1.480  0.00  0.00    +0.088 C 
ATOM      4  N   UNL     1       8.287  -2.273   1.883  0.00  0.00    -0.298 NA
ATOM      5  C   UNL     1       9.305  -2.417   0.821  0.00  0.00    +0.085 C 
ATOM      6  C   UNL     1       7.977  -0.859   2.129  0.00  0.00    +0.105 C 
ENDROOT
BRANCH   3   7
ATOM      7  C   UNL     1       6.797  -4.114   2.473  0.00  0.00    -0.012 A 
ATOM      8  C   UNL     1       5.495  -4.432   2.811  0.00  0.00    +0.115 A 
ATOM      9  N   UNL     1       5.238  -5.391   3.679  0.00  0.00    -0.263 NA
ATOM     10  C   UNL     1       6.202  -6.080   4.256  0.00  0.00    +0.111 A 
ATOM     11  C   UNL     1       7.529  -5.819   3.967  0.00  0.00    +0.020 A 
ATOM     12  C   UNL     1       7.837  -4.821   3.055  0.00  0.00    +0.008 A 
ENDBRANCH   3   7
TORSDOF 1
ENDMDL
