MODEL 1
REMARK VINA RESULT:    -4.214      0.000      0.000
REMARK INTER + INTRA:          -4.675
REMARK INTER:                  -4.460
REMARK INTRA:                  -0.215
REMARK UNBOUND:                -0.215
REMARK  Name = Nicotine.pdb
REMARK  2 active torsions:
REMARK  status: ('A' for Active; 'I' for Inactive)
REMARK    1  A    between atoms: C_3  and  C_6
REMARK    2  A    between atoms: N_4  and  C_12
REMARK                            x       y       z     vdW  Elec       q    Type
REMARK                         _______ _______ _______ _____ _____    ______ ____
ROOT
ATOM      1  C   UNL     1      -1.723   3.630   3.157  0.00  0.00    +0.017 C 
ATOM      2  C   UNL     1      -1.161   3.679   1.712  0.00  0.00    +0.025 C 
ATOM      3  C   UNL     1      -0.771   2.210   1.442  0.00  0.00    +0.088 C 
ATOM      4  N   UNL     1      -0.581   1.560   2.751  0.00  0.00    -0.298 NA
ATOM      5  C   UNL     1      -0.811   2.564   3.812  0.00  0.00    +0.085 C 
ATOM      6  C   UNL     1      -1.485   0.413   2.906  0.00  0.00    +0.105 C 
ENDROOT
BRANCH   3   7
ATOM      7  C   UNL     1       0.511   2.157   0.651  0.00  0.00    -0.012 A 
ATOM      8  C   UNL     1       1.387   3.225   0.667  0.00  0.00    +0.115 A 
ATOM      9  N   UNL     1       2.511   3.187  -0.022  0.00  0.00    -0.263 NA
ATOM     10  C   UNL     1       2.843   2.138  -0.748  0.00  0.00    +0.111 A 
ATOM     11  C   UNL     1       2.016   1.031  -0.813  0.00  0.00    +0.020 A 
ATOM     12  C   UNL     1       0.829   1.034  -0.097  0.00  0.00    +0.008 A 
ENDBRANCH   3   7
TORSDOF 1
ENDMDL
MODEL 2
REMARK VINA RESULT:    -4.172      2.632      3.061
REMARK INTER + INTRA:          -4.631
REMARK INTER:                  -4.397
REMARK INTRA:                  -0.234
REMARK UNBOUND:                -0.215
REMARK  Name = Nicotine.pdb
REMARK  2 active torsions:
REMARK  status: ('A' for Active; 'I' for Inactive)
REMARK    1  A    between atoms: C_3  and  C_6
REMARK    2  A    between atoms: N_4  and  C_12
REMARK                            x       y       z     vdW  Elec       q    Type
REMARK                         _______ _______ _______ _____ _____    ______ ____
ROOT
ATOM      1  C   UNL     1      -2.919   4.461   3.994  0.00  0.00    +0.017 C 
ATOM      2  C   UNL     1      -1.979   3.887   2.902  0.00  0.00    +0.025 C 
ATOM      3  C   UNL     1      -0.790   3.340   3.720  0.00  0.00    +0.088 C 
ATOM      4  N   UNL     1      -0.788   4.047   5.013  0.00  0.00    -0.298 NA
ATOM      5  C   UNL     1      -1.902   5.019   5.021  0.00  0.00    +0.085 C 
ATOM      6  C   UNL     1      -0.906   3.101   6.131  0.00  0.00    +0.105 C 
ENDROOT
BRANCH   3   7
ATOM      7  C   UNL     1       0.500   3.604   2.988  0.00  0.00    -0.012 A 
ATOM      8  C   UNL     1       1.713   3.290   3.572  0.00  0.00    +0.115 A 
ATOM      9  N   UNL     1       2.847   3.517   2.938  0.00  0.00    -0.263 NA
ATOM     10  C   UNL     1       2.871   4.050   1.732  0.00  0.00    +0.111 A 
ATOM     11  C   UNL     1       1.698   4.390   1.085  0.00  0.00    +0.020 A 
ATOM     12  C   UNL     1       0.487   4.161   1.718  0.00  0.00    +0.008 A 
ENDBRANCH   3   7
TORSDOF 1
ENDMDL
MODEL 3
REMARK VINA RESULT:    -4.077      1.338      2.054
REMARK INTER + INTRA:          -4.531
REMARK INTER:                  -4.278
REMARK INTRA:                  -0.253
REMARK UNBOUND:                -0.215
REMARK  Name = Nicotine.pdb
REMARK  2 active torsions:
REMARK  status: ('A' for Active; 'I' for Inactive)
REMARK    1  A    between atoms: C_3  and  C_6
REMARK    2  A    between atoms: N_4  and  C_12
REMARK                            x       y       z     vdW  Elec       q    Type
REMARK                         _______ _______ _______ _____ _____    ______ ____
ROOT
ATOM      1  C   UNL     1      -2.529   3.680   4.537  0.00  0.00    +0.017 C 
ATOM      2  C   UNL     1      -2.065   4.017   3.096  0.00  0.00    +0.025 C 
ATOM      3  C   UNL     1      -1.499   2.673   2.590  0.00  0.00    +0.088 C 
ATOM      4  N   UNL     1      -1.146   1.874   3.777  0.00  0.00    -0.298 NA
ATOM      5  C   UNL     1      -1.444   2.669   4.987  0.00  0.00    +0.085 C 
ATOM      6  C   UNL     1      -1.876   0.600   3.790  0.00  0.00    +0.105 C 
ENDROOT
BRANCH   3   7
ATOM      7  C   UNL     1      -0.271   2.918   1.751  0.00  0.00    -0.012 A 
ATOM      8  C   UNL     1       0.279   1.895   1.002  0.00  0.00    +0.115 A 
ATOM      9  N   UNL     1       1.353   2.101   0.265  0.00  0.00    -0.263 NA
ATOM     10  C   UNL     1       1.942   3.279   0.212  0.00  0.00    +0.111 A 
ATOM     11  C   UNL     1       1.449   4.350   0.934  0.00  0.00    +0.020 A 
ATOM     12  C   UNL     1       0.318   4.173   1.716  0.00  0.00    +0.008 A 
ENDBRANCH   3   7
TORSDOF 1
ENDMDL
MODEL 4
REMARK VINA RESULT:    -3.982      1.871      4.984
REMARK INTER + INTRA:          -4.430
REMARK INTER:                  -4.206
REMARK INTRA:                  -0.224
REMARK UNBOUND:                -0.215
REMARK  Name = Nicotine.pdb
REMARK  2 active torsions:
REMARK  status: ('A' for Active; 'I' for Inactive)
REMARK    1  A    between atoms: C_3  and  C_6
REMARK    2  A    between atoms: N_4  and  C_12
REMARK                            x       y       z     vdW  Elec       q    Type
REMARK                         _______ _______ _______ _____ _____    ______ ____
ROOT
ATOM      1  C   UNL     1       1.577   3.843   0.661  0.00  0.00    +0.017 C 
ATOM      2  C   UNL     1       0.640   4.573   1.659  0.00  0.00    +0.025 C 
ATOM      3  C   UNL     1       0.690   3.668   2.908  0.00  0.00    +0.088 C 
ATOM      4  N   UNL     1       1.106   2.327   2.459  0.00  0.00    -0.298 NA
ATOM      5  C   UNL     1       1.291   2.357   0.993  0.00  0.00    +0.085 C 
ATOM      6  C   UNL     1       2.339   1.904   3.137  0.00  0.00    +0.105 C 
ENDROOT
BRANCH   3   7
ATOM      7  C   UNL     1      -0.674   3.597   3.544  0.00  0.00    -0.012 A 
ATOM      8  C   UNL     1      -1.269   2.373   3.787  0.00  0.00    +0.115 A 
ATOM      9  N   UNL     1      -2.463   2.302   4.343  0.00  0.00    -0.263 NA
ATOM     10  C   UNL     1      -3.132   3.384   4.687  0.00  0.00    +0.111 A 
ATOM     11  C   UNL     1      -2.601   4.643   4.476  0.00  0.00    +0.020 A 
ATOM     12  C   UNL     1      -1.346   4.757   3.898  0.00  0.00    +0.008 A 
ENDBRANCH   3   7
TORSDOF 1
ENDMDL
MODEL 5
REMARK VINA RESULT:    -3.722      2.461      5.664
REMARK INTER + INTRA:          -4.155
REMARK INTER:                  -3.935
REMARK INTRA:                  -0.220
REMARK UNBOUND:                -0.215
REMARK  Name = Nicotine.pdb
REMARK  2 active torsions:
REMARK  status: ('A' for Active; 'I' for Inactive)
REMARK    1  A    between atoms: C_3  and  C_6
REMARK    2  A    between atoms: N_4  and  C_12
REMARK                            x       y       z     vdW  Elec       q    Type
REMARK                         _______ _______ _______ _____ _____    ______ ____
ROOT
ATOM      1  C   UNL     1      -0.733   3.885   1.750  0.00  0.00    +0.017 C 
ATOM      2  C   UNL     1      -1.326   3.854   3.183  0.00  0.00    +0.025 C 
ATOM      3  C   UNL     1      -1.189   2.369   3.583  0.00  0.00    +0.088 C 
ATOM      4  N   UNL     1      -1.095   1.588   2.337  0.00  0.00    -0.298 NA
ATOM      5  C   UNL     1      -1.193   2.516   1.190  0.00  0.00    +0.085 C 
ATOM      6  C   UNL     1       0.157   0.821   2.288  0.00  0.00    +0.105 C 
ENDROOT
BRANCH   3   7
ATOM      7  C   UNL     1      -2.398   1.936   4.371  0.00  0.00    -0.012 A 
ATOM      8  C   UNL     1      -2.661   0.594   4.567  0.00  0.00    +0.115 A 
ATOM      9  N   UNL     1      -3.717   0.206   5.256  0.00  0.00    -0.263 NA
ATOM     10  C   UNL     1      -4.558   1.075   5.781  0.00  0.00    +0.111 A 
ATOM     11  C   UNL     1      -4.360   2.434   5.626  0.00  0.00    +0.020 A 
ATOM     12  C   UNL     1      -3.258   2.879   4.913  0.00  0.00    +0.008 A 
ENDBRANCH   3   7
TORSDOF 1
ENDMDL
MODEL 6
REMARK VINA RESULT:    -3.666      2.745      4.338
REMARK INTER + INTRA:          -4.095
REMARK INTER:                  -3.880
REMARK INTRA:                  -0.215
REMARK UNBOUND:                -0.215
REMARK  Name = Nicotine.pdb
REMARK  2 active torsions:
REMARK  status: ('A' for Active; 'I' for Inactive)
REMARK    1  A    between atoms: C_3  and  C_6
REMARK    2  A    between atoms: N_4  and  C_12
REMARK                            x       y       z     vdW  Elec       q    Type
REMARK                         _______ _______ _______ _____ _____    ______ ____
ROOT
ATOM      1  C   UNL     1      -1.355   3.659   2.056  0.00  0.00    +0.017 C 
ATOM      2  C   UNL     1      -0.580   3.801   3.392  0.00  0.00    +0.025 C 
ATOM      3  C   UNL     1       0.893   3.647   2.957  0.00  0.00    +0.088 C 
ATOM      4  N   UNL     1       0.896   2.925   1.672  0.00  0.00    -0.298 NA
ATOM      5  C   UNL     1      -0.501   2.604   1.309  0.00  0.00    +0.085 C 
ATOM      6  C   UNL     1       1.545   3.721   0.622  0.00  0.00    +0.105 C 
ENDROOT
BRANCH   3   7
ATOM      7  C   UNL     1       1.653   2.859   3.992  0.00  0.00    -0.012 A 
ATOM      8  C   UNL     1       2.728   2.073   3.621  0.00  0.00    +0.115 A 
ATOM      9  N   UNL     1       3.399   1.381   4.520  0.00  0.00    -0.263 NA
ATOM     10  C   UNL     1       3.077   1.408   5.798  0.00  0.00    +0.111 A 
ATOM     11  C   UNL     1       2.014   2.172   6.244  0.00  0.00    +0.020 A 
ATOM     12  C   UNL     1       1.288   2.918   5.328  0.00  0.00    +0.008 A 
ENDBRANCH   3   7
TORSDOF 1
ENDMDL
MODEL 7
REMARK VINA RESULT:    -3.661      1.912      4.942
REMARK INTER + INTRA:          -4.090
REMARK INTER:                  -3.888
REMARK INTRA:                  -0.202
REMARK UNBOUND:                -0.215
REMARK  Name = Nicotine.pdb
REMARK  2 active torsions:
REMARK  status: ('A' for Active; 'I' for Inactive)
REMARK    1  A    between atoms: C_3  and  C_6
REMARK    2  A    between atoms: N_4  and  C_12
REMARK                            x       y       z     vdW  Elec       q    Type
REMARK                         _______ _______ _______ _____ _____    ______ ____
ROOT
ATOM      1  C   UNL     1       0.452   1.036   0.513  0.00  0.00    +0.017 C 
ATOM      2  C   UNL     1      -0.453   2.212   0.964  0.00  0.00    +0.025 C 
ATOM      3  C   UNL     1      -0.019   2.443   2.428  0.00  0.00    +0.088 C 
ATOM      4  N   UNL     1       0.599   1.192   2.902  0.00  0.00    -0.298 NA
ATOM      5  C   UNL     1       0.543   0.195   1.811  0.00  0.00    +0.085 C 
ATOM      6  C   UNL     1       1.983   1.419   3.338  0.00  0.00    +0.105 C 
ENDROOT
BRANCH   3   7
ATOM      7  C   UNL     1      -1.222   2.775   3.273  0.00  0.00    -0.012 A 
ATOM      8  C   UNL     1      -1.754   1.833   4.132  0.00  0.00    +0.115 A 
ATOM      9  N   UNL     1      -2.806   2.115   4.875  0.00  0.00    -0.263 NA
ATOM     10  C   UNL     1      -3.389   3.297   4.830  0.00  0.00    +0.111 A 
ATOM     11  C   UNL     1      -2.912   4.290   3.995  0.00  0.00    +0.020 A 
ATOM     12  C   UNL     1      -1.804   4.031   3.203  0.00  0.00    +0.008 A 
ENDBRANCH   3   7
TORSDOF 1
ENDMDL
MODEL 8
REMARK VINA RESULT:    -3.647      2.541      5.277
REMARK INTER + INTRA:          -4.075
REMARK INTER:                  -3.863
REMARK INTRA:                  -0.212
REMARK UNBOUND:                -0.215
REMARK  Name = Nicotine.pdb
REMARK  2 active torsions:
REMARK  status: ('A' for Active; 'I' for Inactive)
REMARK    1  A    between atoms: C_3  and  C_6
REMARK    2  A    between atoms: N_4  and  C_12
REMARK                            x       y       z     vdW  Elec       q    Type
REMARK                         _______ _______ _______ _____ _____    ______ ____
ROOT
ATOM      1  C   UNL     1       2.473   2.104   2.966  0.00  0.00    +0.017 C 
ATOM      2  C   UNL     1       1.020   1.898   3.470  0.00  0.00    +0.025 C 
ATOM      3  C   UNL     1       0.242   3.025   2.758  0.00  0.00    +0.088 C 
ATOM      4  N   UNL     1       1.219   4.067   2.394  0.00  0.00    -0.298 NA
ATOM      5  C   UNL     1       2.555   3.648   2.869  0.00  0.00    +0.085 C 
ATOM      6  C   UNL     1       1.225   4.300   0.944  0.00  0.00    +0.105 C 
ENDROOT
BRANCH   3   7
ATOM      7  C   UNL     1      -0.797   3.597   3.687  0.00  0.00    -0.012 A 
ATOM      8  C   UNL     1      -0.540   3.708   5.040  0.00  0.00    +0.115 A 
ATOM      9  N   UNL     1      -1.444   4.208   5.860  0.00  0.00    -0.263 NA
ATOM     10  C   UNL     1      -2.620   4.618   5.428  0.00  0.00    +0.111 A 
ATOM     11  C   UNL     1      -2.949   4.538   4.088  0.00  0.00    +0.020 A 
ATOM     12  C   UNL     1      -2.021   4.023   3.195  0.00  0.00    +0.008 A 
ENDBRANCH   3   7
TORSDOF 1
ENDMDL
MODEL 9
REMARK VINA RESULT:    -3.625      1.739      4.410
REMARK INTER + INTRA:          -4.052
REMARK INTER:                  -3.796
REMARK INTRA:                  -0.256
REMARK UNBOUND:                -0.215
REMARK  Name = Nicotine.pdb
REMARK  2 active torsions:
REMARK  status: ('A' for Active; 'I' for Inactive)
REMARK    1  A    between atoms: C_3  and  C_6
REMARK    2  A    between atoms: N_4  and  C_12
REMARK                            x       y       z     vdW  Elec       q    Type
REMARK                         _______ _______ _______ _____ _____    ______ ____
ROOT
ATOM      1  C   UNL     1       2.660   1.929  -0.665  0.00  0.00    +0.017 C 
ATOM      2  C   UNL     1       1.991   3.133   0.050  0.00  0.00    +0.025 C 
ATOM      3  C   UNL     1       2.024   2.716   1.536  0.00  0.00    +0.088 C 
ATOM      4  N   UNL     1       2.140   1.247   1.575  0.00  0.00    -0.298 NA
ATOM      5  C   UNL     1       2.154   0.738   0.187  0.00  0.00    +0.085 C 
ATOM      6  C   UNL     1       3.348   0.833   2.301  0.00  0.00    +0.105 C 
ENDROOT
BRANCH   3   7
ATOM      7  C   UNL     1       0.753   3.150   2.218  0.00  0.00    -0.012 A 
ATOM      8  C   UNL     1       0.729   3.358   3.585  0.00  0.00    +0.115 A 
ATOM      9  N   UNL     1      -0.380   3.738   4.190  0.00  0.00    -0.263 NA
ATOM     10  C   UNL     1      -1.501   3.933   3.524  0.00  0.00    +0.111 A 
ATOM     11  C   UNL     1      -1.553   3.745   2.155  0.00  0.00    +0.020 A 
ATOM     12  C   UNL     1      -0.406   3.351   1.484  0.00  0.00    +0.008 A 
ENDBRANCH   3   7
TORSDOF 1
ENDMDL
MODEL 10
REMARK VINA RESULT:    -3.585      1.870      4.574
REMARK INTER + INTRA:          -4.009
REMARK INTER:                  -3.791
REMARK INTRA:                  -0.219
REMARK UNBOUND:                -0.215
REMARK  Name = Nicotine.pdb
REMARK  2 active torsions:
REMARK  status: ('A' for Active; 'I' for Inactive)
REMARK    1  A    between atoms: C_3  and  C_6
REMARK    2  A    between atoms: N_4  and  C_12
REMARK                            x       y       z     vdW  Elec       q    Type
REMARK                         _______ _______ _______ _____ _____    ______ ____
ROOT
ATOM      1  C   UNL     1       0.586   4.453   1.358  0.00  0.00    +0.017 C 
ATOM      2  C   UNL     1      -0.429   3.988   2.435  0.00  0.00    +0.025 C 
ATOM      3  C   UNL     1       0.294   2.799   3.103  0.00  0.00    +0.088 C 
ATOM      4  N   UNL     1       1.292   2.298   2.140  0.00  0.00    -0.298 NA
ATOM      5  C   UNL     1       1.201   3.105   0.905  0.00  0.00    +0.085 C 
ATOM      6  C   UNL     1       2.645   2.354   2.707  0.00  0.00    +0.105 C 
ENDROOT
BRANCH   3   7
ATOM      7  C   UNL     1      -0.698   1.712   3.426  0.00  0.00    -0.012 A 
ATOM      8  C   UNL     1      -0.616   0.481   2.803  0.00  0.00    +0.115 A 
ATOM      9  N   UNL     1      -1.480  -0.475   3.080  0.00  0.00    -0.263 NA
ATOM     10  C   UNL     1      -2.450  -0.300   3.955  0.00  0.00    +0.111 A 
ATOM     11  C   UNL     1      -2.596   0.904   4.619  0.00  0.00    +0.020 A 
ATOM     12  C   UNL     1      -1.703   1.931   4.357  0.00  0.00    +0.008 A 
ENDBRANCH   3   7
TORSDOF 1
ENDMDL
