MODEL 1
REMARK VINA RESULT:    -3.990      0.000      0.000
REMARK INTER + INTRA:          -4.438
REMARK INTER:                  -4.224
REMARK INTRA:                  -0.214
REMARK UNBOUND:                -0.214
REMARK  Name = Nicotine.pdb
REMARK  2 active torsions:
REMARK  status: ('A' for Active; 'I' for Inactive)
REMARK    1  A    between atoms: C_3  and  C_6
REMARK    2  A    between atoms: N_4  and  C_12
REMARK                            x       y       z     vdW  Elec       q    Type
REMARK                         _______ _______ _______ _____ _____    ______ ____
ROOT
ATOM      1  C   UNL     1       8.042  -3.955   3.811  0.00  0.00    +0.017 C 
ATOM      2  C   UNL     1       8.321  -2.874   2.734  0.00  0.00    +0.025 C 
ATOM      3  C   UNL     1       8.886  -1.699   3.560  0.00  0.00    +0.088 C 
ATOM      4  N   UNL     1       8.423  -1.877   4.947  0.00  0.00    -0.298 NA
ATOM      5  C   UNL     1       7.579  -3.090   5.010  0.00  0.00    +0.085 C 
ATOM      6  C   UNL     1       9.558  -1.977   5.874  0.00  0.00    +0.105 C 
ENDROOT
BRANCH   3   7
ATOM      7  C   UNL     1       8.374  -0.393   3.011  0.00  0.00    -0.012 A 
ATOM      8  C   UNL     1       8.664  -0.018   1.712  0.00  0.00    +0.115 A 
ATOM      9  N   UNL     1       8.220   1.123   1.224  0.00  0.00    -0.263 NA
ATOM     10  C   UNL     1       7.487   1.948   1.946  0.00  0.00    +0.111 A 
ATOM     11  C   UNL     1       7.157   1.641   3.253  0.00  0.00    +0.020 A 
ATOM     12  C   UNL     1       7.602   0.447   3.799  0.00  0.00    +0.008 A 
ENDBRANCH   3   7
TORSDOF 1
ENDMDL
MODEL 2
REMARK VINA RESULT:    -3.973      1.489      1.987
REMARK INTER + INTRA:          -4.420
REMARK INTER:                  -4.213
REMARK INTRA:                  -0.207
REMARK UNBOUND:                -0.214
REMARK  Name = Nicotine.pdb
REMARK  2 active torsions:
REMARK  status: ('A' for Active; 'I' for Inactive)
REMARK    1  A    between atoms: C_3  and  C_6
REMARK    2  A    between atoms: N_4  and  C_12
REMARK                            x       y       z     vdW  Elec       q    Type
REMARK                         _______ _______ _______ _____ _____    ______ ____
ROOT
ATOM      1  C   UNL     1       8.674  -2.649   3.855  0.00  0.00    +0.017 C 
ATOM      2  C   UNL     1       8.429  -1.719   2.637  0.00  0.00    +0.025 C 
ATOM      3  C   UNL     1       8.845  -0.332   3.171  0.00  0.00    +0.088 C 
ATOM      4  N   UNL     1       8.755  -0.384   4.641  0.00  0.00    -0.298 NA
ATOM      5  C   UNL     1       8.280  -1.727   5.036  0.00  0.00    +0.085 C 
ATOM      6  C   UNL     1      10.052  -0.081   5.259  0.00  0.00    +0.105 C 
ENDROOT
BRANCH   3   7
ATOM      7  C   UNL     1       7.912   0.724   2.636  0.00  0.00    -0.012 A 
ATOM      8  C   UNL     1       6.991   1.329   3.469  0.00  0.00    +0.115 A 
ATOM      9  N   UNL     1       6.171   2.254   3.009  0.00  0.00    -0.263 NA
ATOM     10  C   UNL     1       6.195   2.636   1.748  0.00  0.00    +0.111 A 
ATOM     11  C   UNL     1       7.090   2.076   0.855  0.00  0.00    +0.020 A 
ATOM     12  C   UNL     1       7.971   1.104   1.304  0.00  0.00    +0.008 A 
ENDBRANCH   3   7
TORSDOF 1
ENDMDL
MODEL 3
REMARK VINA RESULT:    -3.874      1.074      4.692
REMARK INTER + INTRA:          -4.315
REMARK INTER:                  -4.102
REMARK INTRA:                  -0.212
REMARK UNBOUND:                -0.214
REMARK  Name = Nicotine.pdb
REMARK  2 active torsions:
REMARK  status: ('A' for Active; 'I' for Inactive)
REMARK    1  A    between atoms: C_3  and  C_6
REMARK    2  A    between atoms: N_4  and  C_12
REMARK                            x       y       z     vdW  Elec       q    Type
REMARK                         _______ _______ _______ _____ _____    ______ ____
ROOT
ATOM      1  C   UNL     1       6.544   2.453   2.511  0.00  0.00    +0.017 C 
ATOM      2  C   UNL     1       6.825   1.385   3.600  0.00  0.00    +0.025 C 
ATOM      3  C   UNL     1       8.191   0.806   3.173  0.00  0.00    +0.088 C 
ATOM      4  N   UNL     1       8.353   1.082   1.735  0.00  0.00    -0.298 NA
ATOM      5  C   UNL     1       7.143   1.780   1.250  0.00  0.00    +0.085 C 
ATOM      6  C   UNL     1       9.559   1.881   1.484  0.00  0.00    +0.105 C 
ENDROOT
BRANCH   3   7
ATOM      7  C   UNL     1       8.216  -0.681   3.417  0.00  0.00    -0.012 A 
ATOM      8  C   UNL     1       7.994  -1.185   4.685  0.00  0.00    +0.115 A 
ATOM      9  N   UNL     1       8.014  -2.485   4.907  0.00  0.00    -0.263 NA
ATOM     10  C   UNL     1       8.244  -3.350   3.939  0.00  0.00    +0.111 A 
ATOM     11  C   UNL     1       8.473  -2.920   2.646  0.00  0.00    +0.020 A 
ATOM     12  C   UNL     1       8.455  -1.561   2.373  0.00  0.00    +0.008 A 
ENDBRANCH   3   7
TORSDOF 1
ENDMDL
MODEL 4
REMARK VINA RESULT:    -3.778      1.718      4.489
REMARK INTER + INTRA:          -4.213
REMARK INTER:                  -3.997
REMARK INTRA:                  -0.216
REMARK UNBOUND:                -0.214
REMARK  Name = Nicotine.pdb
REMARK  2 active torsions:
REMARK  status: ('A' for Active; 'I' for Inactive)
REMARK    1  A    between atoms: C_3  and  C_6
REMARK    2  A    between atoms: N_4  and  C_12
REMARK                            x       y       z     vdW  Elec       q    Type
REMARK                         _______ _______ _______ _____ _____    ______ ____
ROOT
ATOM      1  C   UNL     1       7.147   1.916   3.199  0.00  0.00    +0.017 C 
ATOM      2  C   UNL     1       7.653   0.530   3.678  0.00  0.00    +0.025 C 
ATOM      3  C   UNL     1       8.686   0.146   2.598  0.00  0.00    +0.088 C 
ATOM      4  N   UNL     1       8.360   0.918   1.386  0.00  0.00    -0.298 NA
ATOM      5  C   UNL     1       7.161   1.739   1.660  0.00  0.00    +0.085 C 
ATOM      6  C   UNL     1       9.492   1.759   0.975  0.00  0.00    +0.105 C 
ENDROOT
BRANCH   3   7
ATOM      7  C   UNL     1       8.599  -1.330   2.306  0.00  0.00    -0.012 A 
ATOM      8  C   UNL     1       8.860  -1.808   1.035  0.00  0.00    +0.115 A 
ATOM      9  N   UNL     1       8.785  -3.098   0.771  0.00  0.00    -0.263 NA
ATOM     10  C   UNL     1       8.461  -3.977   1.698  0.00  0.00    +0.111 A 
ATOM     11  C   UNL     1       8.187  -3.574   2.992  0.00  0.00    +0.020 A 
ATOM     12  C   UNL     1       8.261  -2.226   3.308  0.00  0.00    +0.008 A 
ENDBRANCH   3   7
TORSDOF 1
ENDMDL
MODEL 5
REMARK VINA RESULT:    -3.774      1.808      4.263
REMARK INTER + INTRA:          -4.209
REMARK INTER:                  -3.969
REMARK INTRA:                  -0.240
REMARK UNBOUND:                -0.214
REMARK  Name = Nicotine.pdb
REMARK  2 active torsions:
REMARK  status: ('A' for Active; 'I' for Inactive)
REMARK    1  A    between atoms: C_3  and  C_6
REMARK    2  A    between atoms: N_4  and  C_12
REMARK                            x       y       z     vdW  Elec       q    Type
REMARK                         _______ _______ _______ _____ _____    ______ ____
ROOT
ATOM      1  C   UNL     1       8.876   1.355   3.709  0.00  0.00    +0.017 C 
ATOM      2  C   UNL     1       7.875   0.181   3.551  0.00  0.00    +0.025 C 
ATOM      3  C   UNL     1       8.547  -0.958   4.346  0.00  0.00    +0.088 C 
ATOM      4  N   UNL     1       9.986  -0.648   4.421  0.00  0.00    -0.298 NA
ATOM      5  C   UNL     1      10.235   0.612   3.690  0.00  0.00    +0.085 C 
ATOM      6  C   UNL     1      10.431  -0.544   5.817  0.00  0.00    +0.105 C 
ENDROOT
BRANCH   3   7
ATOM      7  C   UNL     1       8.340  -2.271   3.636  0.00  0.00    -0.012 A 
ATOM      8  C   UNL     1       7.939  -3.391   4.340  0.00  0.00    +0.115 A 
ATOM      9  N   UNL     1       7.755  -4.543   3.726  0.00  0.00    -0.263 NA
ATOM     10  C   UNL     1       7.946  -4.675   2.428  0.00  0.00    +0.111 A 
ATOM     11  C   UNL     1       8.347  -3.599   1.658  0.00  0.00    +0.020 A 
ATOM     12  C   UNL     1       8.545  -2.370   2.268  0.00  0.00    +0.008 A 
ENDBRANCH   3   7
TORSDOF 1
ENDMDL
MODEL 6
REMARK VINA RESULT:    -3.627      1.629      4.495
REMARK INTER + INTRA:          -4.053
REMARK INTER:                  -3.872
REMARK INTRA:                  -0.180
REMARK UNBOUND:                -0.214
REMARK  Name = Nicotine.pdb
REMARK  2 active torsions:
REMARK  status: ('A' for Active; 'I' for Inactive)
REMARK    1  A    between atoms: C_3  and  C_6
REMARK    2  A    between atoms: N_4  and  C_12
REMARK                            x       y       z     vdW  Elec       q    Type
REMARK                         _______ _______ _______ _____ _____    ______ ____
ROOT
ATOM      1  C   UNL     1       6.841   3.191   2.613  0.00  0.00    +0.017 C 
ATOM      2  C   UNL     1       6.685   1.756   3.181  0.00  0.00    +0.025 C 
ATOM      3  C   UNL     1       8.145   1.318   3.423  0.00  0.00    +0.088 C 
ATOM      4  N   UNL     1       9.000   2.147   2.554  0.00  0.00    -0.298 NA
ATOM      5  C   UNL     1       8.135   3.055   1.772  0.00  0.00    +0.085 C 
ATOM      6  C   UNL     1       9.980   2.903   3.345  0.00  0.00    +0.105 C 
ENDROOT
BRANCH   3   7
ATOM      7  C   UNL     1       8.310  -0.137   3.068  0.00  0.00    -0.012 A 
ATOM      8  C   UNL     1       8.719  -0.506   1.800  0.00  0.00    +0.115 A 
ATOM      9  N   UNL     1       8.865  -1.777   1.482  0.00  0.00    -0.263 NA
ATOM     10  C   UNL     1       8.629  -2.741   2.350  0.00  0.00    +0.111 A 
ATOM     11  C   UNL     1       8.217  -2.449   3.637  0.00  0.00    +0.020 A 
ATOM     12  C   UNL     1       8.058  -1.123   4.010  0.00  0.00    +0.008 A 
ENDBRANCH   3   7
TORSDOF 1
ENDMDL
MODEL 7
REMARK VINA RESULT:    -3.609      1.365      4.542
REMARK INTER + INTRA:          -4.034
REMARK INTER:                  -3.821
REMARK INTRA:                  -0.213
REMARK UNBOUND:                -0.214
REMARK  Name = Nicotine.pdb
REMARK  2 active torsions:
REMARK  status: ('A' for Active; 'I' for Inactive)
REMARK    1  A    between atoms: C_3  and  C_6
REMARK    2  A    between atoms: N_4  and  C_12
REMARK                            x       y       z     vdW  Elec       q    Type
REMARK                         _______ _______ _______ _____ _____    ______ ____
ROOT
ATOM      1  C   UNL     1      10.008   1.487   2.427  0.00  0.00    +0.017 C 
ATOM      2  C   UNL     1       9.744  -0.029   2.227  0.00  0.00    +0.025 C 
ATOM      3  C   UNL     1       8.331  -0.215   2.819  0.00  0.00    +0.088 C 
ATOM      4  N   UNL     1       8.097   0.901   3.753  0.00  0.00    -0.298 NA
ATOM      5  C   UNL     1       9.307   1.750   3.783  0.00  0.00    +0.085 C 
ATOM      6  C   UNL     1       6.916   1.679   3.359  0.00  0.00    +0.105 C 
ENDROOT
BRANCH   3   7
ATOM      7  C   UNL     1       8.253  -1.527   3.556  0.00  0.00    -0.012 A 
ATOM      8  C   UNL     1       8.116  -1.550   4.931  0.00  0.00    +0.115 A 
ATOM      9  N   UNL     1       8.047  -2.693   5.584  0.00  0.00    -0.263 NA
ATOM     10  C   UNL     1       8.106  -3.853   4.958  0.00  0.00    +0.111 A 
ATOM     11  C   UNL     1       8.241  -3.909   3.584  0.00  0.00    +0.020 A 
ATOM     12  C   UNL     1       8.311  -2.727   2.863  0.00  0.00    +0.008 A 
ENDBRANCH   3   7
TORSDOF 1
ENDMDL
MODEL 8
REMARK VINA RESULT:    -3.587      3.283      4.878
REMARK INTER + INTRA:          -4.011
REMARK INTER:                  -3.757
REMARK INTRA:                  -0.254
REMARK UNBOUND:                -0.214
REMARK  Name = Nicotine.pdb
REMARK  2 active torsions:
REMARK  status: ('A' for Active; 'I' for Inactive)
REMARK    1  A    between atoms: C_3  and  C_6
REMARK    2  A    between atoms: N_4  and  C_12
REMARK                            x       y       z     vdW  Elec       q    Type
REMARK                         _______ _______ _______ _____ _____    ______ ____
ROOT
ATOM      1  C   UNL     1       7.233   1.077   3.535  0.00  0.00    +0.017 C 
ATOM      2  C   UNL     1       8.199   0.786   2.356  0.00  0.00    +0.025 C 
ATOM      3  C   UNL     1       8.177   2.106   1.556  0.00  0.00    +0.088 C 
ATOM      4  N   UNL     1       6.926   2.805   1.900  0.00  0.00    -0.298 NA
ATOM      5  C   UNL     1       6.166   1.968   2.852  0.00  0.00    +0.085 C 
ATOM      6  C   UNL     1       7.202   4.131   2.467  0.00  0.00    +0.105 C 
ENDROOT
BRANCH   3   7
ATOM      7  C   UNL     1       8.212   1.810   0.079  0.00  0.00    -0.012 A 
ATOM      8  C   UNL     1       8.857   2.669  -0.791  0.00  0.00    +0.115 A 
ATOM      9  N   UNL     1       8.892   2.418  -2.085  0.00  0.00    -0.263 NA
ATOM     10  C   UNL     1       8.319   1.348  -2.599  0.00  0.00    +0.111 A 
ATOM     11  C   UNL     1       7.656   0.443  -1.791  0.00  0.00    +0.020 A 
ATOM     12  C   UNL     1       7.603   0.671  -0.425  0.00  0.00    +0.008 A 
ENDBRANCH   3   7
TORSDOF 1
ENDMDL
MODEL 9
REMARK VINA RESULT:    -3.526      3.351      5.650
REMARK INTER + INTRA:          -3.946
REMARK INTER:                  -3.725
REMARK INTRA:                  -0.221
REMARK UNBOUND:                -0.214
REMARK  Name = Nicotine.pdb
REMARK  2 active torsions:
REMARK  status: ('A' for Active; 'I' for Inactive)
REMARK    1  A    between atoms: C_3  and  C_6
REMARK    2  A    between atoms: N_4  and  C_12
REMARK                            x       y       z     vdW  Elec       q    Type
REMARK                         _______ _______ _______ _____ _____    ______ ____
ROOT
ATOM      1  C   UNL     1       8.093  -0.514  -2.145  0.00  0.00    +0.017 C 
ATOM      2  C   UNL     1       8.397  -0.607  -0.626  0.00  0.00    +0.025 C 
ATOM      3  C   UNL     1       9.186  -1.929  -0.511  0.00  0.00    +0.088 C 
ATOM      4  N   UNL     1       8.845  -2.746  -1.689  0.00  0.00    -0.298 NA
ATOM      5  C   UNL     1       7.865  -2.003  -2.510  0.00  0.00    +0.085 C 
ATOM      6  C   UNL     1      10.045  -3.074  -2.469  0.00  0.00    +0.105 C 
ENDROOT
BRANCH   3   7
ATOM      7  C   UNL     1       8.790  -2.654   0.750  0.00  0.00    -0.012 A 
ATOM      8  C   UNL     1       8.470  -3.998   0.712  0.00  0.00    +0.115 A 
ATOM      9  N   UNL     1       8.123  -4.639   1.811  0.00  0.00    -0.263 NA
ATOM     10  C   UNL     1       8.067  -4.032   2.979  0.00  0.00    +0.111 A 
ATOM     11  C   UNL     1       8.374  -2.689   3.095  0.00  0.00    +0.020 A 
ATOM     12  C   UNL     1       8.748  -1.983   1.962  0.00  0.00    +0.008 A 
ENDBRANCH   3   7
TORSDOF 1
ENDMDL
MODEL 10
REMARK VINA RESULT:    -3.522      1.833      5.103
REMARK INTER + INTRA:          -3.941
REMARK INTER:                  -3.745
REMARK INTRA:                  -0.197
REMARK UNBOUND:                -0.214
REMARK  Name = Nicotine.pdb
REMARK  2 active torsions:
REMARK  status: ('A' for Active; 'I' for Inactive)
REMARK    1  A    between atoms: C_3  and  C_6
REMARK    2  A    between atoms: N_4  and  C_12
REMARK                            x       y       z     vdW  Elec       q    Type
REMARK                         _______ _______ _______ _____ _____    ______ ____
ROOT
ATOM      1  C   UNL     1       8.046   1.487   0.019  0.00  0.00    +0.017 C 
ATOM      2  C   UNL     1       8.275   0.780   1.381  0.00  0.00    +0.025 C 
ATOM      3  C   UNL     1       9.142  -0.438   0.999  0.00  0.00    +0.088 C 
ATOM      4  N   UNL     1       8.918  -0.701  -0.434  0.00  0.00    -0.298 NA
ATOM      5  C   UNL     1       7.936   0.279  -0.945  0.00  0.00    +0.085 C 
ATOM      6  C   UNL     1      10.177  -0.628  -1.187  0.00  0.00    +0.105 C 
ENDROOT
BRANCH   3   7
ATOM      7  C   UNL     1       8.729  -1.637   1.812  0.00  0.00    -0.012 A 
ATOM      8  C   UNL     1       8.471  -1.509   3.164  0.00  0.00    +0.115 A 
ATOM      9  N   UNL     1       8.109  -2.554   3.883  0.00  0.00    -0.263 NA
ATOM     10  C   UNL     1       7.980  -3.752   3.349  0.00  0.00    +0.111 A 
ATOM     11  C   UNL     1       8.221  -3.957   2.003  0.00  0.00    +0.020 A 
ATOM     12  C   UNL     1       8.598  -2.881   1.214  0.00  0.00    +0.008 A 
ENDBRANCH   3   7
TORSDOF 1
ENDMDL
