MODEL 1
REMARK VINA RESULT:    14.942      0.000      0.000
REMARK INTER + INTRA:          15.601
REMARK INTER:                  15.815
REMARK INTRA:                  -0.214
REMARK UNBOUND:                -0.214
REMARK  Name = Nicotine.pdb
REMARK  2 active torsions:
REMARK  status: ('A' for Active; 'I' for Inactive)
REMARK    1  A    between atoms: C_3  and  C_6
REMARK    2  A    between atoms: N_4  and  C_12
REMARK                            x       y       z     vdW  Elec       q    Type
REMARK                         _______ _______ _______ _____ _____    ______ ____
ROOT
ATOM      1  C   UNL     1      -4.521  -5.702   3.975  0.00  0.00    +0.017 C 
ATOM      2  C   UNL     1      -4.938  -4.525   4.896  0.00  0.00    +0.025 C 
ATOM      3  C   UNL     1      -5.103  -3.352   3.906  0.00  0.00    +0.088 C 
ATOM      4  N   UNL     1      -4.310  -3.678   2.707  0.00  0.00    -0.298 NA
ATOM      5  C   UNL     1      -3.645  -4.980   2.921  0.00  0.00    +0.085 C 
ATOM      6  C   UNL     1      -5.157  -3.709   1.508  0.00  0.00    +0.105 C 
ENDROOT
BRANCH   3   7
ATOM      7  C   UNL     1      -4.593  -2.079   4.530  0.00  0.00    -0.012 A 
ATOM      8  C   UNL     1      -5.164  -1.592   5.691  0.00  0.00    +0.115 A 
ATOM      9  N   UNL     1      -4.723  -0.478   6.243  0.00  0.00    -0.263 NA
ATOM     10  C   UNL     1      -3.730   0.211   5.717  0.00  0.00    +0.111 A 
ATOM     11  C   UNL     1      -3.110  -0.215   4.557  0.00  0.00    +0.020 A 
ATOM     12  C   UNL     1      -3.542  -1.384   3.951  0.00  0.00    +0.008 A 
ENDBRANCH   3   7
TORSDOF 1
ENDMDL
