MODEL 1
REMARK VINA RESULT:    -2.278      0.000      0.000
REMARK INTER + INTRA:          -2.667
REMARK INTER:                  -2.412
REMARK INTRA:                  -0.256
REMARK UNBOUND:                -0.256
REMARK  Name = Nicotine.pdb
REMARK  2 active torsions:
REMARK  status: ('A' for Active; 'I' for Inactive)
REMARK    1  A    between atoms: C_3  and  C_6
REMARK    2  A    between atoms: N_4  and  C_12
REMARK                            x       y       z     vdW  Elec       q    Type
REMARK                         _______ _______ _______ _____ _____    ______ ____
ROOT
ATOM      1  C   UNL     1       9.099   0.438   3.681  0.00  0.00    +0.017 C 
ATOM      2  C   UNL     1       8.702  -1.059   3.585  0.00  0.00    +0.025 C 
ATOM      3  C   UNL     1       9.652  -1.735   4.597  0.00  0.00    +0.088 C 
ATOM      4  N   UNL     1      10.809  -0.840   4.777  0.00  0.00    -0.298 NA
ATOM      5  C   UNL     1      10.629   0.342   3.907  0.00  0.00    +0.085 C 
ATOM      6  C   UNL     1      10.954  -0.442   6.183  0.00  0.00    +0.105 C 
ENDROOT
BRANCH   3   7
ATOM      7  C   UNL     1      10.111  -3.066   4.058  0.00  0.00    -0.012 A 
ATOM      8  C   UNL     1      10.537  -4.059   4.920  0.00  0.00    +0.115 A 
ATOM      9  N   UNL     1      10.940  -5.226   4.457  0.00  0.00    -0.263 NA
ATOM     10  C   UNL     1      10.954  -5.492   3.165  0.00  0.00    +0.111 A 
ATOM     11  C   UNL     1      10.542  -4.548   2.244  0.00  0.00    +0.020 A 
ATOM     12  C   UNL     1      10.106  -3.311   2.694  0.00  0.00    +0.008 A 
ENDBRANCH   3   7
TORSDOF 1
ENDMDL
MODEL 2
REMARK VINA RESULT:    -2.019      7.461      8.599
REMARK INTER + INTRA:          -2.393
REMARK INTER:                  -2.157
REMARK INTRA:                  -0.236
REMARK UNBOUND:                -0.256
REMARK  Name = Nicotine.pdb
REMARK  2 active torsions:
REMARK  status: ('A' for Active; 'I' for Inactive)
REMARK    1  A    between atoms: C_3  and  C_6
REMARK    2  A    between atoms: N_4  and  C_12
REMARK                            x       y       z     vdW  Elec       q    Type
REMARK                         _______ _______ _______ _____ _____    ______ ____
ROOT
ATOM      1  C   UNL     1       9.899   0.262  -4.317  0.00  0.00    +0.017 C 
ATOM      2  C   UNL     1      10.580  -0.830  -3.451  0.00  0.00    +0.025 C 
ATOM      3  C   UNL     1      10.954  -1.911  -4.488  0.00  0.00    +0.088 C 
ATOM      4  N   UNL     1      10.072  -1.721  -5.654  0.00  0.00    -0.298 NA
ATOM      5  C   UNL     1       9.158  -0.593  -5.375  0.00  0.00    +0.085 C 
ATOM      6  C   UNL     1      10.855  -1.476  -6.872  0.00  0.00    +0.105 C 
ENDROOT
BRANCH   3   7
ATOM      7  C   UNL     1      10.740  -3.281  -3.900  0.00  0.00    -0.012 A 
ATOM      8  C   UNL     1      10.954  -4.412  -4.665  0.00  0.00    +0.115 A 
ATOM      9  N   UNL     1      10.769  -5.615  -4.158  0.00  0.00    -0.263 NA
ATOM     10  C   UNL     1      10.376  -5.789  -2.911  0.00  0.00    +0.111 A 
ATOM     11  C   UNL     1      10.142  -4.705  -2.085  0.00  0.00    +0.020 A 
ATOM     12  C   UNL     1      10.331  -3.425  -2.582  0.00  0.00    +0.008 A 
ENDBRANCH   3   7
TORSDOF 1
ENDMDL
MODEL 3
REMARK VINA RESULT:    -1.886      1.250      4.527
REMARK INTER + INTRA:          -2.253
REMARK INTER:                  -2.039
REMARK INTRA:                  -0.214
REMARK UNBOUND:                -0.256
REMARK  Name = Nicotine.pdb
REMARK  2 active torsions:
REMARK  status: ('A' for Active; 'I' for Inactive)
REMARK    1  A    between atoms: C_3  and  C_6
REMARK    2  A    between atoms: N_4  and  C_12
REMARK                            x       y       z     vdW  Elec       q    Type
REMARK                         _______ _______ _______ _____ _____    ______ ____
ROOT
ATOM      1  C   UNL     1      10.457  -4.685   2.170  0.00  0.00    +0.017 C 
ATOM      2  C   UNL     1      10.881  -3.221   2.464  0.00  0.00    +0.025 C 
ATOM      3  C   UNL     1      10.954  -3.184   4.005  0.00  0.00    +0.088 C 
ATOM      4  N   UNL     1      10.111  -4.283   4.510  0.00  0.00    -0.298 NA
ATOM      5  C   UNL     1       9.503  -4.978   3.355  0.00  0.00    +0.085 C 
ATOM      6  C   UNL     1      10.894  -5.214   5.332  0.00  0.00    +0.105 C 
ENDROOT
BRANCH   3   7
ATOM      7  C   UNL     1      10.434  -1.864   4.512  0.00  0.00    -0.012 A 
ATOM      8  C   UNL     1       9.451  -1.186   3.816  0.00  0.00    +0.115 A 
ATOM      9  N   UNL     1       8.991  -0.030   4.252  0.00  0.00    -0.263 NA
ATOM     10  C   UNL     1       9.445   0.524   5.359  0.00  0.00    +0.111 A 
ATOM     11  C   UNL     1      10.428  -0.095   6.108  0.00  0.00    +0.020 A 
ATOM     12  C   UNL     1      10.932  -1.315   5.684  0.00  0.00    +0.008 A 
ENDBRANCH   3   7
TORSDOF 1
ENDMDL
MODEL 4
REMARK VINA RESULT:    -1.752      6.836      8.758
REMARK INTER + INTRA:          -2.110
REMARK INTER:                  -1.917
REMARK INTRA:                  -0.193
REMARK UNBOUND:                -0.256
REMARK  Name = Nicotine.pdb
REMARK  2 active torsions:
REMARK  status: ('A' for Active; 'I' for Inactive)
REMARK    1  A    between atoms: C_3  and  C_6
REMARK    2  A    between atoms: N_4  and  C_12
REMARK                            x       y       z     vdW  Elec       q    Type
REMARK                         _______ _______ _______ _____ _____    ______ ____
ROOT
ATOM      1  C   UNL     1      10.134  -6.096  -3.411  0.00  0.00    +0.017 C 
ATOM      2  C   UNL     1      10.679  -4.950  -4.305  0.00  0.00    +0.025 C 
ATOM      3  C   UNL     1      10.954  -3.820  -3.290  0.00  0.00    +0.088 C 
ATOM      4  N   UNL     1      10.119  -4.085  -2.104  0.00  0.00    -0.298 NA
ATOM      5  C   UNL     1       9.326  -5.308  -2.350  0.00  0.00    +0.085 C 
ATOM      6  C   UNL     1      10.946  -4.226  -0.899  0.00  0.00    +0.105 C 
ENDROOT
BRANCH   3   7
ATOM      7  C   UNL     1      10.584  -2.489  -3.892  0.00  0.00    -0.012 A 
ATOM      8  C   UNL     1      10.242  -2.397  -5.228  0.00  0.00    +0.115 A 
ATOM      9  N   UNL     1       9.917  -1.236  -5.763  0.00  0.00    -0.263 NA
ATOM     10  C   UNL     1       9.904  -0.126  -5.053  0.00  0.00    +0.111 A 
ATOM     11  C   UNL     1      10.234  -0.140  -3.711  0.00  0.00    +0.020 A 
ATOM     12  C   UNL     1      10.576  -1.343  -3.112  0.00  0.00    +0.008 A 
ENDBRANCH   3   7
TORSDOF 1
ENDMDL
MODEL 5
REMARK VINA RESULT:    -1.110      8.043      8.812
REMARK INTER + INTRA:          -1.431
REMARK INTER:                  -1.216
REMARK INTRA:                  -0.215
REMARK UNBOUND:                -0.256
REMARK  Name = Nicotine.pdb
REMARK  2 active torsions:
REMARK  status: ('A' for Active; 'I' for Inactive)
REMARK    1  A    between atoms: C_3  and  C_6
REMARK    2  A    between atoms: N_4  and  C_12
REMARK                            x       y       z     vdW  Elec       q    Type
REMARK                         _______ _______ _______ _____ _____    ______ ____
ROOT
ATOM      1  C   UNL     1      10.728   1.954  -5.548  0.00  0.00    +0.017 C 
ATOM      2  C   UNL     1      10.480   0.518  -6.079  0.00  0.00    +0.025 C 
ATOM      3  C   UNL     1       9.705  -0.150  -4.923  0.00  0.00    +0.088 C 
ATOM      4  N   UNL     1      10.010   0.609  -3.697  0.00  0.00    -0.298 NA
ATOM      5  C   UNL     1      10.953   1.695  -4.037  0.00  0.00    +0.085 C 
ATOM      6  C   UNL     1       8.784   1.147  -3.091  0.00  0.00    +0.105 C 
ENDROOT
BRANCH   3   7
ATOM      7  C   UNL     1      10.151  -1.580  -4.766  0.00  0.00    -0.012 A 
ATOM      8  C   UNL     1      10.221  -2.157  -3.511  0.00  0.00    +0.115 A 
ATOM      9  N   UNL     1      10.611  -3.409  -3.365  0.00  0.00    -0.263 NA
ATOM     10  C   UNL     1      10.946  -4.155  -4.398  0.00  0.00    +0.111 A 
ATOM     11  C   UNL     1      10.901  -3.647  -5.683  0.00  0.00    +0.020 A 
ATOM     12  C   UNL     1      10.491  -2.337  -5.877  0.00  0.00    +0.008 A 
ENDBRANCH   3   7
TORSDOF 1
ENDMDL
MODEL 6
REMARK VINA RESULT:    -0.009      8.184      9.039
REMARK INTER + INTRA:          -0.265
REMARK INTER:                  -0.043
REMARK INTRA:                  -0.222
REMARK UNBOUND:                -0.256
REMARK  Name = Nicotine.pdb
REMARK  2 active torsions:
REMARK  status: ('A' for Active; 'I' for Inactive)
REMARK    1  A    between atoms: C_3  and  C_6
REMARK    2  A    between atoms: N_4  and  C_12
REMARK                            x       y       z     vdW  Elec       q    Type
REMARK                         _______ _______ _______ _____ _____    ______ ____
ROOT
ATOM      1  C   UNL     1       9.696   1.545  -2.735  0.00  0.00    +0.017 C 
ATOM      2  C   UNL     1      10.578   0.270  -2.769  0.00  0.00    +0.025 C 
ATOM      3  C   UNL     1      10.953   0.147  -4.261  0.00  0.00    +0.088 C 
ATOM      4  N   UNL     1       9.938   0.890  -5.029  0.00  0.00    -0.298 NA
ATOM      5  C   UNL     1       8.944   1.442  -4.085  0.00  0.00    +0.085 C 
ATOM      6  C   UNL     1      10.557   1.957  -5.827  0.00  0.00    +0.105 C 
ENDROOT
BRANCH   3   7
ATOM      7  C   UNL     1      10.950  -1.303  -4.673  0.00  0.00    -0.012 A 
ATOM      8  C   UNL     1      10.953  -1.649  -6.011  0.00  0.00    +0.115 A 
ATOM      9  N   UNL     1      10.951  -2.915  -6.380  0.00  0.00    -0.263 NA
ATOM     10  C   UNL     1      10.945  -3.894  -5.497  0.00  0.00    +0.111 A 
ATOM     11  C   UNL     1      10.942  -3.625  -4.141  0.00  0.00    +0.020 A 
ATOM     12  C   UNL     1      10.950  -2.305  -3.716  0.00  0.00    +0.008 A 
ENDBRANCH   3   7
TORSDOF 1
ENDMDL
MODEL 7
REMARK VINA RESULT:     0.106      6.922      8.830
REMARK INTER + INTRA:          -0.143
REMARK INTER:                   0.071
REMARK INTRA:                  -0.214
REMARK UNBOUND:                -0.256
REMARK  Name = Nicotine.pdb
REMARK  2 active torsions:
REMARK  status: ('A' for Active; 'I' for Inactive)
REMARK    1  A    between atoms: C_3  and  C_6
REMARK    2  A    between atoms: N_4  and  C_12
REMARK                            x       y       z     vdW  Elec       q    Type
REMARK                         _______ _______ _______ _____ _____    ______ ____
ROOT
ATOM      1  C   UNL     1       9.476  -5.233  -1.876  0.00  0.00    +0.017 C 
ATOM      2  C   UNL     1       8.989  -3.879  -2.456  0.00  0.00    +0.025 C 
ATOM      3  C   UNL     1       9.751  -3.780  -3.794  0.00  0.00    +0.088 C 
ATOM      4  N   UNL     1      10.937  -4.650  -3.687  0.00  0.00    -0.298 NA
ATOM      5  C   UNL     1      10.954  -5.258  -2.339  0.00  0.00    +0.085 C 
ATOM      6  C   UNL     1      10.929  -5.683  -4.731  0.00  0.00    +0.105 C 
ENDROOT
BRANCH   3   7
ATOM      7  C   UNL     1      10.179  -2.356  -4.037  0.00  0.00    -0.012 A 
ATOM      8  C   UNL     1      10.417  -1.507  -2.974  0.00  0.00    +0.115 A 
ATOM      9  N   UNL     1      10.792  -0.259  -3.178  0.00  0.00    -0.263 NA
ATOM     10  C   UNL     1      10.953   0.227  -4.393  0.00  0.00    +0.111 A 
ATOM     11  C   UNL     1      10.734  -0.564  -5.505  0.00  0.00    +0.020 A 
ATOM     12  C   UNL     1      10.344  -1.883  -5.330  0.00  0.00    +0.008 A 
ENDBRANCH   3   7
TORSDOF 1
ENDMDL
MODEL 8
REMARK VINA RESULT:     0.631      1.192      4.460
REMARK INTER + INTRA:           0.412
REMARK INTER:                   0.627
REMARK INTRA:                  -0.215
REMARK UNBOUND:                -0.256
REMARK  Name = Nicotine.pdb
REMARK  2 active torsions:
REMARK  status: ('A' for Active; 'I' for Inactive)
REMARK    1  A    between atoms: C_3  and  C_6
REMARK    2  A    between atoms: N_4  and  C_12
REMARK                            x       y       z     vdW  Elec       q    Type
REMARK                         _______ _______ _______ _____ _____    ______ ____
ROOT
ATOM      1  C   UNL     1       9.893  -5.761   4.185  0.00  0.00    +0.017 C 
ATOM      2  C   UNL     1       9.342  -4.480   4.866  0.00  0.00    +0.025 C 
ATOM      3  C   UNL     1       9.375  -3.440   3.726  0.00  0.00    +0.088 C 
ATOM      4  N   UNL     1      10.360  -3.908   2.735  0.00  0.00    -0.298 NA
ATOM      5  C   UNL     1      10.953  -5.172   3.221  0.00  0.00    +0.085 C 
ATOM      6  C   UNL     1       9.737  -4.092   1.417  0.00  0.00    +0.105 C 
ENDROOT
BRANCH   3   7
ATOM      7  C   UNL     1       9.790  -2.097   4.268  0.00  0.00    -0.012 A 
ATOM      8  C   UNL     1      10.585  -2.014   5.396  0.00  0.00    +0.115 A 
ATOM      9  N   UNL     1      10.954  -0.843   5.877  0.00  0.00    -0.263 NA
ATOM     10  C   UNL     1      10.583   0.287   5.310  0.00  0.00    +0.111 A 
ATOM     11  C   UNL     1       9.788   0.284   4.178  0.00  0.00    +0.020 A 
ATOM     12  C   UNL     1       9.385  -0.929   3.640  0.00  0.00    +0.008 A 
ENDBRANCH   3   7
TORSDOF 1
ENDMDL
