MODEL 1
REMARK VINA RESULT:     0.419      0.000      0.000
REMARK INTER + INTRA:           0.221
REMARK INTER:                   0.444
REMARK INTRA:                  -0.223
REMARK UNBOUND:                -0.223
REMARK  Name = Nicotine.pdb
REMARK  2 active torsions:
REMARK  status: ('A' for Active; 'I' for Inactive)
REMARK    1  A    between atoms: C_3  and  C_6
REMARK    2  A    between atoms: N_4  and  C_12
REMARK                            x       y       z     vdW  Elec       q    Type
REMARK                         _______ _______ _______ _____ _____    ______ ____
ROOT
ATOM      1  C   UNL     1      -2.013  -2.716  -7.251  0.00  0.00    +0.017 C 
ATOM      2  C   UNL     1      -1.947  -3.259  -5.800  0.00  0.00    +0.025 C 
ATOM      3  C   UNL     1      -3.415  -3.630  -5.500  0.00  0.00    +0.088 C 
ATOM      4  N   UNL     1      -4.259  -2.847  -6.421  0.00  0.00    -0.298 NA
ATOM      5  C   UNL     1      -3.384  -1.995  -7.253  0.00  0.00    +0.085 C 
ATOM      6  C   UNL     1      -5.086  -3.728  -7.256  0.00  0.00    +0.105 C 
ENDROOT
BRANCH   3   7
ATOM      7  C   UNL     1      -3.751  -3.283  -4.073  0.00  0.00    -0.012 A 
ATOM      8  C   UNL     1      -4.838  -2.479  -3.787  0.00  0.00    +0.115 A 
ATOM      9  N   UNL     1      -5.139  -2.170  -2.540  0.00  0.00    -0.263 NA
ATOM     10  C   UNL     1      -4.423  -2.611  -1.525  0.00  0.00    +0.111 A 
ATOM     11  C   UNL     1      -3.321  -3.420  -1.734  0.00  0.00    +0.020 A 
ATOM     12  C   UNL     1      -2.977  -3.769  -3.031  0.00  0.00    +0.008 A 
ENDBRANCH   3   7
TORSDOF 1
ENDMDL
MODEL 2
REMARK VINA RESULT:     0.526      1.837      3.991
REMARK INTER + INTRA:           0.334
REMARK INTER:                   0.549
REMARK INTRA:                  -0.215
REMARK UNBOUND:                -0.223
REMARK  Name = Nicotine.pdb
REMARK  2 active torsions:
REMARK  status: ('A' for Active; 'I' for Inactive)
REMARK    1  A    between atoms: C_3  and  C_6
REMARK    2  A    between atoms: N_4  and  C_12
REMARK                            x       y       z     vdW  Elec       q    Type
REMARK                         _______ _______ _______ _____ _____    ______ ____
ROOT
ATOM      1  C   UNL     1      -5.171  -4.009  -4.076  0.00  0.00    +0.017 C 
ATOM      2  C   UNL     1      -3.847  -3.219  -3.904  0.00  0.00    +0.025 C 
ATOM      3  C   UNL     1      -3.530  -2.757  -5.343  0.00  0.00    +0.088 C 
ATOM      4  N   UNL     1      -4.241  -3.665  -6.260  0.00  0.00    -0.298 NA
ATOM      5  C   UNL     1      -4.960  -4.678  -5.457  0.00  0.00    +0.085 C 
ATOM      6  C   UNL     1      -5.168  -2.923  -7.123  0.00  0.00    +0.105 C 
ENDROOT
BRANCH   3   7
ATOM      7  C   UNL     1      -2.046  -2.836  -5.591  0.00  0.00    -0.012 A 
ATOM      8  C   UNL     1      -1.560  -3.030  -6.870  0.00  0.00    +0.115 A 
ATOM      9  N   UNL     1      -0.262  -3.099  -7.095  0.00  0.00    -0.263 NA
ATOM     10  C   UNL     1       0.618  -2.988  -6.120  0.00  0.00    +0.111 A 
ATOM     11  C   UNL     1       0.206  -2.792  -4.815  0.00  0.00    +0.020 A 
ATOM     12  C   UNL     1      -1.150  -2.708  -4.540  0.00  0.00    +0.008 A 
ENDBRANCH   3   7
TORSDOF 1
ENDMDL
MODEL 3
REMARK VINA RESULT:     0.930      1.776      4.471
REMARK INTER + INTRA:           0.761
REMARK INTER:                   0.974
REMARK INTRA:                  -0.212
REMARK UNBOUND:                -0.223
REMARK  Name = Nicotine.pdb
REMARK  2 active torsions:
REMARK  status: ('A' for Active; 'I' for Inactive)
REMARK    1  A    between atoms: C_3  and  C_6
REMARK    2  A    between atoms: N_4  and  C_12
REMARK                            x       y       z     vdW  Elec       q    Type
REMARK                         _______ _______ _______ _____ _____    ______ ____
ROOT
ATOM      1  C   UNL     1      -4.031  -4.546  -2.270  0.00  0.00    +0.017 C 
ATOM      2  C   UNL     1      -2.631  -4.103  -2.772  0.00  0.00    +0.025 C 
ATOM      3  C   UNL     1      -2.960  -2.951  -3.744  0.00  0.00    +0.088 C 
ATOM      4  N   UNL     1      -4.357  -3.130  -4.178  0.00  0.00    -0.298 NA
ATOM      5  C   UNL     1      -4.895  -4.350  -3.540  0.00  0.00    +0.085 C 
ATOM      6  C   UNL     1      -5.169  -1.955  -3.837  0.00  0.00    +0.105 C 
ENDROOT
BRANCH   3   7
ATOM      7  C   UNL     1      -2.040  -3.007  -4.936  0.00  0.00    -0.012 A 
ATOM      8  C   UNL     1      -0.695  -2.724  -4.796  0.00  0.00    +0.115 A 
ATOM      9  N   UNL     1       0.117  -2.772  -5.834  0.00  0.00    -0.263 NA
ATOM     10  C   UNL     1      -0.316  -3.088  -7.038  0.00  0.00    +0.111 A 
ATOM     11  C   UNL     1      -1.649  -3.384  -7.256  0.00  0.00    +0.020 A 
ATOM     12  C   UNL     1      -2.531  -3.350  -6.187  0.00  0.00    +0.008 A 
ENDBRANCH   3   7
TORSDOF 1
ENDMDL
MODEL 4
REMARK VINA RESULT:     1.080      1.560      4.401
REMARK INTER + INTRA:           0.920
REMARK INTER:                   1.121
REMARK INTRA:                  -0.201
REMARK UNBOUND:                -0.223
REMARK  Name = Nicotine.pdb
REMARK  2 active torsions:
REMARK  status: ('A' for Active; 'I' for Inactive)
REMARK    1  A    between atoms: C_3  and  C_6
REMARK    2  A    between atoms: N_4  and  C_12
REMARK                            x       y       z     vdW  Elec       q    Type
REMARK                         _______ _______ _______ _____ _____    ______ ____
ROOT
ATOM      1  C   UNL     1      -5.166  -2.130  -2.483  0.00  0.00    +0.017 C 
ATOM      2  C   UNL     1      -4.743  -2.035  -3.973  0.00  0.00    +0.025 C 
ATOM      3  C   UNL     1      -4.149  -3.432  -4.255  0.00  0.00    +0.088 C 
ATOM      4  N   UNL     1      -3.749  -4.006  -2.958  0.00  0.00    -0.298 NA
ATOM      5  C   UNL     1      -4.044  -3.021  -1.895  0.00  0.00    +0.085 C 
ATOM      6  C   UNL     1      -4.443  -5.276  -2.707  0.00  0.00    +0.105 C 
ENDROOT
BRANCH   3   7
ATOM      7  C   UNL     1      -2.947  -3.306  -5.154  0.00  0.00    -0.012 A 
ATOM      8  C   UNL     1      -3.001  -3.756  -6.460  0.00  0.00    +0.115 A 
ATOM      9  N   UNL     1      -1.953  -3.649  -7.254  0.00  0.00    -0.263 NA
ATOM     10  C   UNL     1      -0.821  -3.114  -6.840  0.00  0.00    +0.111 A 
ATOM     11  C   UNL     1      -0.693  -2.642  -5.547  0.00  0.00    +0.020 A 
ATOM     12  C   UNL     1      -1.775  -2.732  -4.685  0.00  0.00    +0.008 A 
ENDBRANCH   3   7
TORSDOF 1
ENDMDL
MODEL 5
REMARK VINA RESULT:     1.433      1.833      2.693
REMARK INTER + INTRA:           1.294
REMARK INTER:                   1.510
REMARK INTRA:                  -0.216
REMARK UNBOUND:                -0.223
REMARK  Name = Nicotine.pdb
REMARK  2 active torsions:
REMARK  status: ('A' for Active; 'I' for Inactive)
REMARK    1  A    between atoms: C_3  and  C_6
REMARK    2  A    between atoms: N_4  and  C_12
REMARK                            x       y       z     vdW  Elec       q    Type
REMARK                         _______ _______ _______ _____ _____    ______ ____
ROOT
ATOM      1  C   UNL     1      -5.171  -4.206  -6.610  0.00  0.00    +0.017 C 
ATOM      2  C   UNL     1      -4.869  -3.920  -5.115  0.00  0.00    +0.025 C 
ATOM      3  C   UNL     1      -3.785  -2.823  -5.183  0.00  0.00    +0.088 C 
ATOM      4  N   UNL     1      -3.149  -2.920  -6.509  0.00  0.00    -0.298 NA
ATOM      5  C   UNL     1      -3.770  -4.039  -7.249  0.00  0.00    +0.085 C 
ATOM      6  C   UNL     1      -3.281  -1.659  -7.250  0.00  0.00    +0.105 C 
ENDROOT
BRANCH   3   7
ATOM      7  C   UNL     1      -2.760  -3.048  -4.102  0.00  0.00    -0.012 A 
ATOM      8  C   UNL     1      -1.433  -2.728  -4.321  0.00  0.00    +0.115 A 
ATOM      9  N   UNL     1      -0.529  -2.921  -3.380  0.00  0.00    -0.263 NA
ATOM     10  C   UNL     1      -0.849  -3.423  -2.204  0.00  0.00    +0.111 A 
ATOM     11  C   UNL     1      -2.156  -3.767  -1.913  0.00  0.00    +0.020 A 
ATOM     12  C   UNL     1      -3.135  -3.573  -2.875  0.00  0.00    +0.008 A 
ENDBRANCH   3   7
TORSDOF 1
ENDMDL
MODEL 6
REMARK VINA RESULT:     2.356      1.363      4.610
REMARK INTER + INTRA:           2.271
REMARK INTER:                   2.488
REMARK INTRA:                  -0.217
REMARK UNBOUND:                -0.223
REMARK  Name = Nicotine.pdb
REMARK  2 active torsions:
REMARK  status: ('A' for Active; 'I' for Inactive)
REMARK    1  A    between atoms: C_3  and  C_6
REMARK    2  A    between atoms: N_4  and  C_12
REMARK                            x       y       z     vdW  Elec       q    Type
REMARK                         _______ _______ _______ _____ _____    ______ ____
ROOT
ATOM      1  C   UNL     1      -4.926  -2.287  -1.615  0.00  0.00    +0.017 C 
ATOM      2  C   UNL     1      -5.103  -1.990  -3.127  0.00  0.00    +0.025 C 
ATOM      3  C   UNL     1      -4.536  -3.258  -3.799  0.00  0.00    +0.088 C 
ATOM      4  N   UNL     1      -3.628  -3.897  -2.830  0.00  0.00    -0.298 NA
ATOM      5  C   UNL     1      -3.590  -3.070  -1.604  0.00  0.00    +0.085 C 
ATOM      6  C   UNL     1      -4.060  -5.268  -2.528  0.00  0.00    +0.105 C 
ENDROOT
BRANCH   3   7
ATOM      7  C   UNL     1      -3.776  -2.882  -5.045  0.00  0.00    -0.012 A 
ATOM      8  C   UNL     1      -2.411  -3.083  -5.118  0.00  0.00    +0.115 A 
ATOM      9  N   UNL     1      -1.738  -2.757  -6.205  0.00  0.00    -0.263 NA
ATOM     10  C   UNL     1      -2.334  -2.230  -7.256  0.00  0.00    +0.111 A 
ATOM     11  C   UNL     1      -3.697  -1.999  -7.256  0.00  0.00    +0.020 A 
ATOM     12  C   UNL     1      -4.438  -2.334  -6.133  0.00  0.00    +0.008 A 
ENDBRANCH   3   7
TORSDOF 1
ENDMDL
MODEL 7
REMARK VINA RESULT:     2.747      1.493      4.242
REMARK INTER + INTRA:           2.684
REMARK INTER:                   2.901
REMARK INTRA:                  -0.216
REMARK UNBOUND:                -0.223
REMARK  Name = Nicotine.pdb
REMARK  2 active torsions:
REMARK  status: ('A' for Active; 'I' for Inactive)
REMARK    1  A    between atoms: C_3  and  C_6
REMARK    2  A    between atoms: N_4  and  C_12
REMARK                            x       y       z     vdW  Elec       q    Type
REMARK                         _______ _______ _______ _____ _____    ______ ____
ROOT
ATOM      1  C   UNL     1      -0.863  -3.335  -2.744  0.00  0.00    +0.017 C 
ATOM      2  C   UNL     1      -1.452  -2.739  -4.050  0.00  0.00    +0.025 C 
ATOM      3  C   UNL     1      -2.970  -2.727  -3.771  0.00  0.00    +0.088 C 
ATOM      4  N   UNL     1      -3.229  -3.726  -2.719  0.00  0.00    -0.298 NA
ATOM      5  C   UNL     1      -1.949  -4.369  -2.354  0.00  0.00    +0.085 C 
ATOM      6  C   UNL     1      -3.860  -3.105  -1.547  0.00  0.00    +0.105 C 
ENDROOT
BRANCH   3   7
ATOM      7  C   UNL     1      -3.724  -3.093  -5.024  0.00  0.00    -0.012 A 
ATOM      8  C   UNL     1      -4.439  -4.274  -5.089  0.00  0.00    +0.115 A 
ATOM      9  N   UNL     1      -5.102  -4.602  -6.181  0.00  0.00    -0.263 NA
ATOM     10  C   UNL     1      -5.109  -3.825  -7.247  0.00  0.00    +0.111 A 
ATOM     11  C   UNL     1      -4.417  -2.629  -7.255  0.00  0.00    +0.020 A 
ATOM     12  C   UNL     1      -3.714  -2.248  -6.123  0.00  0.00    +0.008 A 
ENDBRANCH   3   7
TORSDOF 1
ENDMDL
