MODEL 1
REMARK VINA RESULT:    -3.358      0.000      0.000
REMARK INTER + INTRA:          -3.810
REMARK INTER:                  -3.555
REMARK INTRA:                  -0.255
REMARK UNBOUND:                -0.255
REMARK  Name = Nicotine.pdb
REMARK  2 active torsions:
REMARK  status: ('A' for Active; 'I' for Inactive)
REMARK    1  A    between atoms: C_3  and  C_6
REMARK    2  A    between atoms: N_4  and  C_12
REMARK                            x       y       z     vdW  Elec       q    Type
REMARK                         _______ _______ _______ _____ _____    ______ ____
ROOT
ATOM      1  C   UNL     1      -0.838   4.143  -6.915  0.00  0.00    +0.017 C 
ATOM      2  C   UNL     1       0.035   2.936  -6.481  0.00  0.00    +0.025 C 
ATOM      3  C   UNL     1      -0.976   2.016  -5.764  0.00  0.00    +0.088 C 
ATOM      4  N   UNL     1      -2.105   2.860  -5.333  0.00  0.00    -0.298 NA
ATOM      5  C   UNL     1      -1.826   4.257  -5.727  0.00  0.00    +0.085 C 
ATOM      6  C   UNL     1      -3.368   2.389  -5.917  0.00  0.00    +0.105 C 
ENDROOT
BRANCH   3   7
ATOM      7  C   UNL     1      -0.326   1.376  -4.566  0.00  0.00    -0.012 A 
ATOM      8  C   UNL     1      -0.755   0.142  -4.113  0.00  0.00    +0.115 A 
ATOM      9  N   UNL     1      -0.191  -0.425  -3.064  0.00  0.00    -0.263 NA
ATOM     10  C   UNL     1       0.796   0.154  -2.410  0.00  0.00    +0.111 A 
ATOM     11  C   UNL     1       1.279   1.388  -2.805  0.00  0.00    +0.020 A 
ATOM     12  C   UNL     1       0.714   2.013  -3.906  0.00  0.00    +0.008 A 
ENDBRANCH   3   7
TORSDOF 1
ENDMDL
MODEL 2
REMARK VINA RESULT:    -3.106      3.941      6.166
REMARK INTER + INTRA:          -3.543
REMARK INTER:                  -3.296
REMARK INTRA:                  -0.247
REMARK UNBOUND:                -0.255
REMARK  Name = Nicotine.pdb
REMARK  2 active torsions:
REMARK  status: ('A' for Active; 'I' for Inactive)
REMARK    1  A    between atoms: C_3  and  C_6
REMARK    2  A    between atoms: N_4  and  C_12
REMARK                            x       y       z     vdW  Elec       q    Type
REMARK                         _______ _______ _______ _____ _____    ______ ____
ROOT
ATOM      1  C   UNL     1      -2.047  -5.293  -3.297  0.00  0.00    +0.017 C 
ATOM      2  C   UNL     1      -1.592  -3.923  -2.730  0.00  0.00    +0.025 C 
ATOM      3  C   UNL     1      -2.862  -3.055  -2.860  0.00  0.00    +0.088 C 
ATOM      4  N   UNL     1      -3.708  -3.671  -3.898  0.00  0.00    -0.298 NA
ATOM      5  C   UNL     1      -3.009  -4.860  -4.431  0.00  0.00    +0.085 C 
ATOM      6  C   UNL     1      -5.025  -4.032  -3.360  0.00  0.00    +0.105 C 
ENDROOT
BRANCH   3   7
ATOM      7  C   UNL     1      -2.486  -1.654  -3.268  0.00  0.00    -0.012 A 
ATOM      8  C   UNL     1      -3.448  -0.663  -3.333  0.00  0.00    +0.115 A 
ATOM      9  N   UNL     1      -3.127   0.566  -3.688  0.00  0.00    -0.263 NA
ATOM     10  C   UNL     1      -1.889   0.898  -3.994  0.00  0.00    +0.111 A 
ATOM     11  C   UNL     1      -0.874  -0.039  -3.951  0.00  0.00    +0.020 A 
ATOM     12  C   UNL     1      -1.172  -1.340  -3.576  0.00  0.00    +0.008 A 
ENDBRANCH   3   7
TORSDOF 1
ENDMDL
MODEL 3
REMARK VINA RESULT:    -3.088      1.910      4.081
REMARK INTER + INTRA:          -3.524
REMARK INTER:                  -3.292
REMARK INTRA:                  -0.232
REMARK UNBOUND:                -0.255
REMARK  Name = Nicotine.pdb
REMARK  2 active torsions:
REMARK  status: ('A' for Active; 'I' for Inactive)
REMARK    1  A    between atoms: C_3  and  C_6
REMARK    2  A    between atoms: N_4  and  C_12
REMARK                            x       y       z     vdW  Elec       q    Type
REMARK                         _______ _______ _______ _____ _____    ______ ____
ROOT
ATOM      1  C   UNL     1      -2.163  -1.065  -3.379  0.00  0.00    +0.017 C 
ATOM      2  C   UNL     1      -0.833  -0.476  -3.919  0.00  0.00    +0.025 C 
ATOM      3  C   UNL     1      -0.857   0.975  -3.394  0.00  0.00    +0.088 C 
ATOM      4  N   UNL     1      -2.264   1.318  -3.121  0.00  0.00    -0.298 NA
ATOM      5  C   UNL     1      -3.109   0.158  -3.477  0.00  0.00    +0.085 C 
ATOM      6  C   UNL     1      -2.452   1.695  -1.714  0.00  0.00    +0.105 C 
ENDROOT
BRANCH   3   7
ATOM      7  C   UNL     1      -0.293   1.907  -4.435  0.00  0.00    -0.012 A 
ATOM      8  C   UNL     1       0.705   2.803  -4.104  0.00  0.00    +0.115 A 
ATOM      9  N   UNL     1       1.204   3.622  -5.009  0.00  0.00    -0.263 NA
ATOM     10  C   UNL     1       0.776   3.621  -6.256  0.00  0.00    +0.111 A 
ATOM     11  C   UNL     1      -0.220   2.751  -6.662  0.00  0.00    +0.020 A 
ATOM     12  C   UNL     1      -0.765   1.872  -5.739  0.00  0.00    +0.008 A 
ENDBRANCH   3   7
TORSDOF 1
ENDMDL
MODEL 4
REMARK VINA RESULT:    -3.082      1.486      4.507
REMARK INTER + INTRA:          -3.518
REMARK INTER:                  -3.289
REMARK INTRA:                  -0.229
REMARK UNBOUND:                -0.255
REMARK  Name = Nicotine.pdb
REMARK  2 active torsions:
REMARK  status: ('A' for Active; 'I' for Inactive)
REMARK    1  A    between atoms: C_3  and  C_6
REMARK    2  A    between atoms: N_4  and  C_12
REMARK                            x       y       z     vdW  Elec       q    Type
REMARK                         _______ _______ _______ _____ _____    ______ ____
ROOT
ATOM      1  C   UNL     1       2.349   1.057  -1.668  0.00  0.00    +0.017 C 
ATOM      2  C   UNL     1       1.675   2.235  -2.419  0.00  0.00    +0.025 C 
ATOM      3  C   UNL     1       0.427   1.578  -3.047  0.00  0.00    +0.088 C 
ATOM      4  N   UNL     1       0.694   0.131  -3.137  0.00  0.00    -0.298 NA
ATOM      5  C   UNL     1       2.053  -0.130  -2.618  0.00  0.00    +0.085 C 
ATOM      6  C   UNL     1      -0.311  -0.637  -2.391  0.00  0.00    +0.105 C 
ENDROOT
BRANCH   3   7
ATOM      7  C   UNL     1       0.188   2.143  -4.423  0.00  0.00    -0.012 A 
ATOM      8  C   UNL     1      -0.768   1.586  -5.251  0.00  0.00    +0.115 A 
ATOM      9  N   UNL     1      -0.984   2.075  -6.457  0.00  0.00    -0.263 NA
ATOM     10  C   UNL     1      -0.303   3.105  -6.919  0.00  0.00    +0.111 A 
ATOM     11  C   UNL     1       0.669   3.714  -6.148  0.00  0.00    +0.020 A 
ATOM     12  C   UNL     1       0.920   3.231  -4.873  0.00  0.00    +0.008 A 
ENDBRANCH   3   7
TORSDOF 1
ENDMDL
MODEL 5
REMARK VINA RESULT:    -3.076      2.339      3.822
REMARK INTER + INTRA:          -3.511
REMARK INTER:                  -3.342
REMARK INTRA:                  -0.170
REMARK UNBOUND:                -0.255
REMARK  Name = Nicotine.pdb
REMARK  2 active torsions:
REMARK  status: ('A' for Active; 'I' for Inactive)
REMARK    1  A    between atoms: C_3  and  C_6
REMARK    2  A    between atoms: N_4  and  C_12
REMARK                            x       y       z     vdW  Elec       q    Type
REMARK                         _______ _______ _______ _____ _____    ______ ____
ROOT
ATOM      1  C   UNL     1       0.530   3.219  -6.164  0.00  0.00    +0.017 C 
ATOM      2  C   UNL     1      -0.739   2.483  -6.670  0.00  0.00    +0.025 C 
ATOM      3  C   UNL     1      -1.886   3.266  -5.997  0.00  0.00    +0.088 C 
ATOM      4  N   UNL     1      -1.319   3.947  -4.820  0.00  0.00    -0.298 NA
ATOM      5  C   UNL     1       0.115   3.601  -4.721  0.00  0.00    +0.085 C 
ATOM      6  C   UNL     1      -1.505   5.401  -4.912  0.00  0.00    +0.105 C 
ENDROOT
BRANCH   3   7
ATOM      7  C   UNL     1      -2.973   2.315  -5.567  0.00  0.00    -0.012 A 
ATOM      8  C   UNL     1      -2.837   1.579  -4.405  0.00  0.00    +0.115 A 
ATOM      9  N   UNL     1      -3.783   0.744  -4.021  0.00  0.00    -0.263 NA
ATOM     10  C   UNL     1      -4.888   0.578  -4.722  0.00  0.00    +0.111 A 
ATOM     11  C   UNL     1      -5.094   1.281  -5.894  0.00  0.00    +0.020 A 
ATOM     12  C   UNL     1      -4.123   2.171  -6.327  0.00  0.00    +0.008 A 
ENDBRANCH   3   7
TORSDOF 1
ENDMDL
MODEL 6
REMARK VINA RESULT:    -2.993      1.675      4.396
REMARK INTER + INTRA:          -3.423
REMARK INTER:                  -3.200
REMARK INTRA:                  -0.223
REMARK UNBOUND:                -0.255
REMARK  Name = Nicotine.pdb
REMARK  2 active torsions:
REMARK  status: ('A' for Active; 'I' for Inactive)
REMARK    1  A    between atoms: C_3  and  C_6
REMARK    2  A    between atoms: N_4  and  C_12
REMARK                            x       y       z     vdW  Elec       q    Type
REMARK                         _______ _______ _______ _____ _____    ______ ____
ROOT
ATOM      1  C   UNL     1      -2.422   0.265  -2.319  0.00  0.00    +0.017 C 
ATOM      2  C   UNL     1      -2.187   0.730  -3.781  0.00  0.00    +0.025 C 
ATOM      3  C   UNL     1      -0.652   0.662  -3.925  0.00  0.00    +0.088 C 
ATOM      4  N   UNL     1      -0.082   0.733  -2.567  0.00  0.00    -0.298 NA
ATOM      5  C   UNL     1      -1.190   0.868  -1.598  0.00  0.00    +0.085 C 
ATOM      6  C   UNL     1       0.733  -0.453  -2.275  0.00  0.00    +0.105 C 
ENDROOT
BRANCH   3   7
ATOM      7  C   UNL     1      -0.162   1.824  -4.750  0.00  0.00    -0.012 A 
ATOM      8  C   UNL     1       0.768   2.706  -4.232  0.00  0.00    +0.115 A 
ATOM      9  N   UNL     1       1.202   3.725  -4.948  0.00  0.00    -0.263 NA
ATOM     10  C   UNL     1       0.771   3.944  -6.174  0.00  0.00    +0.111 A 
ATOM     11  C   UNL     1      -0.159   3.104  -6.759  0.00  0.00    +0.020 A 
ATOM     12  C   UNL     1      -0.634   2.019  -6.039  0.00  0.00    +0.008 A 
ENDBRANCH   3   7
TORSDOF 1
ENDMDL
MODEL 7
REMARK VINA RESULT:    -2.887      1.766      4.237
REMARK INTER + INTRA:          -3.311
REMARK INTER:                  -3.081
REMARK INTRA:                  -0.230
REMARK UNBOUND:                -0.255
REMARK  Name = Nicotine.pdb
REMARK  2 active torsions:
REMARK  status: ('A' for Active; 'I' for Inactive)
REMARK    1  A    between atoms: C_3  and  C_6
REMARK    2  A    between atoms: N_4  and  C_12
REMARK                            x       y       z     vdW  Elec       q    Type
REMARK                         _______ _______ _______ _____ _____    ______ ____
ROOT
ATOM      1  C   UNL     1      -3.663   1.767  -4.952  0.00  0.00    +0.017 C 
ATOM      2  C   UNL     1      -2.940   2.568  -6.066  0.00  0.00    +0.025 C 
ATOM      3  C   UNL     1      -1.449   2.281  -5.788  0.00  0.00    +0.088 C 
ATOM      4  N   UNL     1      -1.338   1.879  -4.374  0.00  0.00    -0.298 NA
ATOM      5  C   UNL     1      -2.684   1.929  -3.763  0.00  0.00    +0.085 C 
ATOM      6  C   UNL     1      -0.754   0.537  -4.252  0.00  0.00    +0.105 C 
ENDROOT
BRANCH   3   7
ATOM      7  C   UNL     1      -0.633   3.523  -6.035  0.00  0.00    -0.012 A 
ATOM      8  C   UNL     1       0.708   3.556  -5.700  0.00  0.00    +0.115 A 
ATOM      9  N   UNL     1       1.430   4.640  -5.913  0.00  0.00    -0.263 NA
ATOM     10  C   UNL     1       0.908   5.726  -6.448  0.00  0.00    +0.111 A 
ATOM     11  C   UNL     1      -0.426   5.767  -6.808  0.00  0.00    +0.020 A 
ATOM     12  C   UNL     1      -1.215   4.645  -6.604  0.00  0.00    +0.008 A 
ENDBRANCH   3   7
TORSDOF 1
ENDMDL
MODEL 8
REMARK VINA RESULT:    -2.871      1.371      1.924
REMARK INTER + INTRA:          -3.295
REMARK INTER:                  -3.084
REMARK INTRA:                  -0.211
REMARK UNBOUND:                -0.255
REMARK  Name = Nicotine.pdb
REMARK  2 active torsions:
REMARK  status: ('A' for Active; 'I' for Inactive)
REMARK    1  A    between atoms: C_3  and  C_6
REMARK    2  A    between atoms: N_4  and  C_12
REMARK                            x       y       z     vdW  Elec       q    Type
REMARK                         _______ _______ _______ _____ _____    ______ ____
ROOT
ATOM      1  C   UNL     1      -0.406   3.225  -6.921  0.00  0.00    +0.017 C 
ATOM      2  C   UNL     1      -0.910   2.049  -6.043  0.00  0.00    +0.025 C 
ATOM      3  C   UNL     1      -0.613   2.534  -4.609  0.00  0.00    +0.088 C 
ATOM      4  N   UNL     1       0.446   3.555  -4.703  0.00  0.00    -0.298 NA
ATOM      5  C   UNL     1       0.832   3.703  -6.123  0.00  0.00    +0.085 C 
ATOM      6  C   UNL     1      -0.006   4.836  -4.144  0.00  0.00    +0.105 C 
ENDROOT
BRANCH   3   7
ATOM      7  C   UNL     1      -0.140   1.380  -3.764  0.00  0.00    -0.012 A 
ATOM      8  C   UNL     1      -0.904   0.233  -3.655  0.00  0.00    +0.115 A 
ATOM      9  N   UNL     1      -0.497  -0.782  -2.918  0.00  0.00    -0.263 NA
ATOM     10  C   UNL     1       0.645  -0.747  -2.260  0.00  0.00    +0.111 A 
ATOM     11  C   UNL     1       1.463   0.366  -2.322  0.00  0.00    +0.020 A 
ATOM     12  C   UNL     1       1.070   1.451  -3.091  0.00  0.00    +0.008 A 
ENDBRANCH   3   7
TORSDOF 1
ENDMDL
MODEL 9
REMARK VINA RESULT:    -2.857      3.188      4.416
REMARK INTER + INTRA:          -3.280
REMARK INTER:                  -3.071
REMARK INTRA:                  -0.209
REMARK UNBOUND:                -0.255
REMARK  Name = Nicotine.pdb
REMARK  2 active torsions:
REMARK  status: ('A' for Active; 'I' for Inactive)
REMARK    1  A    between atoms: C_3  and  C_6
REMARK    2  A    between atoms: N_4  and  C_12
REMARK                            x       y       z     vdW  Elec       q    Type
REMARK                         _______ _______ _______ _____ _____    ______ ____
ROOT
ATOM      1  C   UNL     1      -0.667   1.773  -5.520  0.00  0.00    +0.017 C 
ATOM      2  C   UNL     1       0.354   2.541  -4.640  0.00  0.00    +0.025 C 
ATOM      3  C   UNL     1       0.214   3.996  -5.136  0.00  0.00    +0.088 C 
ATOM      4  N   UNL     1      -0.353   3.941  -6.496  0.00  0.00    -0.298 NA
ATOM      5  C   UNL     1      -0.545   2.524  -6.869  0.00  0.00    +0.085 C 
ATOM      6  C   UNL     1      -1.619   4.682  -6.569  0.00  0.00    +0.105 C 
ENDROOT
BRANCH   3   7
ATOM      7  C   UNL     1       1.567   4.659  -5.170  0.00  0.00    -0.012 A 
ATOM      8  C   UNL     1       2.368   4.669  -4.043  0.00  0.00    +0.115 A 
ATOM      9  N   UNL     1       3.553   5.247  -4.064  0.00  0.00    -0.263 NA
ATOM     10  C   UNL     1       4.020   5.833  -5.149  0.00  0.00    +0.111 A 
ATOM     11  C   UNL     1       3.275   5.862  -6.313  0.00  0.00    +0.020 A 
ATOM     12  C   UNL     1       2.026   5.260  -6.331  0.00  0.00    +0.008 A 
ENDBRANCH   3   7
TORSDOF 1
ENDMDL
MODEL 10
REMARK VINA RESULT:    -2.695      3.836      5.601
REMARK INTER + INTRA:          -3.108
REMARK INTER:                  -2.893
REMARK INTRA:                  -0.215
REMARK UNBOUND:                -0.255
REMARK  Name = Nicotine.pdb
REMARK  2 active torsions:
REMARK  status: ('A' for Active; 'I' for Inactive)
REMARK    1  A    between atoms: C_3  and  C_6
REMARK    2  A    between atoms: N_4  and  C_12
REMARK                            x       y       z     vdW  Elec       q    Type
REMARK                         _______ _______ _______ _____ _____    ______ ____
ROOT
ATOM      1  C   UNL     1      -3.123   0.692  -2.090  0.00  0.00    +0.017 C 
ATOM      2  C   UNL     1      -3.246  -0.820  -1.767  0.00  0.00    +0.025 C 
ATOM      3  C   UNL     1      -2.059  -1.437  -2.538  0.00  0.00    +0.088 C 
ATOM      4  N   UNL     1      -1.699  -0.494  -3.612  0.00  0.00    -0.298 NA
ATOM      5  C   UNL     1      -2.621   0.660  -3.555  0.00  0.00    +0.085 C 
ATOM      6  C   UNL     1      -0.302  -0.059  -3.484  0.00  0.00    +0.105 C 
ENDROOT
BRANCH   3   7
ATOM      7  C   UNL     1      -2.466  -2.761  -3.131  0.00  0.00    -0.012 A 
ATOM      8  C   UNL     1      -3.797  -3.038  -3.376  0.00  0.00    +0.115 A 
ATOM      9  N   UNL     1      -4.162  -4.194  -3.895  0.00  0.00    -0.263 NA
ATOM     10  C   UNL     1      -3.280  -5.126  -4.199  0.00  0.00    +0.111 A 
ATOM     11  C   UNL     1      -1.930  -4.920  -3.982  0.00  0.00    +0.020 A 
ATOM     12  C   UNL     1      -1.509  -3.715  -3.443  0.00  0.00    +0.008 A 
ENDBRANCH   3   7
TORSDOF 1
ENDMDL
