MODEL 1
REMARK VINA RESULT:     0.000      0.000      0.000
REMARK INTER + INTRA:          -0.256
REMARK INTER:                   0.000
REMARK INTRA:                  -0.256
REMARK UNBOUND:                -0.256
REMARK  Name = Nicotine.pdb
REMARK  2 active torsions:
REMARK  status: ('A' for Active; 'I' for Inactive)
REMARK    1  A    between atoms: C_3  and  C_6
REMARK    2  A    between atoms: N_4  and  C_12
REMARK                            x       y       z     vdW  Elec       q    Type
REMARK                         _______ _______ _______ _____ _____    ______ ____
ROOT
ATOM      1  C   UNL     1       8.403  -2.608  -2.914  0.00  0.00    +0.017 C 
ATOM      2  C   UNL     1       8.001  -1.310  -2.165  0.00  0.00    +0.025 C 
ATOM      3  C   UNL     1       6.835  -0.764  -3.017  0.00  0.00    +0.088 C 
ATOM      4  N   UNL     1       6.971  -1.345  -4.365  0.00  0.00    -0.298 NA
ATOM      5  C   UNL     1       8.176  -2.200  -4.391  0.00  0.00    +0.085 C 
ATOM      6  C   UNL     1       5.773  -2.112  -4.732  0.00  0.00    +0.105 C 
ENDROOT
BRANCH   3   7
ATOM      7  C   UNL     1       6.915   0.738  -3.094  0.00  0.00    -0.012 A 
ATOM      8  C   UNL     1       5.793   1.483  -3.404  0.00  0.00    +0.115 A 
ATOM      9  N   UNL     1       5.855   2.799  -3.473  0.00  0.00    -0.263 NA
ATOM     10  C   UNL     1       6.978   3.453  -3.252  0.00  0.00    +0.111 A 
ATOM     11  C   UNL     1       8.141   2.775  -2.936  0.00  0.00    +0.020 A 
ATOM     12  C   UNL     1       8.113   1.392  -2.849  0.00  0.00    +0.008 A 
ENDBRANCH   3   7
TORSDOF 1
ENDMDL
MODEL 2
REMARK VINA RESULT:     0.000      8.408     10.009
REMARK INTER + INTRA:          -0.256
REMARK INTER:                   0.000
REMARK INTRA:                  -0.256
REMARK UNBOUND:                -0.256
REMARK  Name = Nicotine.pdb
REMARK  2 active torsions:
REMARK  status: ('A' for Active; 'I' for Inactive)
REMARK    1  A    between atoms: C_3  and  C_6
REMARK    2  A    between atoms: N_4  and  C_12
REMARK                            x       y       z     vdW  Elec       q    Type
REMARK                         _______ _______ _______ _____ _____    ______ ____
ROOT
ATOM      1  C   UNL     1      -1.831  -0.646   1.116  0.00  0.00    +0.017 C 
ATOM      2  C   UNL     1      -1.589  -0.816  -0.407  0.00  0.00    +0.025 C 
ATOM      3  C   UNL     1      -2.091  -2.250  -0.679  0.00  0.00    +0.088 C 
ATOM      4  N   UNL     1      -2.050  -2.978   0.602  0.00  0.00    -0.298 NA
ATOM      5  C   UNL     1      -1.525  -2.070   1.643  0.00  0.00    +0.085 C 
ATOM      6  C   UNL     1      -3.381  -3.482   0.964  0.00  0.00    +0.105 C 
ENDROOT
BRANCH   3   7
ATOM      7  C   UNL     1      -1.192  -2.926  -1.683  0.00  0.00    -0.012 A 
ATOM      8  C   UNL     1      -1.648  -4.007  -2.412  0.00  0.00    +0.115 A 
ATOM      9  N   UNL     1      -0.868  -4.604  -3.293  0.00  0.00    -0.263 NA
ATOM     10  C   UNL     1       0.367  -4.198  -3.512  0.00  0.00    +0.111 A 
ATOM     11  C   UNL     1       0.892  -3.122  -2.820  0.00  0.00    +0.020 A 
ATOM     12  C   UNL     1       0.100  -2.467  -1.890  0.00  0.00    +0.008 A 
ENDBRANCH   3   7
TORSDOF 1
ENDMDL
MODEL 3
REMARK VINA RESULT:     0.000      2.201      4.630
REMARK INTER + INTRA:          -0.256
REMARK INTER:                   0.000
REMARK INTRA:                  -0.256
REMARK UNBOUND:                -0.256
REMARK  Name = Nicotine.pdb
REMARK  2 active torsions:
REMARK  status: ('A' for Active; 'I' for Inactive)
REMARK    1  A    between atoms: C_3  and  C_6
REMARK    2  A    between atoms: N_4  and  C_12
REMARK                            x       y       z     vdW  Elec       q    Type
REMARK                         _______ _______ _______ _____ _____    ______ ____
ROOT
ATOM      1  C   UNL     1       6.485  -1.994  -6.686  0.00  0.00    +0.017 C 
ATOM      2  C   UNL     1       6.859  -2.902  -5.486  0.00  0.00    +0.025 C 
ATOM      3  C   UNL     1       7.178  -1.886  -4.368  0.00  0.00    +0.088 C 
ATOM      4  N   UNL     1       7.518  -0.610  -5.022  0.00  0.00    -0.298 NA
ATOM      5  C   UNL     1       7.450  -0.798  -6.487  0.00  0.00    +0.085 C 
ATOM      6  C   UNL     1       6.616   0.464  -4.585  0.00  0.00    +0.105 C 
ENDROOT
BRANCH   3   7
ATOM      7  C   UNL     1       8.346  -2.373  -3.551  0.00  0.00    -0.012 A 
ATOM      8  C   UNL     1       8.548  -1.899  -2.268  0.00  0.00    +0.115 A 
ATOM      9  N   UNL     1       9.568  -2.320  -1.546  0.00  0.00    -0.263 NA
ATOM     10  C   UNL     1      10.430  -3.201  -2.012  0.00  0.00    +0.111 A 
ATOM     11  C   UNL     1      10.293  -3.720  -3.286  0.00  0.00    +0.020 A 
ATOM     12  C   UNL     1       9.230  -3.305  -4.073  0.00  0.00    +0.008 A 
ENDBRANCH   3   7
TORSDOF 1
ENDMDL
MODEL 4
REMARK VINA RESULT:     0.000      2.691      3.749
REMARK INTER + INTRA:          -0.256
REMARK INTER:                   0.000
REMARK INTRA:                  -0.256
REMARK UNBOUND:                -0.256
REMARK  Name = Nicotine.pdb
REMARK  2 active torsions:
REMARK  status: ('A' for Active; 'I' for Inactive)
REMARK    1  A    between atoms: C_3  and  C_6
REMARK    2  A    between atoms: N_4  and  C_12
REMARK                            x       y       z     vdW  Elec       q    Type
REMARK                         _______ _______ _______ _____ _____    ______ ____
ROOT
ATOM      1  C   UNL     1       7.206  -1.294  -0.340  0.00  0.00    +0.017 C 
ATOM      2  C   UNL     1       7.133  -0.363  -1.579  0.00  0.00    +0.025 C 
ATOM      3  C   UNL     1       7.998   0.844  -1.158  0.00  0.00    +0.088 C 
ATOM      4  N   UNL     1       8.042   0.857   0.316  0.00  0.00    -0.298 NA
ATOM      5  C   UNL     1       7.226  -0.268   0.821  0.00  0.00    +0.085 C 
ATOM      6  C   UNL     1       9.424   0.766   0.803  0.00  0.00    +0.105 C 
ENDROOT
BRANCH   3   7
ATOM      7  C   UNL     1       7.378   2.121  -1.664  0.00  0.00    -0.012 A 
ATOM      8  C   UNL     1       8.145   3.261  -1.809  0.00  0.00    +0.115 A 
ATOM      9  N   UNL     1       7.610   4.382  -2.252  0.00  0.00    -0.263 NA
ATOM     10  C   UNL     1       6.333   4.462  -2.572  0.00  0.00    +0.111 A 
ATOM     11  C   UNL     1       5.504   3.362  -2.454  0.00  0.00    +0.020 A 
ATOM     12  C   UNL     1       6.032   2.165  -1.996  0.00  0.00    +0.008 A 
ENDBRANCH   3   7
TORSDOF 1
ENDMDL
MODEL 5
REMARK VINA RESULT:     0.000      3.428      5.821
REMARK INTER + INTRA:          -0.256
REMARK INTER:                   0.000
REMARK INTRA:                  -0.256
REMARK UNBOUND:                -0.256
REMARK  Name = Nicotine.pdb
REMARK  2 active torsions:
REMARK  status: ('A' for Active; 'I' for Inactive)
REMARK    1  A    between atoms: C_3  and  C_6
REMARK    2  A    between atoms: N_4  and  C_12
REMARK                            x       y       z     vdW  Elec       q    Type
REMARK                         _______ _______ _______ _____ _____    ______ ____
ROOT
ATOM      1  C   UNL     1       6.910   1.851   1.135  0.00  0.00    +0.017 C 
ATOM      2  C   UNL     1       6.675   0.324   1.274  0.00  0.00    +0.025 C 
ATOM      3  C   UNL     1       8.021  -0.278   0.818  0.00  0.00    +0.088 C 
ATOM      4  N   UNL     1       8.689   0.733  -0.022  0.00  0.00    -0.298 NA
ATOM      5  C   UNL     1       7.808   1.916  -0.126  0.00  0.00    +0.085 C 
ATOM      6  C   UNL     1       9.998   1.098   0.532  0.00  0.00    +0.105 C 
ENDROOT
BRANCH   3   7
ATOM      7  C   UNL     1       7.778  -1.532   0.019  0.00  0.00    -0.012 A 
ATOM      8  C   UNL     1       8.778  -2.475  -0.124  0.00  0.00    +0.115 A 
ATOM      9  N   UNL     1       8.573  -3.575  -0.822  0.00  0.00    -0.263 NA
ATOM     10  C   UNL     1       7.418  -3.819  -1.407  0.00  0.00    +0.111 A 
ATOM     11  C   UNL     1       6.371  -2.922  -1.308  0.00  0.00    +0.020 A 
ATOM     12  C   UNL     1       6.547  -1.757  -0.578  0.00  0.00    +0.008 A 
ENDBRANCH   3   7
TORSDOF 1
ENDMDL
MODEL 6
REMARK VINA RESULT:     0.000      4.715      6.382
REMARK INTER + INTRA:          -0.256
REMARK INTER:                   0.000
REMARK INTRA:                  -0.256
REMARK UNBOUND:                -0.256
REMARK  Name = Nicotine.pdb
REMARK  2 active torsions:
REMARK  status: ('A' for Active; 'I' for Inactive)
REMARK    1  A    between atoms: C_3  and  C_6
REMARK    2  A    between atoms: N_4  and  C_12
REMARK                            x       y       z     vdW  Elec       q    Type
REMARK                         _______ _______ _______ _____ _____    ______ ____
ROOT
ATOM      1  C   UNL     1       1.349  -1.972  -1.996  0.00  0.00    +0.017 C 
ATOM      2  C   UNL     1       2.610  -2.623  -2.623  0.00  0.00    +0.025 C 
ATOM      3  C   UNL     1       3.045  -1.587  -3.681  0.00  0.00    +0.088 C 
ATOM      4  N   UNL     1       1.861  -0.774  -4.010  0.00  0.00    -0.298 NA
ATOM      5  C   UNL     1       0.713  -1.275  -3.224  0.00  0.00    +0.085 C 
ATOM      6  C   UNL     1       2.105   0.648  -3.737  0.00  0.00    +0.105 C 
ENDROOT
BRANCH   3   7
ATOM      7  C   UNL     1       3.543  -2.293  -4.916  0.00  0.00    -0.012 A 
ATOM      8  C   UNL     1       4.376  -1.642  -5.806  0.00  0.00    +0.115 A 
ATOM      9  N   UNL     1       4.816  -2.253  -6.889  0.00  0.00    -0.263 NA
ATOM     10  C   UNL     1       4.482  -3.498  -7.166  0.00  0.00    +0.111 A 
ATOM     11  C   UNL     1       3.653  -4.213  -6.322  0.00  0.00    +0.020 A 
ATOM     12  C   UNL     1       3.175  -3.605  -5.171  0.00  0.00    +0.008 A 
ENDBRANCH   3   7
TORSDOF 1
ENDMDL
MODEL 7
REMARK VINA RESULT:     0.000      8.210      9.464
REMARK INTER + INTRA:          -0.256
REMARK INTER:                   0.000
REMARK INTRA:                  -0.256
REMARK UNBOUND:                -0.256
REMARK  Name = Nicotine.pdb
REMARK  2 active torsions:
REMARK  status: ('A' for Active; 'I' for Inactive)
REMARK    1  A    between atoms: C_3  and  C_6
REMARK    2  A    between atoms: N_4  and  C_12
REMARK                            x       y       z     vdW  Elec       q    Type
REMARK                         _______ _______ _______ _____ _____    ______ ____
ROOT
ATOM      1  C   UNL     1       1.721  -0.187   0.335  0.00  0.00    +0.017 C 
ATOM      2  C   UNL     1       0.839  -0.905   1.389  0.00  0.00    +0.025 C 
ATOM      3  C   UNL     1       1.792  -1.057   2.594  0.00  0.00    +0.088 C 
ATOM      4  N   UNL     1       3.169  -0.982   2.073  0.00  0.00    -0.298 NA
ATOM      5  C   UNL     1       3.110  -0.818   0.605  0.00  0.00    +0.085 C 
ATOM      6  C   UNL     1       3.910   0.122   2.697  0.00  0.00    +0.105 C 
ENDROOT
BRANCH   3   7
ATOM      7  C   UNL     1       1.567  -2.388   3.262  0.00  0.00    -0.012 A 
ATOM      8  C   UNL     1       1.953  -2.586   4.575  0.00  0.00    +0.115 A 
ATOM      9  N   UNL     1       1.759  -3.748   5.167  0.00  0.00    -0.263 NA
ATOM     10  C   UNL     1       1.194  -4.760   4.539  0.00  0.00    +0.111 A 
ATOM     11  C   UNL     1       0.781  -4.637   3.226  0.00  0.00    +0.020 A 
ATOM     12  C   UNL     1       0.964  -3.428   2.572  0.00  0.00    +0.008 A 
ENDBRANCH   3   7
TORSDOF 1
ENDMDL
MODEL 8
REMARK VINA RESULT:     0.000      8.062      9.663
REMARK INTER + INTRA:          -0.256
REMARK INTER:                   0.000
REMARK INTRA:                  -0.256
REMARK UNBOUND:                -0.256
REMARK  Name = Nicotine.pdb
REMARK  2 active torsions:
REMARK  status: ('A' for Active; 'I' for Inactive)
REMARK    1  A    between atoms: C_3  and  C_6
REMARK    2  A    between atoms: N_4  and  C_12
REMARK                            x       y       z     vdW  Elec       q    Type
REMARK                         _______ _______ _______ _____ _____    ______ ____
ROOT
ATOM      1  C   UNL     1       1.088   1.880  -3.346  0.00  0.00    +0.017 C 
ATOM      2  C   UNL     1       0.183   0.738  -2.812  0.00  0.00    +0.025 C 
ATOM      3  C   UNL     1      -0.884   0.595  -3.918  0.00  0.00    +0.088 C 
ATOM      4  N   UNL     1      -0.920   1.869  -4.658  0.00  0.00    -0.298 NA
ATOM      5  C   UNL     1       0.053   2.797  -4.045  0.00  0.00    +0.085 C 
ATOM      6  C   UNL     1      -0.626   1.661  -6.081  0.00  0.00    +0.105 C 
ENDROOT
BRANCH   3   7
ATOM      7  C   UNL     1      -2.230   0.320  -3.299  0.00  0.00    -0.012 A 
ATOM      8  C   UNL     1      -3.234  -0.270  -4.043  0.00  0.00    +0.115 A 
ATOM      9  N   UNL     1      -4.415  -0.514  -3.509  0.00  0.00    -0.263 NA
ATOM     10  C   UNL     1      -4.685  -0.207  -2.256  0.00  0.00    +0.111 A 
ATOM     11  C   UNL     1      -3.730   0.386  -1.450  0.00  0.00    +0.020 A 
ATOM     12  C   UNL     1      -2.475   0.652  -1.975  0.00  0.00    +0.008 A 
ENDBRANCH   3   7
TORSDOF 1
ENDMDL
MODEL 9
REMARK VINA RESULT:     0.000      6.925      8.673
REMARK INTER + INTRA:          -0.256
REMARK INTER:                   0.000
REMARK INTRA:                  -0.256
REMARK UNBOUND:                -0.256
REMARK  Name = Nicotine.pdb
REMARK  2 active torsions:
REMARK  status: ('A' for Active; 'I' for Inactive)
REMARK    1  A    between atoms: C_3  and  C_6
REMARK    2  A    between atoms: N_4  and  C_12
REMARK                            x       y       z     vdW  Elec       q    Type
REMARK                         _______ _______ _______ _____ _____    ______ ____
ROOT
ATOM      1  C   UNL     1       2.311   2.930  -2.504  0.00  0.00    +0.017 C 
ATOM      2  C   UNL     1       1.696   1.732  -1.734  0.00  0.00    +0.025 C 
ATOM      3  C   UNL     1       0.305   1.579  -2.386  0.00  0.00    +0.088 C 
ATOM      4  N   UNL     1      -0.035   2.874  -3.001  0.00  0.00    -0.298 NA
ATOM      5  C   UNL     1       1.068   3.824  -2.738  0.00  0.00    +0.085 C 
ATOM      6  C   UNL     1      -0.271   2.727  -4.443  0.00  0.00    +0.105 C 
ENDROOT
BRANCH   3   7
ATOM      7  C   UNL     1      -0.717   1.225  -1.336  0.00  0.00    -0.012 A 
ATOM      8  C   UNL     1      -1.904   0.615  -1.694  0.00  0.00    +0.115 A 
ATOM      9  N   UNL     1      -2.804   0.302  -0.781  0.00  0.00    -0.263 NA
ATOM     10  C   UNL     1      -2.610   0.555   0.498  0.00  0.00    +0.111 A 
ATOM     11  C   UNL     1      -1.446   1.162   0.931  0.00  0.00    +0.020 A 
ATOM     12  C   UNL     1      -0.475   1.501   0.001  0.00  0.00    +0.008 A 
ENDBRANCH   3   7
TORSDOF 1
ENDMDL
MODEL 10
REMARK VINA RESULT:     0.000      3.539      5.793
REMARK INTER + INTRA:          -0.256
REMARK INTER:                   0.000
REMARK INTRA:                  -0.256
REMARK UNBOUND:                -0.256
REMARK  Name = Nicotine.pdb
REMARK  2 active torsions:
REMARK  status: ('A' for Active; 'I' for Inactive)
REMARK    1  A    between atoms: C_3  and  C_6
REMARK    2  A    between atoms: N_4  and  C_12
REMARK                            x       y       z     vdW  Elec       q    Type
REMARK                         _______ _______ _______ _____ _____    ______ ____
ROOT
ATOM      1  C   UNL     1       0.948   0.890  -3.314  0.00  0.00    +0.017 C 
ATOM      2  C   UNL     1       1.668  -0.273  -4.046  0.00  0.00    +0.025 C 
ATOM      3  C   UNL     1       2.377  -1.021  -2.896  0.00  0.00    +0.088 C 
ATOM      4  N   UNL     1       2.525  -0.068  -1.782  0.00  0.00    -0.298 NA
ATOM      5  C   UNL     1       1.965   1.235  -2.198  0.00  0.00    +0.085 C 
ATOM      6  C   UNL     1       1.858  -0.565  -0.571  0.00  0.00    +0.105 C 
ENDROOT
BRANCH   3   7
ATOM      7  C   UNL     1       3.733  -1.494  -3.352  0.00  0.00    -0.012 A 
ATOM      8  C   UNL     1       4.367  -2.533  -2.697  0.00  0.00    +0.115 A 
ATOM      9  N   UNL     1       5.553  -2.954  -3.089  0.00  0.00    -0.263 NA
ATOM     10  C   UNL     1       6.179  -2.406  -4.112  0.00  0.00    +0.111 A 
ATOM     11  C   UNL     1       5.607  -1.363  -4.816  0.00  0.00    +0.020 A 
ATOM     12  C   UNL     1       4.358  -0.898  -4.436  0.00  0.00    +0.008 A 
ENDBRANCH   3   7
TORSDOF 1
ENDMDL
