MODEL 1
REMARK VINA RESULT:    19.407      0.000      0.000
REMARK INTER + INTRA:          20.323
REMARK INTER:                  20.542
REMARK INTRA:                  -0.219
REMARK UNBOUND:                -0.219
REMARK  Name = Nicotine.pdb
REMARK  2 active torsions:
REMARK  status: ('A' for Active; 'I' for Inactive)
REMARK    1  A    between atoms: C_3  and  C_6
REMARK    2  A    between atoms: N_4  and  C_12
REMARK                            x       y       z     vdW  Elec       q    Type
REMARK                         _______ _______ _______ _____ _____    ______ ____
ROOT
ATOM      1  C   UNL     1      -0.055   2.966  -0.097  0.00  0.00    +0.017 C 
ATOM      2  C   UNL     1      -1.571   3.088   0.211  0.00  0.00    +0.025 C 
ATOM      3  C   UNL     1      -2.061   4.099  -0.847  0.00  0.00    +0.088 C 
ATOM      4  N   UNL     1      -0.888   4.878  -1.283  0.00  0.00    -0.298 NA
ATOM      5  C   UNL     1       0.294   4.414  -0.525  0.00  0.00    +0.085 C 
ATOM      6  C   UNL     1      -0.673   4.744  -2.729  0.00  0.00    +0.105 C 
ENDROOT
BRANCH   3   7
ATOM      7  C   UNL     1      -3.092   5.016  -0.242  0.00  0.00    -0.012 A 
ATOM      8  C   UNL     1      -3.399   6.219  -0.849  0.00  0.00    +0.115 A 
ATOM      9  N   UNL     1      -4.301   7.027  -0.326  0.00  0.00    -0.263 NA
ATOM     10  C   UNL     1      -4.940   6.725   0.787  0.00  0.00    +0.111 A 
ATOM     11  C   UNL     1      -4.685   5.539   1.450  0.00  0.00    +0.020 A 
ATOM     12  C   UNL     1      -3.748   4.661   0.927  0.00  0.00    +0.008 A 
ENDBRANCH   3   7
TORSDOF 1
ENDMDL
MODEL 2
REMARK VINA RESULT:    21.427      1.250      4.718
REMARK INTER + INTRA:          22.461
REMARK INTER:                  22.711
REMARK INTRA:                  -0.250
REMARK UNBOUND:                -0.219
REMARK  Name = Nicotine.pdb
REMARK  2 active torsions:
REMARK  status: ('A' for Active; 'I' for Inactive)
REMARK    1  A    between atoms: C_3  and  C_6
REMARK    2  A    between atoms: N_4  and  C_12
REMARK                            x       y       z     vdW  Elec       q    Type
REMARK                         _______ _______ _______ _____ _____    ______ ____
ROOT
ATOM      1  C   UNL     1      -4.830   7.027  -0.476  0.00  0.00    +0.017 C 
ATOM      2  C   UNL     1      -3.994   5.963  -1.234  0.00  0.00    +0.025 C 
ATOM      3  C   UNL     1      -3.672   4.927  -0.137  0.00  0.00    +0.088 C 
ATOM      4  N   UNL     1      -3.792   5.614   1.162  0.00  0.00    -0.298 NA
ATOM      5  C   UNL     1      -4.147   7.028   0.915  0.00  0.00    +0.085 C 
ATOM      6  C   UNL     1      -4.794   4.960   2.014  0.00  0.00    +0.105 C 
ENDROOT
BRANCH   3   7
ATOM      7  C   UNL     1      -2.268   4.409  -0.316  0.00  0.00    -0.012 A 
ATOM      8  C   UNL     1      -1.814   3.345   0.439  0.00  0.00    +0.115 A 
ATOM      9  N   UNL     1      -0.587   2.885   0.288  0.00  0.00    -0.263 NA
ATOM     10  C   UNL     1       0.250   3.417  -0.581  0.00  0.00    +0.111 A 
ATOM     11  C   UNL     1      -0.134   4.483  -1.372  0.00  0.00    +0.020 A 
ATOM     12  C   UNL     1      -1.418   4.990  -1.245  0.00  0.00    +0.008 A 
ENDBRANCH   3   7
TORSDOF 1
ENDMDL
