MODEL 1
REMARK VINA RESULT:     4.800      0.000      0.000
REMARK INTER + INTRA:           4.895
REMARK INTER:                   5.081
REMARK INTRA:                  -0.186
REMARK UNBOUND:                -0.186
REMARK  Name = Nicotine.pdb
REMARK  2 active torsions:
REMARK  status: ('A' for Active; 'I' for Inactive)
REMARK    1  A    between atoms: C_3  and  C_6
REMARK    2  A    between atoms: N_4  and  C_12
REMARK                            x       y       z     vdW  Elec       q    Type
REMARK                         _______ _______ _______ _____ _____    ______ ____
ROOT
ATOM      1  C   UNL     1      -1.029   1.062   4.984  0.00  0.00    +0.017 C 
ATOM      2  C   UNL     1      -1.021   2.346   5.855  0.00  0.00    +0.025 C 
ATOM      3  C   UNL     1      -2.505   2.511   6.244  0.00  0.00    +0.088 C 
ATOM      4  N   UNL     1      -3.303   1.780   5.243  0.00  0.00    -0.298 NA
ATOM      5  C   UNL     1      -2.383   1.194   4.244  0.00  0.00    +0.085 C 
ATOM      6  C   UNL     1      -4.121   0.739   5.879  0.00  0.00    +0.105 C 
ENDROOT
BRANCH   3   7
ATOM      7  C   UNL     1      -2.879   3.971   6.232  0.00  0.00    -0.012 A 
ATOM      8  C   UNL     1      -1.898   4.944   6.242  0.00  0.00    +0.115 A 
ATOM      9  N   UNL     1      -2.217   6.224   6.231  0.00  0.00    -0.263 NA
ATOM     10  C   UNL     1      -3.472   6.625   6.212  0.00  0.00    +0.111 A 
ATOM     11  C   UNL     1      -4.508   5.709   6.200  0.00  0.00    +0.020 A 
ATOM     12  C   UNL     1      -4.211   4.355   6.205  0.00  0.00    +0.008 A 
ENDBRANCH   3   7
TORSDOF 1
ENDMDL
MODEL 2
REMARK VINA RESULT:     6.720      1.169      1.425
REMARK INTER + INTRA:           6.926
REMARK INTER:                   7.113
REMARK INTRA:                  -0.186
REMARK UNBOUND:                -0.186
REMARK  Name = Nicotine.pdb
REMARK  2 active torsions:
REMARK  status: ('A' for Active; 'I' for Inactive)
REMARK    1  A    between atoms: C_3  and  C_6
REMARK    2  A    between atoms: N_4  and  C_12
REMARK                            x       y       z     vdW  Elec       q    Type
REMARK                         _______ _______ _______ _____ _____    ______ ____
ROOT
ATOM      1  C   UNL     1       0.365   1.791   4.549  0.00  0.00    +0.017 C 
ATOM      2  C   UNL     1      -0.145   3.019   5.347  0.00  0.00    +0.025 C 
ATOM      3  C   UNL     1      -1.362   2.456   6.111  0.00  0.00    +0.088 C 
ATOM      4  N   UNL     1      -1.821   1.261   5.382  0.00  0.00    -0.298 NA
ATOM      5  C   UNL     1      -0.962   1.076   4.192  0.00  0.00    +0.085 C 
ATOM      6  C   UNL     1      -1.790   0.073   6.244  0.00  0.00    +0.105 C 
ENDROOT
BRANCH   3   7
ATOM      7  C   UNL     1      -2.461   3.486   6.155  0.00  0.00    -0.012 A 
ATOM      8  C   UNL     1      -2.156   4.833   6.192  0.00  0.00    +0.115 A 
ATOM      9  N   UNL     1      -3.112   5.741   6.231  0.00  0.00    -0.263 NA
ATOM     10  C   UNL     1      -4.386   5.405   6.235  0.00  0.00    +0.111 A 
ATOM     11  C   UNL     1      -4.768   4.077   6.199  0.00  0.00    +0.020 A 
ATOM     12  C   UNL     1      -3.791   3.095   6.153  0.00  0.00    +0.008 A 
ENDBRANCH   3   7
TORSDOF 1
ENDMDL
MODEL 3
REMARK VINA RESULT:     6.730      1.241      4.580
REMARK INTER + INTRA:           6.937
REMARK INTER:                   7.165
REMARK INTRA:                  -0.228
REMARK UNBOUND:                -0.186
REMARK  Name = Nicotine.pdb
REMARK  2 active torsions:
REMARK  status: ('A' for Active; 'I' for Inactive)
REMARK    1  A    between atoms: C_3  and  C_6
REMARK    2  A    between atoms: N_4  and  C_12
REMARK                            x       y       z     vdW  Elec       q    Type
REMARK                         _______ _______ _______ _____ _____    ______ ____
ROOT
ATOM      1  C   UNL     1      -4.697   7.027   5.476  0.00  0.00    +0.017 C 
ATOM      2  C   UNL     1      -4.859   5.617   6.103  0.00  0.00    +0.025 C 
ATOM      3  C   UNL     1      -3.401   5.130   6.244  0.00  0.00    +0.088 C 
ATOM      4  N   UNL     1      -2.589   5.898   5.283  0.00  0.00    -0.298 NA
ATOM      5  C   UNL     1      -3.480   6.816   4.541  0.00  0.00    +0.085 C 
ATOM      6  C   UNL     1      -1.522   6.639   5.969  0.00  0.00    +0.105 C 
ENDROOT
BRANCH   3   7
ATOM      7  C   UNL     1      -3.319   3.660   5.925  0.00  0.00    -0.012 A 
ATOM      8  C   UNL     1      -2.091   3.038   5.805  0.00  0.00    +0.115 A 
ATOM      9  N   UNL     1      -2.010   1.751   5.527  0.00  0.00    -0.263 NA
ATOM     10  C   UNL     1      -3.087   1.011   5.353  0.00  0.00    +0.111 A 
ATOM     11  C   UNL     1      -4.350   1.563   5.458  0.00  0.00    +0.020 A 
ATOM     12  C   UNL     1      -4.474   2.912   5.755  0.00  0.00    +0.008 A 
ENDBRANCH   3   7
TORSDOF 1
ENDMDL
