MODEL 1
REMARK VINA RESULT:    -2.287      0.000      0.000
REMARK INTER + INTRA:          -2.627
REMARK INTER:                  -2.421
REMARK INTRA:                  -0.206
REMARK UNBOUND:                -0.206
REMARK  Name = Nicotine.pdb
REMARK  2 active torsions:
REMARK  status: ('A' for Active; 'I' for Inactive)
REMARK    1  A    between atoms: C_3  and  C_6
REMARK    2  A    between atoms: N_4  and  C_12
REMARK                            x       y       z     vdW  Elec       q    Type
REMARK                         _______ _______ _______ _____ _____    ______ ____
ROOT
ATOM      1  C   UNL     1       8.342   5.587   5.316  0.00  0.00    +0.017 C 
ATOM      2  C   UNL     1       7.990   5.592   3.805  0.00  0.00    +0.025 C 
ATOM      3  C   UNL     1       9.222   4.923   3.160  0.00  0.00    +0.088 C 
ATOM      4  N   UNL     1      10.346   5.076   4.101  0.00  0.00    -0.298 NA
ATOM      5  C   UNL     1       9.872   5.828   5.282  0.00  0.00    +0.085 C 
ATOM      6  C   UNL     1      10.887   3.768   4.492  0.00  0.00    +0.105 C 
ENDROOT
BRANCH   3   7
ATOM      7  C   UNL     1       9.549   5.601   1.855  0.00  0.00    -0.012 A 
ATOM      8  C   UNL     1      10.661   6.416   1.750  0.00  0.00    +0.115 A 
ATOM      9  N   UNL     1      10.954   7.013   0.611  0.00  0.00    -0.263 NA
ATOM     10  C   UNL     1      10.207   6.860  -0.464  0.00  0.00    +0.111 A 
ATOM     11  C   UNL     1       9.079   6.061  -0.435  0.00  0.00    +0.020 A 
ATOM     12  C   UNL     1       8.742   5.412   0.743  0.00  0.00    +0.008 A 
ENDBRANCH   3   7
TORSDOF 1
ENDMDL
MODEL 2
REMARK VINA RESULT:    -2.013      7.829      9.834
REMARK INTER + INTRA:          -2.337
REMARK INTER:                  -2.104
REMARK INTRA:                  -0.233
REMARK UNBOUND:                -0.206
REMARK  Name = Nicotine.pdb
REMARK  2 active torsions:
REMARK  status: ('A' for Active; 'I' for Inactive)
REMARK    1  A    between atoms: C_3  and  C_6
REMARK    2  A    between atoms: N_4  and  C_12
REMARK                            x       y       z     vdW  Elec       q    Type
REMARK                         _______ _______ _______ _____ _____    ______ ____
ROOT
ATOM      1  C   UNL     1       9.857  -5.852   2.222  0.00  0.00    +0.017 C 
ATOM      2  C   UNL     1      10.794  -4.620   2.326  0.00  0.00    +0.025 C 
ATOM      3  C   UNL     1      10.919  -4.407   3.850  0.00  0.00    +0.088 C 
ATOM      4  N   UNL     1       9.748  -5.044   4.478  0.00  0.00    -0.298 NA
ATOM      5  C   UNL     1       8.896  -5.616   3.414  0.00  0.00    +0.085 C 
ATOM      6  C   UNL     1      10.161  -6.078   5.435  0.00  0.00    +0.105 C 
ENDROOT
BRANCH   3   7
ATOM      7  C   UNL     1      10.932  -2.933   4.162  0.00  0.00    -0.012 A 
ATOM      8  C   UNL     1      10.933  -2.496   5.473  0.00  0.00    +0.115 A 
ATOM      9  N   UNL     1      10.944  -1.208   5.755  0.00  0.00    -0.263 NA
ATOM     10  C   UNL     1      10.954  -0.291   4.808  0.00  0.00    +0.111 A 
ATOM     11  C   UNL     1      10.954  -0.652   3.474  0.00  0.00    +0.020 A 
ATOM     12  C   UNL     1      10.948  -1.997   3.139  0.00  0.00    +0.008 A 
ENDBRANCH   3   7
TORSDOF 1
ENDMDL
MODEL 3
REMARK VINA RESULT:    -1.774      1.718      2.500
REMARK INTER + INTRA:          -2.084
REMARK INTER:                  -1.829
REMARK INTRA:                  -0.255
REMARK UNBOUND:                -0.206
REMARK  Name = Nicotine.pdb
REMARK  2 active torsions:
REMARK  status: ('A' for Active; 'I' for Inactive)
REMARK    1  A    between atoms: C_3  and  C_6
REMARK    2  A    between atoms: N_4  and  C_12
REMARK                            x       y       z     vdW  Elec       q    Type
REMARK                         _______ _______ _______ _____ _____    ______ ____
ROOT
ATOM      1  C   UNL     1       9.366   6.533   5.103  0.00  0.00    +0.017 C 
ATOM      2  C   UNL     1      10.148   6.936   3.826  0.00  0.00    +0.025 C 
ATOM      3  C   UNL     1       9.041   7.028   2.755  0.00  0.00    +0.088 C 
ATOM      4  N   UNL     1       7.909   6.210   3.226  0.00  0.00    -0.298 NA
ATOM      5  C   UNL     1       8.276   5.599   4.521  0.00  0.00    +0.085 C 
ATOM      6  C   UNL     1       6.690   7.019   3.351  0.00  0.00    +0.105 C 
ENDROOT
BRANCH   3   7
ATOM      7  C   UNL     1       9.551   6.492   1.442  0.00  0.00    -0.012 A 
ATOM      8  C   UNL     1       9.065   6.990   0.248  0.00  0.00    +0.115 A 
ATOM      9  N   UNL     1       9.506   6.527  -0.906  0.00  0.00    -0.263 NA
ATOM     10  C   UNL     1      10.420   5.579  -0.968  0.00  0.00    +0.111 A 
ATOM     11  C   UNL     1      10.953   5.033   0.185  0.00  0.00    +0.020 A 
ATOM     12  C   UNL     1      10.518   5.499   1.416  0.00  0.00    +0.008 A 
ENDBRANCH   3   7
TORSDOF 1
ENDMDL
MODEL 4
REMARK VINA RESULT:    -1.596      1.797      4.518
REMARK INTER + INTRA:          -1.896
REMARK INTER:                  -1.687
REMARK INTRA:                  -0.209
REMARK UNBOUND:                -0.206
REMARK  Name = Nicotine.pdb
REMARK  2 active torsions:
REMARK  status: ('A' for Active; 'I' for Inactive)
REMARK    1  A    between atoms: C_3  and  C_6
REMARK    2  A    between atoms: N_4  and  C_12
REMARK                            x       y       z     vdW  Elec       q    Type
REMARK                         _______ _______ _______ _____ _____    ______ ____
ROOT
ATOM      1  C   UNL     1       8.937   6.128   0.255  0.00  0.00    +0.017 C 
ATOM      2  C   UNL     1       8.685   7.028   1.493  0.00  0.00    +0.025 C 
ATOM      3  C   UNL     1       9.421   6.276   2.623  0.00  0.00    +0.088 C 
ATOM      4  N   UNL     1       9.544   4.869   2.204  0.00  0.00    -0.298 NA
ATOM      5  C   UNL     1       8.898   4.712   0.883  0.00  0.00    +0.085 C 
ATOM      6  C   UNL     1      10.952   4.455   2.154  0.00  0.00    +0.105 C 
ENDROOT
BRANCH   3   7
ATOM      7  C   UNL     1       8.626   6.365   3.900  0.00  0.00    -0.012 A 
ATOM      8  C   UNL     1       7.370   6.942   3.903  0.00  0.00    +0.115 A 
ATOM      9  N   UNL     1       6.668   7.024   5.016  0.00  0.00    -0.263 NA
ATOM     10  C   UNL     1       7.129   6.562   6.162  0.00  0.00    +0.111 A 
ATOM     11  C   UNL     1       8.376   5.971   6.236  0.00  0.00    +0.020 A 
ATOM     12  C   UNL     1       9.142   5.863   5.085  0.00  0.00    +0.008 A 
ENDBRANCH   3   7
TORSDOF 1
ENDMDL
MODEL 5
REMARK VINA RESULT:    -1.410      1.323      4.539
REMARK INTER + INTRA:          -1.699
REMARK INTER:                  -1.488
REMARK INTRA:                  -0.211
REMARK UNBOUND:                -0.206
REMARK  Name = Nicotine.pdb
REMARK  2 active torsions:
REMARK  status: ('A' for Active; 'I' for Inactive)
REMARK    1  A    between atoms: C_3  and  C_6
REMARK    2  A    between atoms: N_4  and  C_12
REMARK                            x       y       z     vdW  Elec       q    Type
REMARK                         _______ _______ _______ _____ _____    ______ ____
ROOT
ATOM      1  C   UNL     1      10.919   5.499   0.136  0.00  0.00    +0.017 C 
ATOM      2  C   UNL     1      10.663   4.731   1.459  0.00  0.00    +0.025 C 
ATOM      3  C   UNL     1       9.437   5.458   2.051  0.00  0.00    +0.088 C 
ATOM      4  N   UNL     1       9.396   6.804   1.451  0.00  0.00    -0.298 NA
ATOM      5  C   UNL     1      10.551   6.949   0.539  0.00  0.00    +0.085 C 
ATOM      6  C   UNL     1       8.131   7.026   0.739  0.00  0.00    +0.105 C 
ENDROOT
BRANCH   3   7
ATOM      7  C   UNL     1       9.578   5.566   3.547  0.00  0.00    -0.012 A 
ATOM      8  C   UNL     1      10.817   5.788   4.118  0.00  0.00    +0.115 A 
ATOM      9  N   UNL     1      10.949   5.883   5.427  0.00  0.00    -0.263 NA
ATOM     10  C   UNL     1       9.916   5.773   6.238  0.00  0.00    +0.111 A 
ATOM     11  C   UNL     1       8.646   5.551   5.739  0.00  0.00    +0.020 A 
ATOM     12  C   UNL     1       8.467   5.450   4.368  0.00  0.00    +0.008 A 
ENDBRANCH   3   7
TORSDOF 1
ENDMDL
MODEL 6
REMARK VINA RESULT:    -1.317      1.631      4.490
REMARK INTER + INTRA:          -1.600
REMARK INTER:                  -1.384
REMARK INTRA:                  -0.215
REMARK UNBOUND:                -0.206
REMARK  Name = Nicotine.pdb
REMARK  2 active torsions:
REMARK  status: ('A' for Active; 'I' for Inactive)
REMARK    1  A    between atoms: C_3  and  C_6
REMARK    2  A    between atoms: N_4  and  C_12
REMARK                            x       y       z     vdW  Elec       q    Type
REMARK                         _______ _______ _______ _____ _____    ______ ____
ROOT
ATOM      1  C   UNL     1       8.716   5.649   0.258  0.00  0.00    +0.017 C 
ATOM      2  C   UNL     1       9.146   4.716   1.421  0.00  0.00    +0.025 C 
ATOM      3  C   UNL     1       8.436   5.336   2.643  0.00  0.00    +0.088 C 
ATOM      4  N   UNL     1       8.153   6.745   2.316  0.00  0.00    -0.298 NA
ATOM      5  C   UNL     1       8.676   7.028   0.962  0.00  0.00    +0.085 C 
ATOM      6  C   UNL     1       6.713   7.025   2.394  0.00  0.00    +0.105 C 
ENDROOT
BRANCH   3   7
ATOM      7  C   UNL     1       9.334   5.259   3.851  0.00  0.00    -0.012 A 
ATOM      8  C   UNL     1       9.361   6.292   4.769  0.00  0.00    +0.115 A 
ATOM      9  N   UNL     1      10.144   6.233   5.828  0.00  0.00    -0.263 NA
ATOM     10  C   UNL     1      10.927   5.196   6.054  0.00  0.00    +0.111 A 
ATOM     11  C   UNL     1      10.954   4.125   5.180  0.00  0.00    +0.020 A 
ATOM     12  C   UNL     1      10.140   4.150   4.058  0.00  0.00    +0.008 A 
ENDBRANCH   3   7
TORSDOF 1
ENDMDL
MODEL 7
REMARK VINA RESULT:    -1.282      1.459      4.171
REMARK INTER + INTRA:          -1.564
REMARK INTER:                  -1.351
REMARK INTRA:                  -0.213
REMARK UNBOUND:                -0.206
REMARK  Name = Nicotine.pdb
REMARK  2 active torsions:
REMARK  status: ('A' for Active; 'I' for Inactive)
REMARK    1  A    between atoms: C_3  and  C_6
REMARK    2  A    between atoms: N_4  and  C_12
REMARK                            x       y       z     vdW  Elec       q    Type
REMARK                         _______ _______ _______ _____ _____    ______ ____
ROOT
ATOM      1  C   UNL     1       7.859   7.028   1.582  0.00  0.00    +0.017 C 
ATOM      2  C   UNL     1       8.445   6.464   2.904  0.00  0.00    +0.025 C 
ATOM      3  C   UNL     1       9.879   6.059   2.502  0.00  0.00    +0.088 C 
ATOM      4  N   UNL     1       9.885   5.864   1.041  0.00  0.00    -0.298 NA
ATOM      5  C   UNL     1       8.520   6.105   0.528  0.00  0.00    +0.085 C 
ATOM      6  C   UNL     1      10.856   6.757   0.394  0.00  0.00    +0.105 C 
ENDROOT
BRANCH   3   7
ATOM      7  C   UNL     1      10.262   4.776   3.193  0.00  0.00    -0.012 A 
ATOM      8  C   UNL     1      10.445   4.748   4.563  0.00  0.00    +0.115 A 
ATOM      9  N   UNL     1      10.780   3.630   5.176  0.00  0.00    -0.263 NA
ATOM     10  C   UNL     1      10.954   2.502   4.515  0.00  0.00    +0.111 A 
ATOM     11  C   UNL     1      10.787   2.453   3.143  0.00  0.00    +0.020 A 
ATOM     12  C   UNL     1      10.430   3.609   2.465  0.00  0.00    +0.008 A 
ENDBRANCH   3   7
TORSDOF 1
ENDMDL
MODEL 8
REMARK VINA RESULT:    -1.212      1.431      4.405
REMARK INTER + INTRA:          -1.490
REMARK INTER:                  -1.285
REMARK INTRA:                  -0.205
REMARK UNBOUND:                -0.206
REMARK  Name = Nicotine.pdb
REMARK  2 active torsions:
REMARK  status: ('A' for Active; 'I' for Inactive)
REMARK    1  A    between atoms: C_3  and  C_6
REMARK    2  A    between atoms: N_4  and  C_12
REMARK                            x       y       z     vdW  Elec       q    Type
REMARK                         _______ _______ _______ _____ _____    ______ ____
ROOT
ATOM      1  C   UNL     1       7.978   6.890   0.996  0.00  0.00    +0.017 C 
ATOM      2  C   UNL     1       8.560   6.937   2.433  0.00  0.00    +0.025 C 
ATOM      3  C   UNL     1       9.977   6.354   2.253  0.00  0.00    +0.088 C 
ATOM      4  N   UNL     1       9.964   5.545   1.021  0.00  0.00    -0.298 NA
ATOM      5  C   UNL     1       8.601   5.582   0.448  0.00  0.00    +0.085 C 
ATOM      6  C   UNL     1      10.954   6.039   0.055  0.00  0.00    +0.105 C 
ENDROOT
BRANCH   3   7
ATOM      7  C   UNL     1      10.329   5.486   3.433  0.00  0.00    -0.012 A 
ATOM      8  C   UNL     1      10.357   4.111   3.306  0.00  0.00    +0.115 A 
ATOM      9  N   UNL     1      10.664   3.344   4.334  0.00  0.00    -0.263 NA
ATOM     10  C   UNL     1      10.953   3.852   5.516  0.00  0.00    +0.111 A 
ATOM     11  C   UNL     1      10.946   5.219   5.719  0.00  0.00    +0.020 A 
ATOM     12  C   UNL     1      10.633   6.057   4.660  0.00  0.00    +0.008 A 
ENDBRANCH   3   7
TORSDOF 1
ENDMDL
MODEL 9
REMARK VINA RESULT:    -0.045      1.952      4.548
REMARK INTER + INTRA:          -0.254
REMARK INTER:                  -0.040
REMARK INTRA:                  -0.215
REMARK UNBOUND:                -0.206
REMARK  Name = Nicotine.pdb
REMARK  2 active torsions:
REMARK  status: ('A' for Active; 'I' for Inactive)
REMARK    1  A    between atoms: C_3  and  C_6
REMARK    2  A    between atoms: N_4  and  C_12
REMARK                            x       y       z     vdW  Elec       q    Type
REMARK                         _______ _______ _______ _____ _____    ______ ____
ROOT
ATOM      1  C   UNL     1       9.057   5.929   0.557  0.00  0.00    +0.017 C 
ATOM      2  C   UNL     1       8.678   4.742   1.481  0.00  0.00    +0.025 C 
ATOM      3  C   UNL     1       9.647   4.908   2.672  0.00  0.00    +0.088 C 
ATOM      4  N   UNL     1      10.793   5.702   2.196  0.00  0.00    -0.298 NA
ATOM      5  C   UNL     1      10.590   6.011   0.764  0.00  0.00    +0.085 C 
ATOM      6  C   UNL     1      10.947   6.932   2.984  0.00  0.00    +0.105 C 
ENDROOT
BRANCH   3   7
ATOM      7  C   UNL     1      10.118   3.556   3.142  0.00  0.00    -0.012 A 
ATOM      8  C   UNL     1      10.146   2.484   2.270  0.00  0.00    +0.115 A 
ATOM      9  N   UNL     1      10.557   1.297   2.673  0.00  0.00    -0.263 NA
ATOM     10  C   UNL     1      10.954   1.085   3.912  0.00  0.00    +0.111 A 
ATOM     11  C   UNL     1      10.954   2.110   4.840  0.00  0.00    +0.020 A 
ATOM     12  C   UNL     1      10.534   3.372   4.452  0.00  0.00    +0.008 A 
ENDBRANCH   3   7
TORSDOF 1
ENDMDL
