MODEL 1
REMARK VINA RESULT:    -2.795      0.000      0.000
REMARK INTER + INTRA:          -3.202
REMARK INTER:                  -2.958
REMARK INTRA:                  -0.244
REMARK UNBOUND:                -0.244
REMARK  Name = Nicotine.pdb
REMARK  2 active torsions:
REMARK  status: ('A' for Active; 'I' for Inactive)
REMARK    1  A    between atoms: C_3  and  C_6
REMARK    2  A    between atoms: N_4  and  C_12
REMARK                            x       y       z     vdW  Elec       q    Type
REMARK                         _______ _______ _______ _____ _____    ______ ____
ROOT
ATOM      1  C   UNL     1       1.661  -2.917  -7.072  0.00  0.00    +0.017 C 
ATOM      2  C   UNL     1       3.192  -2.694  -7.186  0.00  0.00    +0.025 C 
ATOM      3  C   UNL     1       3.774  -4.069  -6.796  0.00  0.00    +0.088 C 
ATOM      4  N   UNL     1       2.749  -4.767  -5.999  0.00  0.00    -0.298 NA
ATOM      5  C   UNL     1       1.575  -3.878  -5.860  0.00  0.00    +0.085 C 
ATOM      6  C   UNL     1       2.373  -6.041  -6.624  0.00  0.00    +0.105 C 
ENDROOT
BRANCH   3   7
ATOM      7  C   UNL     1       5.024  -3.883  -5.975  0.00  0.00    -0.012 A 
ATOM      8  C   UNL     1       5.763  -4.978  -5.568  0.00  0.00    +0.115 A 
ATOM      9  N   UNL     1       6.858  -4.824  -4.850  0.00  0.00    -0.263 NA
ATOM     10  C   UNL     1       7.290  -3.630  -4.492  0.00  0.00    +0.111 A 
ATOM     11  C   UNL     1       6.603  -2.489  -4.863  0.00  0.00    +0.020 A 
ATOM     12  C   UNL     1       5.450  -2.611  -5.623  0.00  0.00    +0.008 A 
ENDBRANCH   3   7
TORSDOF 1
ENDMDL
MODEL 2
REMARK VINA RESULT:    -2.792      1.625      4.331
REMARK INTER + INTRA:          -3.199
REMARK INTER:                  -2.969
REMARK INTRA:                  -0.231
REMARK UNBOUND:                -0.244
REMARK  Name = Nicotine.pdb
REMARK  2 active torsions:
REMARK  status: ('A' for Active; 'I' for Inactive)
REMARK    1  A    between atoms: C_3  and  C_6
REMARK    2  A    between atoms: N_4  and  C_12
REMARK                            x       y       z     vdW  Elec       q    Type
REMARK                         _______ _______ _______ _____ _____    ______ ____
ROOT
ATOM      1  C   UNL     1       7.633  -1.685  -5.689  0.00  0.00    +0.017 C 
ATOM      2  C   UNL     1       6.463  -2.382  -4.945  0.00  0.00    +0.025 C 
ATOM      3  C   UNL     1       6.372  -3.752  -5.649  0.00  0.00    +0.088 C 
ATOM      4  N   UNL     1       6.993  -3.603  -6.978  0.00  0.00    -0.298 NA
ATOM      5  C   UNL     1       7.437  -2.202  -7.136  0.00  0.00    +0.085 C 
ATOM      6  C   UNL     1       8.116  -4.535  -7.142  0.00  0.00    +0.105 C 
ENDROOT
BRANCH   3   7
ATOM      7  C   UNL     1       4.929  -4.158  -5.798  0.00  0.00    -0.012 A 
ATOM      8  C   UNL     1       4.504  -5.401  -5.368  0.00  0.00    +0.115 A 
ATOM      9  N   UNL     1       3.242  -5.764  -5.495  0.00  0.00    -0.263 NA
ATOM     10  C   UNL     1       2.342  -4.964  -6.031  0.00  0.00    +0.111 A 
ATOM     11  C   UNL     1       2.693  -3.706  -6.483  0.00  0.00    +0.020 A 
ATOM     12  C   UNL     1       4.009  -3.288  -6.362  0.00  0.00    +0.008 A 
ENDBRANCH   3   7
TORSDOF 1
ENDMDL
MODEL 3
REMARK VINA RESULT:    -2.695      1.412      4.720
REMARK INTER + INTRA:          -3.097
REMARK INTER:                  -2.878
REMARK INTRA:                  -0.218
REMARK UNBOUND:                -0.244
REMARK  Name = Nicotine.pdb
REMARK  2 active torsions:
REMARK  status: ('A' for Active; 'I' for Inactive)
REMARK    1  A    between atoms: C_3  and  C_6
REMARK    2  A    between atoms: N_4  and  C_12
REMARK                            x       y       z     vdW  Elec       q    Type
REMARK                         _______ _______ _______ _____ _____    ______ ____
ROOT
ATOM      1  C   UNL     1       7.122  -3.761  -4.649  0.00  0.00    +0.017 C 
ATOM      2  C   UNL     1       6.033  -4.582  -5.388  0.00  0.00    +0.025 C 
ATOM      3  C   UNL     1       5.487  -3.580  -6.426  0.00  0.00    +0.088 C 
ATOM      4  N   UNL     1       5.801  -2.226  -5.934  0.00  0.00    -0.298 NA
ATOM      5  C   UNL     1       6.490  -2.347  -4.631  0.00  0.00    +0.085 C 
ATOM      6  C   UNL     1       6.626  -1.492  -6.901  0.00  0.00    +0.105 C 
ENDROOT
BRANCH   3   7
ATOM      7  C   UNL     1       3.996  -3.744  -6.563  0.00  0.00    -0.012 A 
ATOM      8  C   UNL     1       3.229  -2.735  -7.115  0.00  0.00    +0.115 A 
ATOM      9  N   UNL     1       1.923  -2.871  -7.238  0.00  0.00    -0.263 NA
ATOM     10  C   UNL     1       1.299  -3.963  -6.844  0.00  0.00    +0.111 A 
ATOM     11  C   UNL     1       2.000  -5.015  -6.282  0.00  0.00    +0.020 A 
ATOM     12  C   UNL     1       3.375  -4.910  -6.142  0.00  0.00    +0.008 A 
ENDBRANCH   3   7
TORSDOF 1
ENDMDL
MODEL 4
REMARK VINA RESULT:    -2.627      2.767      4.359
REMARK INTER + INTRA:          -3.025
REMARK INTER:                  -2.784
REMARK INTRA:                  -0.241
REMARK UNBOUND:                -0.244
REMARK  Name = Nicotine.pdb
REMARK  2 active torsions:
REMARK  status: ('A' for Active; 'I' for Inactive)
REMARK    1  A    between atoms: C_3  and  C_6
REMARK    2  A    between atoms: N_4  and  C_12
REMARK                            x       y       z     vdW  Elec       q    Type
REMARK                         _______ _______ _______ _____ _____    ______ ____
ROOT
ATOM      1  C   UNL     1       6.485  -4.879  -4.938  0.00  0.00    +0.017 C 
ATOM      2  C   UNL     1       7.117  -3.510  -4.572  0.00  0.00    +0.025 C 
ATOM      3  C   UNL     1       6.275  -2.509  -5.391  0.00  0.00    +0.088 C 
ATOM      4  N   UNL     1       5.668  -3.258  -6.506  0.00  0.00    -0.298 NA
ATOM      5  C   UNL     1       6.116  -4.664  -6.427  0.00  0.00    +0.085 C 
ATOM      6  C   UNL     1       4.203  -3.168  -6.466  0.00  0.00    +0.105 C 
ENDROOT
BRANCH   3   7
ATOM      7  C   UNL     1       7.160  -1.414  -5.928  0.00  0.00    -0.012 A 
ATOM      8  C   UNL     1       6.622  -0.386  -6.679  0.00  0.00    +0.115 A 
ATOM      9  N   UNL     1       7.389   0.577  -7.153  0.00  0.00    -0.263 NA
ATOM     10  C   UNL     1       8.689   0.598  -6.933  0.00  0.00    +0.111 A 
ATOM     11  C   UNL     1       9.298  -0.396  -6.191  0.00  0.00    +0.020 A 
ATOM     12  C   UNL     1       8.522  -1.421  -5.672  0.00  0.00    +0.008 A 
ENDBRANCH   3   7
TORSDOF 1
ENDMDL
MODEL 5
REMARK VINA RESULT:    -2.570      1.845      4.916
REMARK INTER + INTRA:          -2.965
REMARK INTER:                  -2.761
REMARK INTRA:                  -0.203
REMARK UNBOUND:                -0.244
REMARK  Name = Nicotine.pdb
REMARK  2 active torsions:
REMARK  status: ('A' for Active; 'I' for Inactive)
REMARK    1  A    between atoms: C_3  and  C_6
REMARK    2  A    between atoms: N_4  and  C_12
REMARK                            x       y       z     vdW  Elec       q    Type
REMARK                         _______ _______ _______ _____ _____    ______ ____
ROOT
ATOM      1  C   UNL     1       8.400  -1.156  -5.970  0.00  0.00    +0.017 C 
ATOM      2  C   UNL     1       7.048  -1.615  -5.362  0.00  0.00    +0.025 C 
ATOM      3  C   UNL     1       7.317  -3.089  -4.992  0.00  0.00    +0.088 C 
ATOM      4  N   UNL     1       8.444  -3.549  -5.822  0.00  0.00    -0.298 NA
ATOM      5  C   UNL     1       8.865  -2.439  -6.702  0.00  0.00    +0.085 C 
ATOM      6  C   UNL     1       9.560  -4.012  -4.986  0.00  0.00    +0.105 C 
ENDROOT
BRANCH   3   7
ATOM      7  C   UNL     1       6.093  -3.920  -5.279  0.00  0.00    -0.012 A 
ATOM      8  C   UNL     1       4.958  -3.335  -5.806  0.00  0.00    +0.115 A 
ATOM      9  N   UNL     1       3.883  -4.055  -6.060  0.00  0.00    -0.263 NA
ATOM     10  C   UNL     1       3.846  -5.352  -5.825  0.00  0.00    +0.111 A 
ATOM     11  C   UNL     1       4.944  -6.007  -5.298  0.00  0.00    +0.020 A 
ATOM     12  C   UNL     1       6.094  -5.283  -5.023  0.00  0.00    +0.008 A 
ENDBRANCH   3   7
TORSDOF 1
ENDMDL
MODEL 6
REMARK VINA RESULT:    -2.485      3.464      4.805
REMARK INTER + INTRA:          -2.875
REMARK INTER:                  -2.660
REMARK INTRA:                  -0.215
REMARK UNBOUND:                -0.244
REMARK  Name = Nicotine.pdb
REMARK  2 active torsions:
REMARK  status: ('A' for Active; 'I' for Inactive)
REMARK    1  A    between atoms: C_3  and  C_6
REMARK    2  A    between atoms: N_4  and  C_12
REMARK                            x       y       z     vdW  Elec       q    Type
REMARK                         _______ _______ _______ _____ _____    ______ ____
ROOT
ATOM      1  C   UNL     1       6.442  -6.016  -5.146  0.00  0.00    +0.017 C 
ATOM      2  C   UNL     1       6.694  -4.878  -6.170  0.00  0.00    +0.025 C 
ATOM      3  C   UNL     1       8.031  -4.272  -5.693  0.00  0.00    +0.088 C 
ATOM      4  N   UNL     1       8.186  -4.622  -4.270  0.00  0.00    -0.298 NA
ATOM      5  C   UNL     1       6.999  -5.392  -3.842  0.00  0.00    +0.085 C 
ATOM      6  C   UNL     1       9.420  -5.387  -4.047  0.00  0.00    +0.105 C 
ENDROOT
BRANCH   3   7
ATOM      7  C   UNL     1       8.000  -2.774  -5.854  0.00  0.00    -0.012 A 
ATOM      8  C   UNL     1       6.795  -2.099  -5.887  0.00  0.00    +0.115 A 
ATOM      9  N   UNL     1       6.759  -0.788  -6.027  0.00  0.00    -0.263 NA
ATOM     10  C   UNL     1       7.861  -0.073  -6.141  0.00  0.00    +0.111 A 
ATOM     11  C   UNL     1       9.104  -0.679  -6.116  0.00  0.00    +0.020 A 
ATOM     12  C   UNL     1       9.181  -2.055  -5.965  0.00  0.00    +0.008 A 
ENDBRANCH   3   7
TORSDOF 1
ENDMDL
MODEL 7
REMARK VINA RESULT:    -2.396      3.739      5.141
REMARK INTER + INTRA:          -2.780
REMARK INTER:                  -2.524
REMARK INTRA:                  -0.256
REMARK UNBOUND:                -0.244
REMARK  Name = Nicotine.pdb
REMARK  2 active torsions:
REMARK  status: ('A' for Active; 'I' for Inactive)
REMARK    1  A    between atoms: C_3  and  C_6
REMARK    2  A    between atoms: N_4  and  C_12
REMARK                            x       y       z     vdW  Elec       q    Type
REMARK                         _______ _______ _______ _____ _____    ______ ____
ROOT
ATOM      1  C   UNL     1       6.560  -5.402  -5.663  0.00  0.00    +0.017 C 
ATOM      2  C   UNL     1       7.405  -4.385  -6.475  0.00  0.00    +0.025 C 
ATOM      3  C   UNL     1       8.708  -4.283  -5.654  0.00  0.00    +0.088 C 
ATOM      4  N   UNL     1       8.392  -4.710  -4.279  0.00  0.00    -0.298 NA
ATOM      5  C   UNL     1       6.954  -5.046  -4.208  0.00  0.00    +0.085 C 
ATOM      6  C   UNL     1       9.221  -5.855  -3.879  0.00  0.00    +0.105 C 
ENDROOT
BRANCH   3   7
ATOM      7  C   UNL     1       9.201  -2.859  -5.649  0.00  0.00    -0.012 A 
ATOM      8  C   UNL     1      10.514  -2.575  -5.325  0.00  0.00    +0.115 A 
ATOM      9  N   UNL     1      10.953  -1.331  -5.319  0.00  0.00    -0.263 NA
ATOM     10  C   UNL     1      10.167  -0.317  -5.619  0.00  0.00    +0.111 A 
ATOM     11  C   UNL     1       8.841  -0.524  -5.954  0.00  0.00    +0.020 A 
ATOM     12  C   UNL     1       8.345  -1.818  -5.976  0.00  0.00    +0.008 A 
ENDBRANCH   3   7
TORSDOF 1
ENDMDL
MODEL 8
REMARK VINA RESULT:    -2.308      2.297      5.032
REMARK INTER + INTRA:          -2.688
REMARK INTER:                  -2.487
REMARK INTRA:                  -0.200
REMARK UNBOUND:                -0.244
REMARK  Name = Nicotine.pdb
REMARK  2 active torsions:
REMARK  status: ('A' for Active; 'I' for Inactive)
REMARK    1  A    between atoms: C_3  and  C_6
REMARK    2  A    between atoms: N_4  and  C_12
REMARK                            x       y       z     vdW  Elec       q    Type
REMARK                         _______ _______ _______ _____ _____    ______ ____
ROOT
ATOM      1  C   UNL     1       8.008  -0.143  -6.657  0.00  0.00    +0.017 C 
ATOM      2  C   UNL     1       6.900  -0.855  -5.837  0.00  0.00    +0.025 C 
ATOM      3  C   UNL     1       7.619  -2.111  -5.301  0.00  0.00    +0.088 C 
ATOM      4  N   UNL     1       8.770  -2.368  -6.186  0.00  0.00    -0.298 NA
ATOM      5  C   UNL     1       8.779  -1.346  -7.255  0.00  0.00    +0.085 C 
ATOM      6  C   UNL     1      10.029  -2.352  -5.431  0.00  0.00    +0.105 C 
ENDROOT
BRANCH   3   7
ATOM      7  C   UNL     1       6.680  -3.289  -5.325  0.00  0.00    -0.012 A 
ATOM      8  C   UNL     1       5.376  -3.135  -5.755  0.00  0.00    +0.115 A 
ATOM      9  N   UNL     1       4.547  -4.160  -5.779  0.00  0.00    -0.263 NA
ATOM     10  C   UNL     1       4.924  -5.365  -5.397  0.00  0.00    +0.111 A 
ATOM     11  C   UNL     1       6.213  -5.596  -4.955  0.00  0.00    +0.020 A 
ATOM     12  C   UNL     1       7.114  -4.543  -4.921  0.00  0.00    +0.008 A 
ENDBRANCH   3   7
TORSDOF 1
ENDMDL
MODEL 9
REMARK VINA RESULT:    -2.129      2.766      3.988
REMARK INTER + INTRA:          -2.498
REMARK INTER:                  -2.271
REMARK INTRA:                  -0.227
REMARK UNBOUND:                -0.244
REMARK  Name = Nicotine.pdb
REMARK  2 active torsions:
REMARK  status: ('A' for Active; 'I' for Inactive)
REMARK    1  A    between atoms: C_3  and  C_6
REMARK    2  A    between atoms: N_4  and  C_12
REMARK                            x       y       z     vdW  Elec       q    Type
REMARK                         _______ _______ _______ _____ _____    ______ ____
ROOT
ATOM      1  C   UNL     1       5.015  -2.727  -6.885  0.00  0.00    +0.017 C 
ATOM      2  C   UNL     1       6.319  -1.946  -7.200  0.00  0.00    +0.025 C 
ATOM      3  C   UNL     1       7.421  -3.001  -6.962  0.00  0.00    +0.088 C 
ATOM      4  N   UNL     1       6.857  -4.027  -6.067  0.00  0.00    -0.298 NA
ATOM      5  C   UNL     1       5.472  -3.642  -5.722  0.00  0.00    +0.085 C 
ATOM      6  C   UNL     1       6.895  -5.354  -6.696  0.00  0.00    +0.105 C 
ENDROOT
BRANCH   3   7
ATOM      7  C   UNL     1       8.617  -2.354  -6.315  0.00  0.00    -0.012 A 
ATOM      8  C   UNL     1       9.645  -3.130  -5.812  0.00  0.00    +0.115 A 
ATOM      9  N   UNL     1      10.696  -2.573  -5.244  0.00  0.00    -0.263 NA
ATOM     10  C   UNL     1      10.810  -1.264  -5.132  0.00  0.00    +0.111 A 
ATOM     11  C   UNL     1       9.823  -0.424  -5.611  0.00  0.00    +0.020 A 
ATOM     12  C   UNL     1       8.705  -0.974  -6.220  0.00  0.00    +0.008 A 
ENDBRANCH   3   7
TORSDOF 1
ENDMDL
MODEL 10
REMARK VINA RESULT:    -2.053      2.576      4.014
REMARK INTER + INTRA:          -2.417
REMARK INTER:                  -2.195
REMARK INTRA:                  -0.222
REMARK UNBOUND:                -0.244
REMARK  Name = Nicotine.pdb
REMARK  2 active torsions:
REMARK  status: ('A' for Active; 'I' for Inactive)
REMARK    1  A    between atoms: C_3  and  C_6
REMARK    2  A    between atoms: N_4  and  C_12
REMARK                            x       y       z     vdW  Elec       q    Type
REMARK                         _______ _______ _______ _____ _____    ______ ____
ROOT
ATOM      1  C   UNL     1       6.304  -1.910  -6.679  0.00  0.00    +0.017 C 
ATOM      2  C   UNL     1       7.739  -2.501  -6.675  0.00  0.00    +0.025 C 
ATOM      3  C   UNL     1       7.540  -3.890  -6.032  0.00  0.00    +0.088 C 
ATOM      4  N   UNL     1       6.294  -3.834  -5.247  0.00  0.00    -0.298 NA
ATOM      5  C   UNL     1       5.731  -2.471  -5.354  0.00  0.00    +0.085 C 
ATOM      6  C   UNL     1       5.332  -4.840  -5.712  0.00  0.00    +0.105 C 
ENDROOT
BRANCH   3   7
ATOM      7  C   UNL     1       8.704  -4.208  -5.129  0.00  0.00    -0.012 A 
ATOM      8  C   UNL     1       8.618  -5.242  -4.216  0.00  0.00    +0.115 A 
ATOM      9  N   UNL     1       9.631  -5.528  -3.422  0.00  0.00    -0.263 NA
ATOM     10  C   UNL     1      10.758  -4.845  -3.465  0.00  0.00    +0.111 A 
ATOM     11  C   UNL     1      10.918  -3.797  -4.352  0.00  0.00    +0.020 A 
ATOM     12  C   UNL     1       9.876  -3.471  -5.207  0.00  0.00    +0.008 A 
ENDBRANCH   3   7
TORSDOF 1
ENDMDL
