MODEL 1
REMARK VINA RESULT:    -0.669      0.000      0.000
REMARK INTER + INTRA:          -0.925
REMARK INTER:                  -0.708
REMARK INTRA:                  -0.217
REMARK UNBOUND:                -0.217
REMARK  Name = Nicotine.pdb
REMARK  2 active torsions:
REMARK  status: ('A' for Active; 'I' for Inactive)
REMARK    1  A    between atoms: C_3  and  C_6
REMARK    2  A    between atoms: N_4  and  C_12
REMARK                            x       y       z     vdW  Elec       q    Type
REMARK                         _______ _______ _______ _____ _____    ______ ____
ROOT
ATOM      1  C   UNL     1       5.960  -3.426   1.932  0.00  0.00    +0.017 C 
ATOM      2  C   UNL     1       7.309  -4.191   1.894  0.00  0.00    +0.025 C 
ATOM      3  C   UNL     1       7.213  -5.126   3.118  0.00  0.00    +0.088 C 
ATOM      4  N   UNL     1       6.227  -4.537   4.042  0.00  0.00    -0.298 NA
ATOM      5  C   UNL     1       5.731  -3.273   3.457  0.00  0.00    +0.085 C 
ATOM      6  C   UNL     1       5.121  -5.469   4.297  0.00  0.00    +0.105 C 
ENDROOT
BRANCH   3   7
ATOM      7  C   UNL     1       8.556  -5.224   3.795  0.00  0.00    -0.012 A 
ATOM      8  C   UNL     1       8.647  -5.631   5.113  0.00  0.00    +0.115 A 
ATOM      9  N   UNL     1       9.818  -5.720   5.713  0.00  0.00    -0.263 NA
ATOM     10  C   UNL     1      10.941  -5.427   5.087  0.00  0.00    +0.111 A 
ATOM     11  C   UNL     1      10.929  -5.014   3.767  0.00  0.00    +0.020 A 
ATOM     12  C   UNL     1       9.716  -4.914   3.103  0.00  0.00    +0.008 A 
ENDBRANCH   3   7
TORSDOF 1
ENDMDL
MODEL 2
REMARK VINA RESULT:     0.846      1.230      4.296
REMARK INTER + INTRA:           0.679
REMARK INTER:                   0.905
REMARK INTRA:                  -0.226
REMARK UNBOUND:                -0.217
REMARK  Name = Nicotine.pdb
REMARK  2 active torsions:
REMARK  status: ('A' for Active; 'I' for Inactive)
REMARK    1  A    between atoms: C_3  and  C_6
REMARK    2  A    between atoms: N_4  and  C_12
REMARK                            x       y       z     vdW  Elec       q    Type
REMARK                         _______ _______ _______ _____ _____    ______ ____
ROOT
ATOM      1  C   UNL     1      10.953  -4.817   2.562  0.00  0.00    +0.017 C 
ATOM      2  C   UNL     1       9.641  -4.009   2.379  0.00  0.00    +0.025 C 
ATOM      3  C   UNL     1       8.844  -4.350   3.656  0.00  0.00    +0.088 C 
ATOM      4  N   UNL     1       9.372  -5.624   4.174  0.00  0.00    -0.298 NA
ATOM      5  C   UNL     1      10.438  -6.097   3.265  0.00  0.00    +0.085 C 
ATOM      6  C   UNL     1       9.879  -5.467   5.544  0.00  0.00    +0.105 C 
ENDROOT
BRANCH   3   7
ATOM      7  C   UNL     1       7.382  -4.497   3.323  0.00  0.00    -0.012 A 
ATOM      8  C   UNL     1       6.500  -5.009   4.256  0.00  0.00    +0.115 A 
ATOM      9  N   UNL     1       5.219  -5.141   3.973  0.00  0.00    -0.263 NA
ATOM     10  C   UNL     1       4.729  -4.793   2.800  0.00  0.00    +0.111 A 
ATOM     11  C   UNL     1       5.550  -4.272   1.817  0.00  0.00    +0.020 A 
ATOM     12  C   UNL     1       6.902  -4.114   2.080  0.00  0.00    +0.008 A 
ENDBRANCH   3   7
TORSDOF 1
ENDMDL
MODEL 3
REMARK VINA RESULT:     1.436      1.462      2.352
REMARK INTER + INTRA:           1.304
REMARK INTER:                   1.523
REMARK INTRA:                  -0.219
REMARK UNBOUND:                -0.217
REMARK  Name = Nicotine.pdb
REMARK  2 active torsions:
REMARK  status: ('A' for Active; 'I' for Inactive)
REMARK    1  A    between atoms: C_3  and  C_6
REMARK    2  A    between atoms: N_4  and  C_12
REMARK                            x       y       z     vdW  Elec       q    Type
REMARK                         _______ _______ _______ _____ _____    ______ ____
ROOT
ATOM      1  C   UNL     1       4.512  -5.035   3.421  0.00  0.00    +0.017 C 
ATOM      2  C   UNL     1       5.771  -5.319   4.283  0.00  0.00    +0.025 C 
ATOM      3  C   UNL     1       6.758  -4.223   3.826  0.00  0.00    +0.088 C 
ATOM      4  N   UNL     1       6.331  -3.781   2.487  0.00  0.00    -0.298 NA
ATOM      5  C   UNL     1       5.145  -4.569   2.087  0.00  0.00    +0.085 C 
ATOM      6  C   UNL     1       6.037  -2.343   2.475  0.00  0.00    +0.105 C 
ENDROOT
BRANCH   3   7
ATOM      7  C   UNL     1       8.154  -4.786   3.761  0.00  0.00    -0.012 A 
ATOM      8  C   UNL     1       8.976  -4.496   2.689  0.00  0.00    +0.115 A 
ATOM      9  N   UNL     1      10.199  -4.984   2.624  0.00  0.00    -0.263 NA
ATOM     10  C   UNL     1      10.685  -5.763   3.570  0.00  0.00    +0.111 A 
ATOM     11  C   UNL     1       9.922  -6.097   4.674  0.00  0.00    +0.020 A 
ATOM     12  C   UNL     1       8.633  -5.598   4.779  0.00  0.00    +0.008 A 
ENDBRANCH   3   7
TORSDOF 1
ENDMDL
