MODEL 1
REMARK VINA RESULT:     0.000      0.000      0.000
REMARK INTER + INTRA:          -0.256
REMARK INTER:                   0.000
REMARK INTRA:                  -0.256
REMARK UNBOUND:                -0.256
REMARK  Name = Nicotine.pdb
REMARK  2 active torsions:
REMARK  status: ('A' for Active; 'I' for Inactive)
REMARK    1  A    between atoms: C_3  and  C_6
REMARK    2  A    between atoms: N_4  and  C_12
REMARK                            x       y       z     vdW  Elec       q    Type
REMARK                         _______ _______ _______ _____ _____    ______ ____
ROOT
ATOM      1  C   UNL     1       3.233   2.057  -0.842  0.00  0.00    +0.017 C 
ATOM      2  C   UNL     1       1.834   1.392  -0.929  0.00  0.00    +0.025 C 
ATOM      3  C   UNL     1       1.197   2.083  -2.153  0.00  0.00    +0.088 C 
ATOM      4  N   UNL     1       1.899   3.365  -2.345  0.00  0.00    -0.298 NA
ATOM      5  C   UNL     1       2.918   3.507  -1.284  0.00  0.00    +0.085 C 
ATOM      6  C   UNL     1       2.511   3.437  -3.678  0.00  0.00    +0.105 C 
ENDROOT
BRANCH   3   7
ATOM      7  C   UNL     1      -0.267   2.332  -1.897  0.00  0.00    -0.012 A 
ATOM      8  C   UNL     1      -1.139   2.522  -2.953  0.00  0.00    +0.115 A 
ATOM      9  N   UNL     1      -2.421   2.740  -2.738  0.00  0.00    -0.263 NA
ATOM     10  C   UNL     1      -2.922   2.785  -1.519  0.00  0.00    +0.111 A 
ATOM     11  C   UNL     1      -2.111   2.604  -0.414  0.00  0.00    +0.020 A 
ATOM     12  C   UNL     1      -0.758   2.367  -0.601  0.00  0.00    +0.008 A 
ENDBRANCH   3   7
TORSDOF 1
ENDMDL
MODEL 2
REMARK VINA RESULT:     0.000      3.623      5.104
REMARK INTER + INTRA:          -0.256
REMARK INTER:                   0.000
REMARK INTRA:                  -0.256
REMARK UNBOUND:                -0.256
REMARK  Name = Nicotine.pdb
REMARK  2 active torsions:
REMARK  status: ('A' for Active; 'I' for Inactive)
REMARK    1  A    between atoms: C_3  and  C_6
REMARK    2  A    between atoms: N_4  and  C_12
REMARK                            x       y       z     vdW  Elec       q    Type
REMARK                         _______ _______ _______ _____ _____    ______ ____
ROOT
ATOM      1  C   UNL     1       2.526   0.572  -6.848  0.00  0.00    +0.017 C 
ATOM      2  C   UNL     1       3.330   0.330  -5.544  0.00  0.00    +0.025 C 
ATOM      3  C   UNL     1       2.271  -0.259  -4.588  0.00  0.00    +0.088 C 
ATOM      4  N   UNL     1       0.950   0.159  -5.088  0.00  0.00    -0.298 NA
ATOM      5  C   UNL     1       1.145   0.998  -6.290  0.00  0.00    +0.085 C 
ATOM      6  C   UNL     1       0.107  -1.005  -5.389  0.00  0.00    +0.105 C 
ENDROOT
BRANCH   3   7
ATOM      7  C   UNL     1       2.486   0.273  -3.195  0.00  0.00    -0.012 A 
ATOM      8  C   UNL     1       1.982  -0.406  -2.101  0.00  0.00    +0.115 A 
ATOM      9  N   UNL     1       2.165   0.053  -0.879  0.00  0.00    -0.263 NA
ATOM     10  C   UNL     1       2.829   1.168  -0.649  0.00  0.00    +0.111 A 
ATOM     11  C   UNL     1       3.363   1.901  -1.693  0.00  0.00    +0.020 A 
ATOM     12  C   UNL     1       3.195   1.447  -2.992  0.00  0.00    +0.008 A 
ENDBRANCH   3   7
TORSDOF 1
ENDMDL
MODEL 3
REMARK VINA RESULT:     0.000      5.835      7.056
REMARK INTER + INTRA:          -0.256
REMARK INTER:                   0.000
REMARK INTRA:                  -0.256
REMARK UNBOUND:                -0.256
REMARK  Name = Nicotine.pdb
REMARK  2 active torsions:
REMARK  status: ('A' for Active; 'I' for Inactive)
REMARK    1  A    between atoms: C_3  and  C_6
REMARK    2  A    between atoms: N_4  and  C_12
REMARK                            x       y       z     vdW  Elec       q    Type
REMARK                         _______ _______ _______ _____ _____    ______ ____
ROOT
ATOM      1  C   UNL     1      -0.353  -0.307   2.118  0.00  0.00    +0.017 C 
ATOM      2  C   UNL     1      -1.056  -0.937   0.887  0.00  0.00    +0.025 C 
ATOM      3  C   UNL     1      -2.508  -1.126   1.376  0.00  0.00    +0.088 C 
ATOM      4  N   UNL     1      -2.471  -1.161   2.849  0.00  0.00    -0.298 NA
ATOM      5  C   UNL     1      -1.066  -1.028   3.289  0.00  0.00    +0.085 C 
ATOM      6  C   UNL     1      -3.306  -0.097   3.423  0.00  0.00    +0.105 C 
ENDROOT
BRANCH   3   7
ATOM      7  C   UNL     1      -3.063  -2.422   0.845  0.00  0.00    -0.012 A 
ATOM      8  C   UNL     1      -4.429  -2.616   0.762  0.00  0.00    +0.115 A 
ATOM      9  N   UNL     1      -4.923  -3.747   0.298  0.00  0.00    -0.263 NA
ATOM     10  C   UNL     1      -4.143  -4.731  -0.102  0.00  0.00    +0.111 A 
ATOM     11  C   UNL     1      -2.767  -4.610  -0.049  0.00  0.00    +0.020 A 
ATOM     12  C   UNL     1      -2.211  -3.433   0.428  0.00  0.00    +0.008 A 
ENDBRANCH   3   7
TORSDOF 1
ENDMDL
MODEL 4
REMARK VINA RESULT:     0.000      3.524      5.638
REMARK INTER + INTRA:          -0.256
REMARK INTER:                   0.000
REMARK INTRA:                  -0.256
REMARK UNBOUND:                -0.256
REMARK  Name = Nicotine.pdb
REMARK  2 active torsions:
REMARK  status: ('A' for Active; 'I' for Inactive)
REMARK    1  A    between atoms: C_3  and  C_6
REMARK    2  A    between atoms: N_4  and  C_12
REMARK                            x       y       z     vdW  Elec       q    Type
REMARK                         _______ _______ _______ _____ _____    ______ ____
ROOT
ATOM      1  C   UNL     1      -4.040   1.045  -4.601  0.00  0.00    +0.017 C 
ATOM      2  C   UNL     1      -3.504   2.021  -5.680  0.00  0.00    +0.025 C 
ATOM      3  C   UNL     1      -2.028   2.214  -5.271  0.00  0.00    +0.088 C 
ATOM      4  N   UNL     1      -1.924   1.879  -3.839  0.00  0.00    -0.298 NA
ATOM      5  C   UNL     1      -3.268   1.514  -3.342  0.00  0.00    +0.085 C 
ATOM      6  C   UNL     1      -0.967   0.787  -3.621  0.00  0.00    +0.105 C 
ENDROOT
BRANCH   3   7
ATOM      7  C   UNL     1      -1.617   3.646  -5.495  0.00  0.00    -0.012 A 
ATOM      8  C   UNL     1      -0.282   3.978  -5.629  0.00  0.00    +0.115 A 
ATOM      9  N   UNL     1       0.086   5.229  -5.826  0.00  0.00    -0.263 NA
ATOM     10  C   UNL     1      -0.795   6.207  -5.900  0.00  0.00    +0.111 A 
ATOM     11  C   UNL     1      -2.148   5.952  -5.776  0.00  0.00    +0.020 A 
ATOM     12  C   UNL     1      -2.573   4.648  -5.574  0.00  0.00    +0.008 A 
ENDBRANCH   3   7
TORSDOF 1
ENDMDL
MODEL 5
REMARK VINA RESULT:     0.000      5.935      8.062
REMARK INTER + INTRA:          -0.256
REMARK INTER:                   0.000
REMARK INTRA:                  -0.256
REMARK UNBOUND:                -0.256
REMARK  Name = Nicotine.pdb
REMARK  2 active torsions:
REMARK  status: ('A' for Active; 'I' for Inactive)
REMARK    1  A    between atoms: C_3  and  C_6
REMARK    2  A    between atoms: N_4  and  C_12
REMARK                            x       y       z     vdW  Elec       q    Type
REMARK                         _______ _______ _______ _____ _____    ______ ____
ROOT
ATOM      1  C   UNL     1       2.796   1.081   3.901  0.00  0.00    +0.017 C 
ATOM      2  C   UNL     1       4.174   0.378   3.781  0.00  0.00    +0.025 C 
ATOM      3  C   UNL     1       5.126   1.539   3.422  0.00  0.00    +0.088 C 
ATOM      4  N   UNL     1       4.304   2.612   2.835  0.00  0.00    -0.298 NA
ATOM      5  C   UNL     1       2.897   2.159   2.793  0.00  0.00    +0.085 C 
ATOM      6  C   UNL     1       4.433   3.856   3.606  0.00  0.00    +0.105 C 
ENDROOT
BRANCH   3   7
ATOM      7  C   UNL     1       6.150   1.071   2.422  0.00  0.00    -0.012 A 
ATOM      8  C   UNL     1       7.345   1.750   2.274  0.00  0.00    +0.115 A 
ATOM      9  N   UNL     1       8.247   1.347   1.401  0.00  0.00    -0.263 NA
ATOM     10  C   UNL     1       8.050   0.290   0.639  0.00  0.00    +0.111 A 
ATOM     11  C   UNL     1       6.879  -0.441   0.731  0.00  0.00    +0.020 A 
ATOM     12  C   UNL     1       5.910  -0.050   1.641  0.00  0.00    +0.008 A 
ENDBRANCH   3   7
TORSDOF 1
ENDMDL
MODEL 6
REMARK VINA RESULT:     0.000      6.120      6.906
REMARK INTER + INTRA:          -0.256
REMARK INTER:                   0.000
REMARK INTRA:                  -0.256
REMARK UNBOUND:                -0.256
REMARK  Name = Nicotine.pdb
REMARK  2 active torsions:
REMARK  status: ('A' for Active; 'I' for Inactive)
REMARK    1  A    between atoms: C_3  and  C_6
REMARK    2  A    between atoms: N_4  and  C_12
REMARK                            x       y       z     vdW  Elec       q    Type
REMARK                         _______ _______ _______ _____ _____    ______ ____
ROOT
ATOM      1  C   UNL     1      -1.200  -2.900   2.779  0.00  0.00    +0.017 C 
ATOM      2  C   UNL     1      -1.373  -3.875   1.585  0.00  0.00    +0.025 C 
ATOM      3  C   UNL     1      -0.081  -3.658   0.769  0.00  0.00    +0.088 C 
ATOM      4  N   UNL     1       0.444  -2.328   1.129  0.00  0.00    -0.298 NA
ATOM      5  C   UNL     1      -0.475  -1.707   2.106  0.00  0.00    +0.085 C 
ATOM      6  C   UNL     1       1.804  -2.428   1.673  0.00  0.00    +0.105 C 
ENDROOT
BRANCH   3   7
ATOM      7  C   UNL     1      -0.391  -3.707  -0.704  0.00  0.00    -0.012 A 
ATOM      8  C   UNL     1       0.607  -3.978  -1.620  0.00  0.00    +0.115 A 
ATOM      9  N   UNL     1       0.344  -4.023  -2.912  0.00  0.00    -0.263 NA
ATOM     10  C   UNL     1      -0.870  -3.813  -3.379  0.00  0.00    +0.111 A 
ATOM     11  C   UNL     1      -1.920  -3.536  -2.524  0.00  0.00    +0.020 A 
ATOM     12  C   UNL     1      -1.683  -3.486  -1.159  0.00  0.00    +0.008 A 
ENDBRANCH   3   7
TORSDOF 1
ENDMDL
MODEL 7
REMARK VINA RESULT:     0.000      3.152      5.511
REMARK INTER + INTRA:          -0.256
REMARK INTER:                   0.000
REMARK INTRA:                  -0.256
REMARK UNBOUND:                -0.256
REMARK  Name = Nicotine.pdb
REMARK  2 active torsions:
REMARK  status: ('A' for Active; 'I' for Inactive)
REMARK    1  A    between atoms: C_3  and  C_6
REMARK    2  A    between atoms: N_4  and  C_12
REMARK                            x       y       z     vdW  Elec       q    Type
REMARK                         _______ _______ _______ _____ _____    ______ ____
ROOT
ATOM      1  C   UNL     1       1.092   3.086  -0.667  0.00  0.00    +0.017 C 
ATOM      2  C   UNL     1       2.011   1.976  -1.241  0.00  0.00    +0.025 C 
ATOM      3  C   UNL     1       1.463   0.694  -0.580  0.00  0.00    +0.088 C 
ATOM      4  N   UNL     1       0.744   1.105   0.640  0.00  0.00    -0.298 NA
ATOM      5  C   UNL     1       0.846   2.574   0.774  0.00  0.00    +0.085 C 
ATOM      6  C   UNL     1      -0.659   0.676   0.594  0.00  0.00    +0.105 C 
ENDROOT
BRANCH   3   7
ATOM      7  C   UNL     1       2.601  -0.225  -0.220  0.00  0.00    -0.012 A 
ATOM      8  C   UNL     1       2.377  -1.576  -0.033  0.00  0.00    +0.115 A 
ATOM      9  N   UNL     1       3.368  -2.387   0.281  0.00  0.00    -0.263 NA
ATOM     10  C   UNL     1       4.602  -1.949   0.429  0.00  0.00    +0.111 A 
ATOM     11  C   UNL     1       4.903  -0.610   0.257  0.00  0.00    +0.020 A 
ATOM     12  C   UNL     1       3.888   0.272  -0.079  0.00  0.00    +0.008 A 
ENDBRANCH   3   7
TORSDOF 1
ENDMDL
MODEL 8
REMARK VINA RESULT:     0.000      6.804      8.594
REMARK INTER + INTRA:          -0.256
REMARK INTER:                   0.000
REMARK INTRA:                  -0.256
REMARK UNBOUND:                -0.256
REMARK  Name = Nicotine.pdb
REMARK  2 active torsions:
REMARK  status: ('A' for Active; 'I' for Inactive)
REMARK    1  A    between atoms: C_3  and  C_6
REMARK    2  A    between atoms: N_4  and  C_12
REMARK                            x       y       z     vdW  Elec       q    Type
REMARK                         _______ _______ _______ _____ _____    ______ ____
ROOT
ATOM      1  C   UNL     1       9.614  -2.738  -2.321  0.00  0.00    +0.017 C 
ATOM      2  C   UNL     1       8.452  -1.731  -2.531  0.00  0.00    +0.025 C 
ATOM      3  C   UNL     1       7.212  -2.533  -2.082  0.00  0.00    +0.088 C 
ATOM      4  N   UNL     1       7.556  -3.963  -2.185  0.00  0.00    -0.298 NA
ATOM      5  C   UNL     1       8.938  -4.079  -2.699  0.00  0.00    +0.085 C 
ATOM      6  C   UNL     1       7.420  -4.633  -0.885  0.00  0.00    +0.105 C 
ENDROOT
BRANCH   3   7
ATOM      7  C   UNL     1       6.045  -2.219  -2.981  0.00  0.00    -0.012 A 
ATOM      8  C   UNL     1       4.751  -2.446  -2.551  0.00  0.00    +0.115 A 
ATOM      9  N   UNL     1       3.724  -2.174  -3.332  0.00  0.00    -0.263 NA
ATOM     10  C   UNL     1       3.886  -1.679  -4.543  0.00  0.00    +0.111 A 
ATOM     11  C   UNL     1       5.150  -1.426  -5.041  0.00  0.00    +0.020 A 
ATOM     12  C   UNL     1       6.254  -1.695  -4.247  0.00  0.00    +0.008 A 
ENDBRANCH   3   7
TORSDOF 1
ENDMDL
MODEL 9
REMARK VINA RESULT:     0.000      6.845      9.033
REMARK INTER + INTRA:          -0.256
REMARK INTER:                   0.000
REMARK INTRA:                  -0.256
REMARK UNBOUND:                -0.256
REMARK  Name = Nicotine.pdb
REMARK  2 active torsions:
REMARK  status: ('A' for Active; 'I' for Inactive)
REMARK    1  A    between atoms: C_3  and  C_6
REMARK    2  A    between atoms: N_4  and  C_12
REMARK                            x       y       z     vdW  Elec       q    Type
REMARK                         _______ _______ _______ _____ _____    ______ ____
ROOT
ATOM      1  C   UNL     1       5.094  -0.513   0.734  0.00  0.00    +0.017 C 
ATOM      2  C   UNL     1       5.866  -0.642  -0.606  0.00  0.00    +0.025 C 
ATOM      3  C   UNL     1       5.450  -2.039  -1.114  0.00  0.00    +0.088 C 
ATOM      4  N   UNL     1       4.997  -2.813   0.056  0.00  0.00    -0.298 NA
ATOM      5  C   UNL     1       5.139  -1.969   1.262  0.00  0.00    +0.085 C 
ATOM      6  C   UNL     1       3.609  -3.261  -0.113  0.00  0.00    +0.105 C 
ENDROOT
BRANCH   3   7
ATOM      7  C   UNL     1       6.628  -2.723  -1.758  0.00  0.00    -0.012 A 
ATOM      8  C   UNL     1       6.432  -3.754  -2.657  0.00  0.00    +0.115 A 
ATOM      9  N   UNL     1       7.457  -4.358  -3.225  0.00  0.00    -0.263 NA
ATOM     10  C   UNL     1       8.701  -4.007  -2.962  0.00  0.00    +0.111 A 
ATOM     11  C   UNL     1       8.975  -2.984  -2.074  0.00  0.00    +0.020 A 
ATOM     12  C   UNL     1       7.922  -2.322  -1.461  0.00  0.00    +0.008 A 
ENDBRANCH   3   7
TORSDOF 1
ENDMDL
MODEL 10
REMARK VINA RESULT:     0.000      4.854      7.552
REMARK INTER + INTRA:          -0.256
REMARK INTER:                   0.000
REMARK INTRA:                  -0.256
REMARK UNBOUND:                -0.256
REMARK  Name = Nicotine.pdb
REMARK  2 active torsions:
REMARK  status: ('A' for Active; 'I' for Inactive)
REMARK    1  A    between atoms: C_3  and  C_6
REMARK    2  A    between atoms: N_4  and  C_12
REMARK                            x       y       z     vdW  Elec       q    Type
REMARK                         _______ _______ _______ _____ _____    ______ ____
ROOT
ATOM      1  C   UNL     1       3.122   0.951  -0.703  0.00  0.00    +0.017 C 
ATOM      2  C   UNL     1       4.086   0.608  -1.869  0.00  0.00    +0.025 C 
ATOM      3  C   UNL     1       4.107  -0.935  -1.859  0.00  0.00    +0.088 C 
ATOM      4  N   UNL     1       3.699  -1.369  -0.511  0.00  0.00    -0.298 NA
ATOM      5  C   UNL     1       3.452  -0.168   0.316  0.00  0.00    +0.085 C 
ATOM      6  C   UNL     1       2.505  -2.222  -0.570  0.00  0.00    +0.105 C 
ENDROOT
BRANCH   3   7
ATOM      7  C   UNL     1       5.498  -1.430  -2.159  0.00  0.00    -0.012 A 
ATOM      8  C   UNL     1       5.696  -2.713  -2.635  0.00  0.00    +0.115 A 
ATOM      9  N   UNL     1       6.910  -3.154  -2.900  0.00  0.00    -0.263 NA
ATOM     10  C   UNL     1       7.976  -2.398  -2.724  0.00  0.00    +0.111 A 
ATOM     11  C   UNL     1       7.856  -1.105  -2.252  0.00  0.00    +0.020 A 
ATOM     12  C   UNL     1       6.595  -0.604  -1.967  0.00  0.00    +0.008 A 
ENDBRANCH   3   7
TORSDOF 1
ENDMDL
