MODEL 1
REMARK VINA RESULT:    -1.442      0.000      0.000
REMARK INTER + INTRA:          -1.782
REMARK INTER:                  -1.526
REMARK INTRA:                  -0.256
REMARK UNBOUND:                -0.256
REMARK  Name = Nicotine.pdb
REMARK  2 active torsions:
REMARK  status: ('A' for Active; 'I' for Inactive)
REMARK    1  A    between atoms: C_3  and  C_6
REMARK    2  A    between atoms: N_4  and  C_12
REMARK                            x       y       z     vdW  Elec       q    Type
REMARK                         _______ _______ _______ _____ _____    ______ ____
ROOT
ATOM      1  C   UNL     1       2.892  -5.072  -0.403  0.00  0.00    +0.017 C 
ATOM      2  C   UNL     1       3.120  -6.083   0.752  0.00  0.00    +0.025 C 
ATOM      3  C   UNL     1       1.983  -5.744   1.739  0.00  0.00    +0.088 C 
ATOM      4  N   UNL     1       1.560  -4.360   1.460  0.00  0.00    -0.298 NA
ATOM      5  C   UNL     1       2.398  -3.822   0.367  0.00  0.00    +0.085 C 
ATOM      6  C   UNL     1       0.136  -4.305   1.108  0.00  0.00    +0.105 C 
ENDROOT
BRANCH   3   7
ATOM      7  C   UNL     1       2.485  -5.853   3.156  0.00  0.00    -0.012 A 
ATOM      8  C   UNL     1       1.596  -6.001   4.203  0.00  0.00    +0.115 A 
ATOM      9  N   UNL     1       2.026  -6.097   5.446  0.00  0.00    -0.263 NA
ATOM     10  C   UNL     1       3.311  -6.055   5.739  0.00  0.00    +0.111 A 
ATOM     11  C   UNL     1       4.260  -5.909   4.744  0.00  0.00    +0.020 A 
ATOM     12  C   UNL     1       3.845  -5.811   3.425  0.00  0.00    +0.008 A 
ENDBRANCH   3   7
TORSDOF 1
ENDMDL
MODEL 2
REMARK VINA RESULT:    -1.413      1.819      2.331
REMARK INTER + INTRA:          -1.751
REMARK INTER:                  -1.568
REMARK INTRA:                  -0.184
REMARK UNBOUND:                -0.256
REMARK  Name = Nicotine.pdb
REMARK  2 active torsions:
REMARK  status: ('A' for Active; 'I' for Inactive)
REMARK    1  A    between atoms: C_3  and  C_6
REMARK    2  A    between atoms: N_4  and  C_12
REMARK                            x       y       z     vdW  Elec       q    Type
REMARK                         _______ _______ _______ _____ _____    ______ ____
ROOT
ATOM      1  C   UNL     1       1.530  -5.395   0.466  0.00  0.00    +0.017 C 
ATOM      2  C   UNL     1       2.791  -5.986   1.151  0.00  0.00    +0.025 C 
ATOM      3  C   UNL     1       2.515  -5.747   2.651  0.00  0.00    +0.088 C 
ATOM      4  N   UNL     1       1.536  -4.649   2.746  0.00  0.00    -0.298 NA
ATOM      5  C   UNL     1       1.216  -4.184   1.380  0.00  0.00    +0.085 C 
ATOM      6  C   UNL     1       0.324  -5.083   3.452  0.00  0.00    +0.105 C 
ENDROOT
BRANCH   3   7
ATOM      7  C   UNL     1       3.791  -5.360   3.352  0.00  0.00    -0.012 A 
ATOM      8  C   UNL     1       4.517  -4.263   2.928  0.00  0.00    +0.115 A 
ATOM      9  N   UNL     1       5.635  -3.917   3.537  0.00  0.00    -0.263 NA
ATOM     10  C   UNL     1       6.103  -4.597   4.564  0.00  0.00    +0.111 A 
ATOM     11  C   UNL     1       5.432  -5.706   5.044  0.00  0.00    +0.020 A 
ATOM     12  C   UNL     1       4.250  -6.097   4.433  0.00  0.00    +0.008 A 
ENDBRANCH   3   7
TORSDOF 1
ENDMDL
MODEL 3
REMARK VINA RESULT:    -1.351      1.395      1.611
REMARK INTER + INTRA:          -1.686
REMARK INTER:                  -1.468
REMARK INTRA:                  -0.218
REMARK UNBOUND:                -0.256
REMARK  Name = Nicotine.pdb
REMARK  2 active torsions:
REMARK  status: ('A' for Active; 'I' for Inactive)
REMARK    1  A    between atoms: C_3  and  C_6
REMARK    2  A    between atoms: N_4  and  C_12
REMARK                            x       y       z     vdW  Elec       q    Type
REMARK                         _______ _______ _______ _____ _____    ______ ____
ROOT
ATOM      1  C   UNL     1       3.445  -4.796  -1.422  0.00  0.00    +0.017 C 
ATOM      2  C   UNL     1       3.840  -5.455  -0.074  0.00  0.00    +0.025 C 
ATOM      3  C   UNL     1       2.490  -5.963   0.473  0.00  0.00    +0.088 C 
ATOM      4  N   UNL     1       1.429  -5.173  -0.177  0.00  0.00    -0.298 NA
ATOM      5  C   UNL     1       2.062  -4.186  -1.078  0.00  0.00    +0.085 C 
ATOM      6  C   UNL     1       0.502  -6.041  -0.914  0.00  0.00    +0.105 C 
ENDROOT
BRANCH   3   7
ATOM      7  C   UNL     1       2.435  -5.767   1.966  0.00  0.00    -0.012 A 
ATOM      8  C   UNL     1       1.296  -5.262   2.564  0.00  0.00    +0.115 A 
ATOM      9  N   UNL     1       1.240  -5.087   3.870  0.00  0.00    -0.263 NA
ATOM     10  C   UNL     1       2.258  -5.383   4.653  0.00  0.00    +0.111 A 
ATOM     11  C   UNL     1       3.431  -5.893   4.127  0.00  0.00    +0.020 A 
ATOM     12  C   UNL     1       3.525  -6.095   2.759  0.00  0.00    +0.008 A 
ENDBRANCH   3   7
TORSDOF 1
ENDMDL
MODEL 4
REMARK VINA RESULT:    -1.277      1.648      4.409
REMARK INTER + INTRA:          -1.608
REMARK INTER:                  -1.378
REMARK INTRA:                  -0.230
REMARK UNBOUND:                -0.256
REMARK  Name = Nicotine.pdb
REMARK  2 active torsions:
REMARK  status: ('A' for Active; 'I' for Inactive)
REMARK    1  A    between atoms: C_3  and  C_6
REMARK    2  A    between atoms: N_4  and  C_12
REMARK                            x       y       z     vdW  Elec       q    Type
REMARK                         _______ _______ _______ _____ _____    ______ ____
ROOT
ATOM      1  C   UNL     1       3.810  -5.785   3.907  0.00  0.00    +0.017 C 
ATOM      2  C   UNL     1       3.628  -5.413   2.412  0.00  0.00    +0.025 C 
ATOM      3  C   UNL     1       2.274  -4.671   2.401  0.00  0.00    +0.088 C 
ATOM      4  N   UNL     1       1.532  -5.099   3.600  0.00  0.00    -0.298 NA
ATOM      5  C   UNL     1       2.352  -6.087   4.334  0.00  0.00    +0.085 C 
ATOM      6  C   UNL     1       1.201  -3.951   4.453  0.00  0.00    +0.105 C 
ENDROOT
BRANCH   3   7
ATOM      7  C   UNL     1       1.500  -5.035   1.160  0.00  0.00    -0.012 A 
ATOM      8  C   UNL     1       0.190  -4.622   1.007  0.00  0.00    +0.115 A 
ATOM      9  N   UNL     1      -0.494  -4.936  -0.075  0.00  0.00    -0.263 NA
ATOM     10  C   UNL     1       0.037  -5.649  -1.048  0.00  0.00    +0.111 A 
ATOM     11  C   UNL     1       1.343  -6.097  -0.966  0.00  0.00    +0.020 A 
ATOM     12  C   UNL     1       2.095  -5.782   0.155  0.00  0.00    +0.008 A 
ENDBRANCH   3   7
TORSDOF 1
ENDMDL
MODEL 5
REMARK VINA RESULT:    -1.230      1.671      4.626
REMARK INTER + INTRA:          -1.558
REMARK INTER:                  -1.302
REMARK INTRA:                  -0.256
REMARK UNBOUND:                -0.256
REMARK  Name = Nicotine.pdb
REMARK  2 active torsions:
REMARK  status: ('A' for Active; 'I' for Inactive)
REMARK    1  A    between atoms: C_3  and  C_6
REMARK    2  A    between atoms: N_4  and  C_12
REMARK                            x       y       z     vdW  Elec       q    Type
REMARK                         _______ _______ _______ _____ _____    ______ ____
ROOT
ATOM      1  C   UNL     1       1.718  -5.103   4.999  0.00  0.00    +0.017 C 
ATOM      2  C   UNL     1       1.468  -5.970   3.738  0.00  0.00    +0.025 C 
ATOM      3  C   UNL     1       2.798  -5.850   2.964  0.00  0.00    +0.088 C 
ATOM      4  N   UNL     1       3.462  -4.617   3.425  0.00  0.00    -0.298 NA
ATOM      5  C   UNL     1       2.593  -3.961   4.425  0.00  0.00    +0.085 C 
ATOM      6  C   UNL     1       4.786  -4.911   3.988  0.00  0.00    +0.105 C 
ENDROOT
BRANCH   3   7
ATOM      7  C   UNL     1       2.525  -5.765   1.485  0.00  0.00    -0.012 A 
ATOM      8  C   UNL     1       3.508  -6.097   0.572  0.00  0.00    +0.115 A 
ATOM      9  N   UNL     1       3.277  -6.025  -0.724  0.00  0.00    -0.263 NA
ATOM     10  C   UNL     1       2.110  -5.637  -1.200  0.00  0.00    +0.111 A 
ATOM     11  C   UNL     1       1.079  -5.289  -0.348  0.00  0.00    +0.020 A 
ATOM     12  C   UNL     1       1.283  -5.357   1.022  0.00  0.00    +0.008 A 
ENDBRANCH   3   7
TORSDOF 1
ENDMDL
MODEL 6
REMARK VINA RESULT:    -1.191      1.876      2.612
REMARK INTER + INTRA:          -1.517
REMARK INTER:                  -1.262
REMARK INTRA:                  -0.255
REMARK UNBOUND:                -0.256
REMARK  Name = Nicotine.pdb
REMARK  2 active torsions:
REMARK  status: ('A' for Active; 'I' for Inactive)
REMARK    1  A    between atoms: C_3  and  C_6
REMARK    2  A    between atoms: N_4  and  C_12
REMARK                            x       y       z     vdW  Elec       q    Type
REMARK                         _______ _______ _______ _____ _____    ______ ____
ROOT
ATOM      1  C   UNL     1       0.868  -5.462  -0.527  0.00  0.00    +0.017 C 
ATOM      2  C   UNL     1       1.109  -5.086   0.959  0.00  0.00    +0.025 C 
ATOM      3  C   UNL     1       2.461  -4.344   0.914  0.00  0.00    +0.088 C 
ATOM      4  N   UNL     1       3.156  -4.774  -0.312  0.00  0.00    -0.298 NA
ATOM      5  C   UNL     1       2.309  -5.764  -1.011  0.00  0.00    +0.085 C 
ATOM      6  C   UNL     1       3.452  -3.627  -1.181  0.00  0.00    +0.105 C 
ENDROOT
BRANCH   3   7
ATOM      7  C   UNL     1       3.284  -4.703   2.124  0.00  0.00    -0.012 A 
ATOM      8  C   UNL     1       4.380  -3.939   2.477  0.00  0.00    +0.115 A 
ATOM      9  N   UNL     1       5.105  -4.246   3.535  0.00  0.00    -0.263 NA
ATOM     10  C   UNL     1       4.818  -5.286   4.293  0.00  0.00    +0.111 A 
ATOM     11  C   UNL     1       3.737  -6.097   4.003  0.00  0.00    +0.020 A 
ATOM     12  C   UNL     1       2.948  -5.801   2.901  0.00  0.00    +0.008 A 
ENDBRANCH   3   7
TORSDOF 1
ENDMDL
MODEL 7
REMARK VINA RESULT:    -1.158      2.109      4.297
REMARK INTER + INTRA:          -1.481
REMARK INTER:                  -1.287
REMARK INTRA:                  -0.195
REMARK UNBOUND:                -0.256
REMARK  Name = Nicotine.pdb
REMARK  2 active torsions:
REMARK  status: ('A' for Active; 'I' for Inactive)
REMARK    1  A    between atoms: C_3  and  C_6
REMARK    2  A    between atoms: N_4  and  C_12
REMARK                            x       y       z     vdW  Elec       q    Type
REMARK                         _______ _______ _______ _____ _____    ______ ____
ROOT
ATOM      1  C   UNL     1       2.073  -6.052   3.952  0.00  0.00    +0.017 C 
ATOM      2  C   UNL     1       3.443  -6.055   3.224  0.00  0.00    +0.025 C 
ATOM      3  C   UNL     1       3.432  -4.716   2.457  0.00  0.00    +0.088 C 
ATOM      4  N   UNL     1       2.022  -4.316   2.297  0.00  0.00    -0.298 NA
ATOM      5  C   UNL     1       1.166  -5.356   2.907  0.00  0.00    +0.085 C 
ATOM      6  C   UNL     1       1.774  -3.004   2.908  0.00  0.00    +0.105 C 
ENDROOT
BRANCH   3   7
ATOM      7  C   UNL     1       4.071  -4.895   1.104  0.00  0.00    -0.012 A 
ATOM      8  C   UNL     1       3.681  -5.932   0.278  0.00  0.00    +0.115 A 
ATOM      9  N   UNL     1       4.236  -6.096  -0.907  0.00  0.00    -0.263 NA
ATOM     10  C   UNL     1       5.177  -5.286  -1.350  0.00  0.00    +0.111 A 
ATOM     11  C   UNL     1       5.617  -4.225  -0.580  0.00  0.00    +0.020 A 
ATOM     12  C   UNL     1       5.054  -4.019   0.670  0.00  0.00    +0.008 A 
ENDBRANCH   3   7
TORSDOF 1
ENDMDL
MODEL 8
REMARK VINA RESULT:    -1.146      2.524      4.546
REMARK INTER + INTRA:          -1.469
REMARK INTER:                  -1.256
REMARK INTRA:                  -0.214
REMARK UNBOUND:                -0.256
REMARK  Name = Nicotine.pdb
REMARK  2 active torsions:
REMARK  status: ('A' for Active; 'I' for Inactive)
REMARK    1  A    between atoms: C_3  and  C_6
REMARK    2  A    between atoms: N_4  and  C_12
REMARK                            x       y       z     vdW  Elec       q    Type
REMARK                         _______ _______ _______ _____ _____    ______ ____
ROOT
ATOM      1  C   UNL     1       0.450  -5.271  -0.489  0.00  0.00    +0.017 C 
ATOM      2  C   UNL     1       1.781  -5.756  -1.121  0.00  0.00    +0.025 C 
ATOM      3  C   UNL     1       2.729  -5.848   0.093  0.00  0.00    +0.088 C 
ATOM      4  N   UNL     1       2.183  -4.967   1.141  0.00  0.00    -0.298 NA
ATOM      5  C   UNL     1       0.960  -4.319   0.622  0.00  0.00    +0.085 C 
ATOM      6  C   UNL     1       1.899  -5.722   2.369  0.00  0.00    +0.105 C 
ENDROOT
BRANCH   3   7
ATOM      7  C   UNL     1       4.109  -5.386  -0.298  0.00  0.00    -0.012 A 
ATOM      8  C   UNL     1       4.847  -6.096  -1.226  0.00  0.00    +0.115 A 
ATOM      9  N   UNL     1       6.056  -5.699  -1.574  0.00  0.00    -0.263 NA
ATOM     10  C   UNL     1       6.606  -4.619  -1.056  0.00  0.00    +0.111 A 
ATOM     11  C   UNL     1       5.928  -3.858  -0.122  0.00  0.00    +0.020 A 
ATOM     12  C   UNL     1       4.653  -4.241   0.264  0.00  0.00    +0.008 A 
ENDBRANCH   3   7
TORSDOF 1
ENDMDL
MODEL 9
REMARK VINA RESULT:    -1.137      2.015      2.850
REMARK INTER + INTRA:          -1.460
REMARK INTER:                  -1.244
REMARK INTRA:                  -0.215
REMARK UNBOUND:                -0.256
REMARK  Name = Nicotine.pdb
REMARK  2 active torsions:
REMARK  status: ('A' for Active; 'I' for Inactive)
REMARK    1  A    between atoms: C_3  and  C_6
REMARK    2  A    between atoms: N_4  and  C_12
REMARK                            x       y       z     vdW  Elec       q    Type
REMARK                         _______ _______ _______ _____ _____    ______ ____
ROOT
ATOM      1  C   UNL     1       1.597  -5.377   1.586  0.00  0.00    +0.017 C 
ATOM      2  C   UNL     1       2.221  -4.951   2.941  0.00  0.00    +0.025 C 
ATOM      3  C   UNL     1       3.563  -4.316   2.520  0.00  0.00    +0.088 C 
ATOM      4  N   UNL     1       3.905  -4.856   1.191  0.00  0.00    -0.298 NA
ATOM      5  C   UNL     1       2.851  -5.810   0.786  0.00  0.00    +0.085 C 
ATOM      6  C   UNL     1       4.047  -3.777   0.205  0.00  0.00    +0.105 C 
ENDROOT
BRANCH   3   7
ATOM      7  C   UNL     1       4.636  -4.680   3.513  0.00  0.00    -0.012 A 
ATOM      8  C   UNL     1       4.476  -5.770   4.347  0.00  0.00    +0.115 A 
ATOM      9  N   UNL     1       5.410  -6.095   5.220  0.00  0.00    -0.263 NA
ATOM     10  C   UNL     1       6.525  -5.401   5.333  0.00  0.00    +0.111 A 
ATOM     11  C   UNL     1       6.755  -4.297   4.532  0.00  0.00    +0.020 A 
ATOM     12  C   UNL     1       5.798  -3.928   3.599  0.00  0.00    +0.008 A 
ENDBRANCH   3   7
TORSDOF 1
ENDMDL
MODEL 10
REMARK VINA RESULT:    -1.117      1.896      4.353
REMARK INTER + INTRA:          -1.439
REMARK INTER:                  -1.225
REMARK INTRA:                  -0.213
REMARK UNBOUND:                -0.256
REMARK  Name = Nicotine.pdb
REMARK  2 active torsions:
REMARK  status: ('A' for Active; 'I' for Inactive)
REMARK    1  A    between atoms: C_3  and  C_6
REMARK    2  A    between atoms: N_4  and  C_12
REMARK                            x       y       z     vdW  Elec       q    Type
REMARK                         _______ _______ _______ _____ _____    ______ ____
ROOT
ATOM      1  C   UNL     1       4.035  -2.777   4.237  0.00  0.00    +0.017 C 
ATOM      2  C   UNL     1       2.743  -3.092   3.437  0.00  0.00    +0.025 C 
ATOM      3  C   UNL     1       2.789  -4.628   3.296  0.00  0.00    +0.088 C 
ATOM      4  N   UNL     1       4.194  -5.041   3.461  0.00  0.00    -0.298 NA
ATOM      5  C   UNL     1       5.018  -3.832   3.672  0.00  0.00    +0.085 C 
ATOM      6  C   UNL     1       4.340  -5.980   4.581  0.00  0.00    +0.105 C 
ENDROOT
BRANCH   3   7
ATOM      7  C   UNL     1       2.291  -5.033   1.933  0.00  0.00    -0.012 A 
ATOM      8  C   UNL     1       1.013  -4.697   1.527  0.00  0.00    +0.115 A 
ATOM      9  N   UNL     1       0.570  -5.047   0.335  0.00  0.00    -0.263 NA
ATOM     10  C   UNL     1       1.319  -5.726  -0.511  0.00  0.00    +0.111 A 
ATOM     11  C   UNL     1       2.608  -6.097  -0.175  0.00  0.00    +0.020 A 
ATOM     12  C   UNL     1       3.110  -5.742   1.067  0.00  0.00    +0.008 A 
ENDBRANCH   3   7
TORSDOF 1
ENDMDL
