MODEL 1
REMARK VINA RESULT:    -4.228      0.000      0.000
REMARK INTER + INTRA:          -4.724
REMARK INTER:                  -4.475
REMARK INTRA:                  -0.249
REMARK UNBOUND:                -0.249
REMARK  Name = Nicotine.pdb
REMARK  2 active torsions:
REMARK  status: ('A' for Active; 'I' for Inactive)
REMARK    1  A    between atoms: C_3  and  C_6
REMARK    2  A    between atoms: N_4  and  C_12
REMARK                            x       y       z     vdW  Elec       q    Type
REMARK                         _______ _______ _______ _____ _____    ______ ____
ROOT
ATOM      1  C   UNL     1       0.145  -3.167   1.440  0.00  0.00    +0.017 C 
ATOM      2  C   UNL     1       1.213  -2.042   1.485  0.00  0.00    +0.025 C 
ATOM      3  C   UNL     1       2.374  -2.633   0.657  0.00  0.00    +0.088 C 
ATOM      4  N   UNL     1       2.215  -4.099   0.665  0.00  0.00    -0.298 NA
ATOM      5  C   UNL     1       1.028  -4.439   1.479  0.00  0.00    +0.085 C 
ATOM      6  C   UNL     1       2.086  -4.623  -0.700  0.00  0.00    +0.105 C 
ENDROOT
BRANCH   3   7
ATOM      7  C   UNL     1       3.692  -2.255   1.281  0.00  0.00    -0.012 A 
ATOM      8  C   UNL     1       4.880  -2.552   0.639  0.00  0.00    +0.115 A 
ATOM      9  N   UNL     1       6.038  -2.224   1.178  0.00  0.00    -0.263 NA
ATOM     10  C   UNL     1       6.112  -1.607   2.341  0.00  0.00    +0.111 A 
ATOM     11  C   UNL     1       4.966  -1.278   3.041  0.00  0.00    +0.020 A 
ATOM     12  C   UNL     1       3.730  -1.602   2.503  0.00  0.00    +0.008 A 
ENDBRANCH   3   7
TORSDOF 1
ENDMDL
MODEL 2
REMARK VINA RESULT:    -4.201      1.592      4.298
REMARK INTER + INTRA:          -4.696
REMARK INTER:                  -4.478
REMARK INTRA:                  -0.218
REMARK UNBOUND:                -0.249
REMARK  Name = Nicotine.pdb
REMARK  2 active torsions:
REMARK  status: ('A' for Active; 'I' for Inactive)
REMARK    1  A    between atoms: C_3  and  C_6
REMARK    2  A    between atoms: N_4  and  C_12
REMARK                            x       y       z     vdW  Elec       q    Type
REMARK                         _______ _______ _______ _____ _____    ______ ____
ROOT
ATOM      1  C   UNL     1       5.003  -0.122   4.051  0.00  0.00    +0.017 C 
ATOM      2  C   UNL     1       3.675  -0.588   3.399  0.00  0.00    +0.025 C 
ATOM      3  C   UNL     1       4.057  -1.940   2.761  0.00  0.00    +0.088 C 
ATOM      4  N   UNL     1       5.518  -1.934   2.566  0.00  0.00    -0.298 NA
ATOM      5  C   UNL     1       6.050  -0.634   3.030  0.00  0.00    +0.085 C 
ATOM      6  C   UNL     1       6.150  -3.048   3.284  0.00  0.00    +0.105 C 
ENDROOT
BRANCH   3   7
ATOM      7  C   UNL     1       3.363  -2.095   1.433  0.00  0.00    -0.012 A 
ATOM      8  C   UNL     1       4.096  -2.144   0.262  0.00  0.00    +0.115 A 
ATOM      9  N   UNL     1       3.496  -2.280  -0.905  0.00  0.00    -0.263 NA
ATOM     10  C   UNL     1       2.184  -2.372  -1.003  0.00  0.00    +0.111 A 
ATOM     11  C   UNL     1       1.386  -2.331   0.125  0.00  0.00    +0.020 A 
ATOM     12  C   UNL     1       1.981  -2.195   1.369  0.00  0.00    +0.008 A 
ENDBRANCH   3   7
TORSDOF 1
ENDMDL
MODEL 3
REMARK VINA RESULT:    -4.134      1.826      2.745
REMARK INTER + INTRA:          -4.625
REMARK INTER:                  -4.419
REMARK INTRA:                  -0.206
REMARK UNBOUND:                -0.249
REMARK  Name = Nicotine.pdb
REMARK  2 active torsions:
REMARK  status: ('A' for Active; 'I' for Inactive)
REMARK    1  A    between atoms: C_3  and  C_6
REMARK    2  A    between atoms: N_4  and  C_12
REMARK                            x       y       z     vdW  Elec       q    Type
REMARK                         _______ _______ _______ _____ _____    ______ ____
ROOT
ATOM      1  C   UNL     1       2.988  -2.545  -1.046  0.00  0.00    +0.017 C 
ATOM      2  C   UNL     1       3.902  -2.108   0.129  0.00  0.00    +0.025 C 
ATOM      3  C   UNL     1       3.107  -2.558   1.373  0.00  0.00    +0.088 C 
ATOM      4  N   UNL     1       1.694  -2.678   0.969  0.00  0.00    -0.298 NA
ATOM      5  C   UNL     1       1.578  -2.298  -0.455  0.00  0.00    +0.085 C 
ATOM      6  C   UNL     1       1.195  -4.041   1.194  0.00  0.00    +0.105 C 
ENDROOT
BRANCH   3   7
ATOM      7  C   UNL     1       3.243  -1.533   2.468  0.00  0.00    -0.012 A 
ATOM      8  C   UNL     1       4.492  -1.077   2.847  0.00  0.00    +0.115 A 
ATOM      9  N   UNL     1       4.620  -0.179   3.804  0.00  0.00    -0.263 NA
ATOM     10  C   UNL     1       3.574   0.316   4.435  0.00  0.00    +0.111 A 
ATOM     11  C   UNL     1       2.294  -0.092   4.110  0.00  0.00    +0.020 A 
ATOM     12  C   UNL     1       2.119  -1.030   3.105  0.00  0.00    +0.008 A 
ENDBRANCH   3   7
TORSDOF 1
ENDMDL
MODEL 4
REMARK VINA RESULT:    -4.023      1.465      2.335
REMARK INTER + INTRA:          -4.506
REMARK INTER:                  -4.283
REMARK INTRA:                  -0.223
REMARK UNBOUND:                -0.249
REMARK  Name = Nicotine.pdb
REMARK  2 active torsions:
REMARK  status: ('A' for Active; 'I' for Inactive)
REMARK    1  A    between atoms: C_3  and  C_6
REMARK    2  A    between atoms: N_4  and  C_12
REMARK                            x       y       z     vdW  Elec       q    Type
REMARK                         _______ _______ _______ _____ _____    ______ ____
ROOT
ATOM      1  C   UNL     1       1.596  -6.006  -0.779  0.00  0.00    +0.017 C 
ATOM      2  C   UNL     1       1.634  -4.962   0.369  0.00  0.00    +0.025 C 
ATOM      3  C   UNL     1       1.937  -3.643  -0.372  0.00  0.00    +0.088 C 
ATOM      4  N   UNL     1       2.573  -3.997  -1.654  0.00  0.00    -0.298 NA
ATOM      5  C   UNL     1       2.698  -5.469  -1.726  0.00  0.00    +0.085 C 
ATOM      6  C   UNL     1       1.797  -3.477  -2.788  0.00  0.00    +0.105 C 
ENDROOT
BRANCH   3   7
ATOM      7  C   UNL     1       2.875  -2.798   0.450  0.00  0.00    -0.012 A 
ATOM      8  C   UNL     1       4.094  -2.400  -0.067  0.00  0.00    +0.115 A 
ATOM      9  N   UNL     1       4.921  -1.660   0.646  0.00  0.00    -0.263 NA
ATOM     10  C   UNL     1       4.623  -1.272   1.870  0.00  0.00    +0.111 A 
ATOM     11  C   UNL     1       3.423  -1.631   2.454  0.00  0.00    +0.020 A 
ATOM     12  C   UNL     1       2.526  -2.404   1.733  0.00  0.00    +0.008 A 
ENDBRANCH   3   7
TORSDOF 1
ENDMDL
MODEL 5
REMARK VINA RESULT:    -3.986      1.877      4.466
REMARK INTER + INTRA:          -4.468
REMARK INTER:                  -4.269
REMARK INTRA:                  -0.199
REMARK UNBOUND:                -0.249
REMARK  Name = Nicotine.pdb
REMARK  2 active torsions:
REMARK  status: ('A' for Active; 'I' for Inactive)
REMARK    1  A    between atoms: C_3  and  C_6
REMARK    2  A    between atoms: N_4  and  C_12
REMARK                            x       y       z     vdW  Elec       q    Type
REMARK                         _______ _______ _______ _____ _____    ______ ____
ROOT
ATOM      1  C   UNL     1       3.466  -2.414  -0.655  0.00  0.00    +0.017 C 
ATOM      2  C   UNL     1       2.022  -2.158  -0.149  0.00  0.00    +0.025 C 
ATOM      3  C   UNL     1       2.221  -1.925   1.364  0.00  0.00    +0.088 C 
ATOM      4  N   UNL     1       3.499  -2.557   1.739  0.00  0.00    -0.298 NA
ATOM      5  C   UNL     1       4.083  -3.188   0.537  0.00  0.00    +0.085 C 
ATOM      6  C   UNL     1       4.423  -1.574   2.319  0.00  0.00    +0.105 C 
ENDROOT
BRANCH   3   7
ATOM      7  C   UNL     1       1.090  -2.556   2.133  0.00  0.00    -0.012 A 
ATOM      8  C   UNL     1       0.048  -3.172   1.465  0.00  0.00    +0.115 A 
ATOM      9  N   UNL     1      -0.946  -3.727   2.130  0.00  0.00    -0.263 NA
ATOM     10  C   UNL     1      -0.988  -3.718   3.448  0.00  0.00    +0.111 A 
ATOM     11  C   UNL     1       0.019  -3.122   4.184  0.00  0.00    +0.020 A 
ATOM     12  C   UNL     1       1.083  -2.532   3.519  0.00  0.00    +0.008 A 
ENDBRANCH   3   7
TORSDOF 1
ENDMDL
MODEL 6
REMARK VINA RESULT:    -3.954      1.105      2.120
REMARK INTER + INTRA:          -4.433
REMARK INTER:                  -4.235
REMARK INTRA:                  -0.198
REMARK UNBOUND:                -0.249
REMARK  Name = Nicotine.pdb
REMARK  2 active torsions:
REMARK  status: ('A' for Active; 'I' for Inactive)
REMARK    1  A    between atoms: C_3  and  C_6
REMARK    2  A    between atoms: N_4  and  C_12
REMARK                            x       y       z     vdW  Elec       q    Type
REMARK                         _______ _______ _______ _____ _____    ______ ____
ROOT
ATOM      1  C   UNL     1       2.699  -4.259  -1.309  0.00  0.00    +0.017 C 
ATOM      2  C   UNL     1       3.772  -4.244  -0.189  0.00  0.00    +0.025 C 
ATOM      3  C   UNL     1       3.110  -3.392   0.915  0.00  0.00    +0.088 C 
ATOM      4  N   UNL     1       2.083  -2.557   0.265  0.00  0.00    -0.298 NA
ATOM      5  C   UNL     1       2.099  -2.836  -1.187  0.00  0.00    +0.085 C 
ATOM      6  C   UNL     1       0.755  -2.815   0.836  0.00  0.00    +0.105 C 
ENDROOT
BRANCH   3   7
ATOM      7  C   UNL     1       4.142  -2.516   1.575  0.00  0.00    -0.012 A 
ATOM      8  C   UNL     1       5.473  -2.607   1.211  0.00  0.00    +0.115 A 
ATOM      9  N   UNL     1       6.383  -1.844   1.784  0.00  0.00    -0.263 NA
ATOM     10  C   UNL     1       6.066  -0.970   2.719  0.00  0.00    +0.111 A 
ATOM     11  C   UNL     1       4.755  -0.821   3.133  0.00  0.00    +0.020 A 
ATOM     12  C   UNL     1       3.770  -1.603   2.550  0.00  0.00    +0.008 A 
ENDBRANCH   3   7
TORSDOF 1
ENDMDL
MODEL 7
REMARK VINA RESULT:    -3.854      1.864      2.504
REMARK INTER + INTRA:          -4.328
REMARK INTER:                  -4.135
REMARK INTRA:                  -0.193
REMARK UNBOUND:                -0.249
REMARK  Name = Nicotine.pdb
REMARK  2 active torsions:
REMARK  status: ('A' for Active; 'I' for Inactive)
REMARK    1  A    between atoms: C_3  and  C_6
REMARK    2  A    between atoms: N_4  and  C_12
REMARK                            x       y       z     vdW  Elec       q    Type
REMARK                         _______ _______ _______ _____ _____    ______ ____
ROOT
ATOM      1  C   UNL     1       2.320  -2.137  -0.852  0.00  0.00    +0.017 C 
ATOM      2  C   UNL     1       3.795  -2.121  -0.371  0.00  0.00    +0.025 C 
ATOM      3  C   UNL     1       4.083  -3.610  -0.084  0.00  0.00    +0.088 C 
ATOM      4  N   UNL     1       2.784  -4.270   0.142  0.00  0.00    -0.298 NA
ATOM      5  C   UNL     1       1.715  -3.256   0.033  0.00  0.00    +0.085 C 
ATOM      6  C   UNL     1       2.575  -5.363  -0.817  0.00  0.00    +0.105 C 
ENDROOT
BRANCH   3   7
ATOM      7  C   UNL     1       4.945  -3.738   1.145  0.00  0.00    -0.012 A 
ATOM      8  C   UNL     1       5.489  -2.613   1.737  0.00  0.00    +0.115 A 
ATOM      9  N   UNL     1       6.245  -2.716   2.813  0.00  0.00    -0.263 NA
ATOM     10  C   UNL     1       6.511  -3.884   3.364  0.00  0.00    +0.111 A 
ATOM     11  C   UNL     1       6.001  -5.052   2.829  0.00  0.00    +0.020 A 
ATOM     12  C   UNL     1       5.198  -4.983   1.701  0.00  0.00    +0.008 A 
ENDBRANCH   3   7
TORSDOF 1
ENDMDL
MODEL 8
REMARK VINA RESULT:    -3.705      3.654      5.733
REMARK INTER + INTRA:          -4.170
REMARK INTER:                  -3.957
REMARK INTRA:                  -0.214
REMARK UNBOUND:                -0.249
REMARK  Name = Nicotine.pdb
REMARK  2 active torsions:
REMARK  status: ('A' for Active; 'I' for Inactive)
REMARK    1  A    between atoms: C_3  and  C_6
REMARK    2  A    between atoms: N_4  and  C_12
REMARK                            x       y       z     vdW  Elec       q    Type
REMARK                         _______ _______ _______ _____ _____    ______ ____
ROOT
ATOM      1  C   UNL     1       2.199  -5.696  -6.125  0.00  0.00    +0.017 C 
ATOM      2  C   UNL     1       2.803  -5.875  -4.707  0.00  0.00    +0.025 C 
ATOM      3  C   UNL     1       1.631  -5.490  -3.780  0.00  0.00    +0.088 C 
ATOM      4  N   UNL     1       0.714  -4.643  -4.564  0.00  0.00    -0.298 NA
ATOM      5  C   UNL     1       1.277  -4.469  -5.920  0.00  0.00    +0.085 C 
ATOM      6  C   UNL     1      -0.629  -5.235  -4.623  0.00  0.00    +0.105 C 
ENDROOT
BRANCH   3   7
ATOM      7  C   UNL     1       2.149  -4.722  -2.591  0.00  0.00    -0.012 A 
ATOM      8  C   UNL     1       3.011  -5.323  -1.693  0.00  0.00    +0.115 A 
ATOM      9  N   UNL     1       3.469  -4.658  -0.650  0.00  0.00    -0.263 NA
ATOM     10  C   UNL     1       3.127  -3.406  -0.422  0.00  0.00    +0.111 A 
ATOM     11  C   UNL     1       2.269  -2.739  -1.277  0.00  0.00    +0.020 A 
ATOM     12  C   UNL     1       1.771  -3.404  -2.387  0.00  0.00    +0.008 A 
ENDBRANCH   3   7
TORSDOF 1
ENDMDL
MODEL 9
REMARK VINA RESULT:    -3.679      1.717      4.452
REMARK INTER + INTRA:          -4.142
REMARK INTER:                  -3.907
REMARK INTRA:                  -0.235
REMARK UNBOUND:                -0.249
REMARK  Name = Nicotine.pdb
REMARK  2 active torsions:
REMARK  status: ('A' for Active; 'I' for Inactive)
REMARK    1  A    between atoms: C_3  and  C_6
REMARK    2  A    between atoms: N_4  and  C_12
REMARK                            x       y       z     vdW  Elec       q    Type
REMARK                         _______ _______ _______ _____ _____    ______ ____
ROOT
ATOM      1  C   UNL     1       6.254  -2.087   3.559  0.00  0.00    +0.017 C 
ATOM      2  C   UNL     1       5.560  -1.451   2.326  0.00  0.00    +0.025 C 
ATOM      3  C   UNL     1       4.061  -1.572   2.670  0.00  0.00    +0.088 C 
ATOM      4  N   UNL     1       3.925  -2.655   3.661  0.00  0.00    -0.298 NA
ATOM      5  C   UNL     1       5.265  -3.223   3.923  0.00  0.00    +0.085 C 
ATOM      6  C   UNL     1       3.310  -2.162   4.900  0.00  0.00    +0.105 C 
ENDROOT
BRANCH   3   7
ATOM      7  C   UNL     1       3.275  -1.909   1.430  0.00  0.00    -0.012 A 
ATOM      8  C   UNL     1       1.914  -2.140   1.505  0.00  0.00    +0.115 A 
ATOM      9  N   UNL     1       1.219  -2.435   0.424  0.00  0.00    -0.263 NA
ATOM     10  C   UNL     1       1.787  -2.523  -0.763  0.00  0.00    +0.111 A 
ATOM     11  C   UNL     1       3.144  -2.305  -0.916  0.00  0.00    +0.020 A 
ATOM     12  C   UNL     1       3.906  -1.986   0.197  0.00  0.00    +0.008 A 
ENDBRANCH   3   7
TORSDOF 1
ENDMDL
MODEL 10
REMARK VINA RESULT:    -3.610      2.229      2.885
REMARK INTER + INTRA:          -4.070
REMARK INTER:                  -3.821
REMARK INTRA:                  -0.249
REMARK UNBOUND:                -0.249
REMARK  Name = Nicotine.pdb
REMARK  2 active torsions:
REMARK  status: ('A' for Active; 'I' for Inactive)
REMARK    1  A    between atoms: C_3  and  C_6
REMARK    2  A    between atoms: N_4  and  C_12
REMARK                            x       y       z     vdW  Elec       q    Type
REMARK                         _______ _______ _______ _____ _____    ______ ____
ROOT
ATOM      1  C   UNL     1       2.334  -0.834   3.331  0.00  0.00    +0.017 C 
ATOM      2  C   UNL     1       3.828  -1.252   3.304  0.00  0.00    +0.025 C 
ATOM      3  C   UNL     1       3.896  -2.222   2.105  0.00  0.00    +0.088 C 
ATOM      4  N   UNL     1       2.532  -2.734   1.881  0.00  0.00    -0.298 NA
ATOM      5  C   UNL     1       1.634  -2.147   2.898  0.00  0.00    +0.085 C 
ATOM      6  C   UNL     1       2.068  -2.420   0.523  0.00  0.00    +0.105 C 
ENDROOT
BRANCH   3   7
ATOM      7  C   UNL     1       4.828  -3.362   2.421  0.00  0.00    -0.012 A 
ATOM      8  C   UNL     1       5.169  -4.278   1.444  0.00  0.00    +0.115 A 
ATOM      9  N   UNL     1       5.984  -5.279   1.712  0.00  0.00    -0.263 NA
ATOM     10  C   UNL     1       6.504  -5.448   2.911  0.00  0.00    +0.111 A 
ATOM     11  C   UNL     1       6.209  -4.571   3.940  0.00  0.00    +0.020 A 
ATOM     12  C   UNL     1       5.360  -3.504   3.694  0.00  0.00    +0.008 A 
ENDBRANCH   3   7
TORSDOF 1
ENDMDL
