MODEL 1
REMARK VINA RESULT:     0.000      0.000      0.000
REMARK INTER + INTRA:          -0.256
REMARK INTER:                   0.000
REMARK INTRA:                  -0.256
REMARK UNBOUND:                -0.256
REMARK  Name = Nicotine.pdb
REMARK  2 active torsions:
REMARK  status: ('A' for Active; 'I' for Inactive)
REMARK    1  A    between atoms: C_3  and  C_6
REMARK    2  A    between atoms: N_4  and  C_12
REMARK                            x       y       z     vdW  Elec       q    Type
REMARK                         _______ _______ _______ _____ _____    ______ ____
ROOT
ATOM      1  C   UNL     1       8.330   1.431   1.640  0.00  0.00    +0.017 C 
ATOM      2  C   UNL     1       7.768   0.400   0.626  0.00  0.00    +0.025 C 
ATOM      3  C   UNL     1       7.405   1.275  -0.593  0.00  0.00    +0.088 C 
ATOM      4  N   UNL     1       7.227   2.654  -0.104  0.00  0.00    -0.298 NA
ATOM      5  C   UNL     1       7.436   2.665   1.359  0.00  0.00    +0.085 C 
ATOM      6  C   UNL     1       8.152   3.575  -0.776  0.00  0.00    +0.105 C 
ENDROOT
BRANCH   3   7
ATOM      7  C   UNL     1       6.126   0.781  -1.217  0.00  0.00    -0.012 A 
ATOM      8  C   UNL     1       5.824   1.088  -2.530  0.00  0.00    +0.115 A 
ATOM      9  N   UNL     1       4.706   0.659  -3.084  0.00  0.00    -0.263 NA
ATOM     10  C   UNL     1       3.838  -0.072  -2.414  0.00  0.00    +0.111 A 
ATOM     11  C   UNL     1       4.071  -0.419  -1.096  0.00  0.00    +0.020 A 
ATOM     12  C   UNL     1       5.239   0.008  -0.483  0.00  0.00    +0.008 A 
ENDBRANCH   3   7
TORSDOF 1
ENDMDL
MODEL 2
REMARK VINA RESULT:     0.000      3.580      4.750
REMARK INTER + INTRA:          -0.256
REMARK INTER:                   0.000
REMARK INTRA:                  -0.256
REMARK UNBOUND:                -0.256
REMARK  Name = Nicotine.pdb
REMARK  2 active torsions:
REMARK  status: ('A' for Active; 'I' for Inactive)
REMARK    1  A    between atoms: C_3  and  C_6
REMARK    2  A    between atoms: N_4  and  C_12
REMARK                            x       y       z     vdW  Elec       q    Type
REMARK                         _______ _______ _______ _____ _____    ______ ____
ROOT
ATOM      1  C   UNL     1       1.792  -1.176   1.881  0.00  0.00    +0.017 C 
ATOM      2  C   UNL     1       3.188  -1.129   1.205  0.00  0.00    +0.025 C 
ATOM      3  C   UNL     1       3.011  -0.046   0.119  0.00  0.00    +0.088 C 
ATOM      4  N   UNL     1       1.569   0.057  -0.164  0.00  0.00    -0.298 NA
ATOM      5  C   UNL     1       0.852  -0.927   0.675  0.00  0.00    +0.085 C 
ATOM      6  C   UNL     1       1.079   1.419   0.085  0.00  0.00    +0.105 C 
ENDROOT
BRANCH   3   7
ATOM      7  C   UNL     1       3.754  -0.446  -1.129  0.00  0.00    -0.012 A 
ATOM      8  C   UNL     1       4.120   0.507  -2.061  0.00  0.00    +0.115 A 
ATOM      9  N   UNL     1       4.770   0.166  -3.156  0.00  0.00    -0.263 NA
ATOM     10  C   UNL     1       5.094  -1.087  -3.407  0.00  0.00    +0.111 A 
ATOM     11  C   UNL     1       4.762  -2.095  -2.521  0.00  0.00    +0.020 A 
ATOM     12  C   UNL     1       4.083  -1.773  -1.356  0.00  0.00    +0.008 A 
ENDBRANCH   3   7
TORSDOF 1
ENDMDL
MODEL 3
REMARK VINA RESULT:     0.000      4.655      6.471
REMARK INTER + INTRA:          -0.256
REMARK INTER:                   0.000
REMARK INTRA:                  -0.256
REMARK UNBOUND:                -0.256
REMARK  Name = Nicotine.pdb
REMARK  2 active torsions:
REMARK  status: ('A' for Active; 'I' for Inactive)
REMARK    1  A    between atoms: C_3  and  C_6
REMARK    2  A    between atoms: N_4  and  C_12
REMARK                            x       y       z     vdW  Elec       q    Type
REMARK                         _______ _______ _______ _____ _____    ______ ____
ROOT
ATOM      1  C   UNL     1       3.557   5.455  -5.865  0.00  0.00    +0.017 C 
ATOM      2  C   UNL     1       4.089   4.823  -4.552  0.00  0.00    +0.025 C 
ATOM      3  C   UNL     1       3.307   3.495  -4.464  0.00  0.00    +0.088 C 
ATOM      4  N   UNL     1       2.090   3.650  -5.280  0.00  0.00    -0.298 NA
ATOM      5  C   UNL     1       2.071   5.016  -5.844  0.00  0.00    +0.085 C 
ATOM      6  C   UNL     1       2.036   2.639  -6.344  0.00  0.00    +0.105 C 
ENDROOT
BRANCH   3   7
ATOM      7  C   UNL     1       2.934   3.213  -3.032  0.00  0.00    -0.012 A 
ATOM      8  C   UNL     1       2.636   1.926  -2.628  0.00  0.00    +0.115 A 
ATOM      9  N   UNL     1       2.308   1.670  -1.376  0.00  0.00    -0.263 NA
ATOM     10  C   UNL     1       2.252   2.623  -0.466  0.00  0.00    +0.111 A 
ATOM     11  C   UNL     1       2.539   3.935  -0.796  0.00  0.00    +0.020 A 
ATOM     12  C   UNL     1       2.892   4.240  -2.102  0.00  0.00    +0.008 A 
ENDBRANCH   3   7
TORSDOF 1
ENDMDL
MODEL 4
REMARK VINA RESULT:     0.000      3.989      5.290
REMARK INTER + INTRA:          -0.256
REMARK INTER:                   0.000
REMARK INTRA:                  -0.256
REMARK UNBOUND:                -0.256
REMARK  Name = Nicotine.pdb
REMARK  2 active torsions:
REMARK  status: ('A' for Active; 'I' for Inactive)
REMARK    1  A    between atoms: C_3  and  C_6
REMARK    2  A    between atoms: N_4  and  C_12
REMARK                            x       y       z     vdW  Elec       q    Type
REMARK                         _______ _______ _______ _____ _____    ______ ____
ROOT
ATOM      1  C   UNL     1       5.268   0.650  -1.282  0.00  0.00    +0.017 C 
ATOM      2  C   UNL     1       4.916   1.850  -0.363  0.00  0.00    +0.025 C 
ATOM      3  C   UNL     1       3.589   1.410   0.290  0.00  0.00    +0.088 C 
ATOM      4  N   UNL     1       2.986   0.391  -0.589  0.00  0.00    -0.298 NA
ATOM      5  C   UNL     1       3.865   0.202  -1.762  0.00  0.00    +0.085 C 
ATOM      6  C   UNL     1       2.788  -0.874   0.130  0.00  0.00    +0.105 C 
ENDROOT
BRANCH   3   7
ATOM      7  C   UNL     1       2.663   2.592   0.417  0.00  0.00    -0.012 A 
ATOM      8  C   UNL     1       1.629   2.574   1.334  0.00  0.00    +0.115 A 
ATOM      9  N   UNL     1       0.815   3.605   1.452  0.00  0.00    -0.263 NA
ATOM     10  C   UNL     1       0.950   4.684   0.707  0.00  0.00    +0.111 A 
ATOM     11  C   UNL     1       1.961   4.774  -0.232  0.00  0.00    +0.020 A 
ATOM     12  C   UNL     1       2.840   3.712  -0.380  0.00  0.00    +0.008 A 
ENDBRANCH   3   7
TORSDOF 1
ENDMDL
MODEL 5
REMARK VINA RESULT:     0.000      5.764      8.235
REMARK INTER + INTRA:          -0.256
REMARK INTER:                   0.000
REMARK INTRA:                  -0.256
REMARK UNBOUND:                -0.256
REMARK  Name = Nicotine.pdb
REMARK  2 active torsions:
REMARK  status: ('A' for Active; 'I' for Inactive)
REMARK    1  A    between atoms: C_3  and  C_6
REMARK    2  A    between atoms: N_4  and  C_12
REMARK                            x       y       z     vdW  Elec       q    Type
REMARK                         _______ _______ _______ _____ _____    ______ ____
ROOT
ATOM      1  C   UNL     1      -2.072  -0.705  -1.407  0.00  0.00    +0.017 C 
ATOM      2  C   UNL     1      -0.937  -0.485  -0.373  0.00  0.00    +0.025 C 
ATOM      3  C   UNL     1      -1.320   0.859   0.283  0.00  0.00    +0.088 C 
ATOM      4  N   UNL     1      -2.197   1.572  -0.663  0.00  0.00    -0.298 NA
ATOM      5  C   UNL     1      -2.351   0.744  -1.878  0.00  0.00    +0.085 C 
ATOM      6  C   UNL     1      -3.502   1.864  -0.055  0.00  0.00    +0.105 C 
ENDROOT
BRANCH   3   7
ATOM      7  C   UNL     1      -0.080   1.672   0.547  0.00  0.00    -0.012 A 
ATOM      8  C   UNL     1      -0.093   2.679   1.494  0.00  0.00    +0.115 A 
ATOM      9  N   UNL     1       0.988   3.396   1.732  0.00  0.00    -0.263 NA
ATOM     10  C   UNL     1       2.116   3.185   1.083  0.00  0.00    +0.111 A 
ATOM     11  C   UNL     1       2.205   2.195   0.123  0.00  0.00    +0.020 A 
ATOM     12  C   UNL     1       1.090   1.417  -0.151  0.00  0.00    +0.008 A 
ENDBRANCH   3   7
TORSDOF 1
ENDMDL
MODEL 6
REMARK VINA RESULT:     0.000      6.828      9.278
REMARK INTER + INTRA:          -0.256
REMARK INTER:                   0.000
REMARK INTRA:                  -0.256
REMARK UNBOUND:                -0.256
REMARK  Name = Nicotine.pdb
REMARK  2 active torsions:
REMARK  status: ('A' for Active; 'I' for Inactive)
REMARK    1  A    between atoms: C_3  and  C_6
REMARK    2  A    between atoms: N_4  and  C_12
REMARK                            x       y       z     vdW  Elec       q    Type
REMARK                         _______ _______ _______ _____ _____    ______ ____
ROOT
ATOM      1  C   UNL     1      -2.756  -2.490   0.485  0.00  0.00    +0.017 C 
ATOM      2  C   UNL     1      -1.620  -2.270   1.519  0.00  0.00    +0.025 C 
ATOM      3  C   UNL     1      -2.004  -0.926   2.175  0.00  0.00    +0.088 C 
ATOM      4  N   UNL     1      -2.881  -0.213   1.229  0.00  0.00    -0.298 NA
ATOM      5  C   UNL     1      -3.035  -1.040   0.014  0.00  0.00    +0.085 C 
ATOM      6  C   UNL     1      -4.185   0.079   1.837  0.00  0.00    +0.105 C 
ENDROOT
BRANCH   3   7
ATOM      7  C   UNL     1      -0.763  -0.112   2.440  0.00  0.00    -0.012 A 
ATOM      8  C   UNL     1      -0.777   0.894   3.386  0.00  0.00    +0.115 A 
ATOM      9  N   UNL     1       0.305   1.611   3.624  0.00  0.00    -0.263 NA
ATOM     10  C   UNL     1       1.433   1.400   2.975  0.00  0.00    +0.111 A 
ATOM     11  C   UNL     1       1.522   0.410   2.015  0.00  0.00    +0.020 A 
ATOM     12  C   UNL     1       0.407  -0.368   1.741  0.00  0.00    +0.008 A 
ENDBRANCH   3   7
TORSDOF 1
ENDMDL
MODEL 7
REMARK VINA RESULT:     0.000      6.062      7.850
REMARK INTER + INTRA:          -0.256
REMARK INTER:                   0.000
REMARK INTRA:                  -0.256
REMARK UNBOUND:                -0.256
REMARK  Name = Nicotine.pdb
REMARK  2 active torsions:
REMARK  status: ('A' for Active; 'I' for Inactive)
REMARK    1  A    between atoms: C_3  and  C_6
REMARK    2  A    between atoms: N_4  and  C_12
REMARK                            x       y       z     vdW  Elec       q    Type
REMARK                         _______ _______ _______ _____ _____    ______ ____
ROOT
ATOM      1  C   UNL     1       1.423   0.347  -4.014  0.00  0.00    +0.017 C 
ATOM      2  C   UNL     1       1.556   0.941  -2.587  0.00  0.00    +0.025 C 
ATOM      3  C   UNL     1       0.342   0.341  -1.846  0.00  0.00    +0.088 C 
ATOM      4  N   UNL     1      -0.649  -0.040  -2.869  0.00  0.00    -0.298 NA
ATOM      5  C   UNL     1      -0.115   0.321  -4.199  0.00  0.00    +0.085 C 
ATOM      6  C   UNL     1      -0.959  -1.473  -2.795  0.00  0.00    +0.105 C 
ENDROOT
BRANCH   3   7
ATOM      7  C   UNL     1      -0.249   1.367  -0.914  0.00  0.00    -0.012 A 
ATOM      8  C   UNL     1      -1.032   0.972   0.154  0.00  0.00    +0.115 A 
ATOM      9  N   UNL     1      -1.553   1.863   0.975  0.00  0.00    -0.263 NA
ATOM     10  C   UNL     1      -1.350   3.156   0.812  0.00  0.00    +0.111 A 
ATOM     11  C   UNL     1      -0.577   3.626  -0.233  0.00  0.00    +0.020 A 
ATOM     12  C   UNL     1      -0.009   2.718  -1.113  0.00  0.00    +0.008 A 
ENDBRANCH   3   7
TORSDOF 1
ENDMDL
MODEL 8
REMARK VINA RESULT:     0.000      2.940      4.280
REMARK INTER + INTRA:          -0.256
REMARK INTER:                   0.000
REMARK INTRA:                  -0.256
REMARK UNBOUND:                -0.256
REMARK  Name = Nicotine.pdb
REMARK  2 active torsions:
REMARK  status: ('A' for Active; 'I' for Inactive)
REMARK    1  A    between atoms: C_3  and  C_6
REMARK    2  A    between atoms: N_4  and  C_12
REMARK                            x       y       z     vdW  Elec       q    Type
REMARK                         _______ _______ _______ _____ _____    ______ ____
ROOT
ATOM      1  C   UNL     1       4.258   6.003  -0.953  0.00  0.00    +0.017 C 
ATOM      2  C   UNL     1       5.237   5.178  -1.830  0.00  0.00    +0.025 C 
ATOM      3  C   UNL     1       4.619   3.764  -1.803  0.00  0.00    +0.088 C 
ATOM      4  N   UNL     1       3.768   3.681  -0.603  0.00  0.00    -0.298 NA
ATOM      5  C   UNL     1       3.853   4.966   0.124  0.00  0.00    +0.085 C 
ATOM      6  C   UNL     1       2.379   3.369  -0.961  0.00  0.00    +0.105 C 
ENDROOT
BRANCH   3   7
ATOM      7  C   UNL     1       5.711   2.728  -1.733  0.00  0.00    -0.012 A 
ATOM      8  C   UNL     1       5.468   1.428  -2.132  0.00  0.00    +0.115 A 
ATOM      9  N   UNL     1       6.418   0.515  -2.074  0.00  0.00    -0.263 NA
ATOM     10  C   UNL     1       7.628   0.802  -1.635  0.00  0.00    +0.111 A 
ATOM     11  C   UNL     1       7.945   2.081  -1.218  0.00  0.00    +0.020 A 
ATOM     12  C   UNL     1       6.973   3.069  -1.271  0.00  0.00    +0.008 A 
ENDBRANCH   3   7
TORSDOF 1
ENDMDL
MODEL 9
REMARK VINA RESULT:     0.000      2.863      5.519
REMARK INTER + INTRA:          -0.256
REMARK INTER:                   0.000
REMARK INTRA:                  -0.256
REMARK UNBOUND:                -0.256
REMARK  Name = Nicotine.pdb
REMARK  2 active torsions:
REMARK  status: ('A' for Active; 'I' for Inactive)
REMARK    1  A    between atoms: C_3  and  C_6
REMARK    2  A    between atoms: N_4  and  C_12
REMARK                            x       y       z     vdW  Elec       q    Type
REMARK                         _______ _______ _______ _____ _____    ______ ____
ROOT
ATOM      1  C   UNL     1       3.002  -2.497  -2.426  0.00  0.00    +0.017 C 
ATOM      2  C   UNL     1       3.375  -1.447  -1.347  0.00  0.00    +0.025 C 
ATOM      3  C   UNL     1       2.464  -0.251  -1.697  0.00  0.00    +0.088 C 
ATOM      4  N   UNL     1       2.086  -0.390  -3.114  0.00  0.00    -0.298 NA
ATOM      5  C   UNL     1       2.740  -1.598  -3.661  0.00  0.00    +0.085 C 
ATOM      6  C   UNL     1       0.627  -0.466  -3.266  0.00  0.00    +0.105 C 
ENDROOT
BRANCH   3   7
ATOM      7  C   UNL     1       3.212   1.041  -1.488  0.00  0.00    -0.012 A 
ATOM      8  C   UNL     1       2.523   2.225  -1.303  0.00  0.00    +0.115 A 
ATOM      9  N   UNL     1       3.169   3.359  -1.120  0.00  0.00    -0.263 NA
ATOM     10  C   UNL     1       4.486   3.412  -1.105  0.00  0.00    +0.111 A 
ATOM     11  C   UNL     1       5.243   2.269  -1.283  0.00  0.00    +0.020 A 
ATOM     12  C   UNL     1       4.598   1.056  -1.473  0.00  0.00    +0.008 A 
ENDBRANCH   3   7
TORSDOF 1
ENDMDL
MODEL 10
REMARK VINA RESULT:     0.000      2.766      4.024
REMARK INTER + INTRA:          -0.256
REMARK INTER:                   0.000
REMARK INTRA:                  -0.256
REMARK UNBOUND:                -0.256
REMARK  Name = Nicotine.pdb
REMARK  2 active torsions:
REMARK  status: ('A' for Active; 'I' for Inactive)
REMARK    1  A    between atoms: C_3  and  C_6
REMARK    2  A    between atoms: N_4  and  C_12
REMARK                            x       y       z     vdW  Elec       q    Type
REMARK                         _______ _______ _______ _____ _____    ______ ____
ROOT
ATOM      1  C   UNL     1       2.865   1.679  -0.899  0.00  0.00    +0.017 C 
ATOM      2  C   UNL     1       3.449   0.442  -1.631  0.00  0.00    +0.025 C 
ATOM      3  C   UNL     1       4.399  -0.168  -0.579  0.00  0.00    +0.088 C 
ATOM      4  N   UNL     1       4.750   0.906   0.368  0.00  0.00    -0.298 NA
ATOM      5  C   UNL     1       4.082   2.152  -0.065  0.00  0.00    +0.085 C 
ATOM      6  C   UNL     1       4.361   0.549   1.738  0.00  0.00    +0.105 C 
ENDROOT
BRANCH   3   7
ATOM      7  C   UNL     1       5.644  -0.687  -1.251  0.00  0.00    -0.012 A 
ATOM      8  C   UNL     1       6.427  -1.642  -0.631  0.00  0.00    +0.115 A 
ATOM      9  N   UNL     1       7.518  -2.102  -1.213  0.00  0.00    -0.263 NA
ATOM     10  C   UNL     1       7.904  -1.673  -2.398  0.00  0.00    +0.111 A 
ATOM     11  C   UNL     1       7.172  -0.718  -3.079  0.00  0.00    +0.020 A 
ATOM     12  C   UNL     1       6.016  -0.216  -2.501  0.00  0.00    +0.008 A 
ENDBRANCH   3   7
TORSDOF 1
ENDMDL
