MODEL 1
REMARK VINA RESULT:    -3.753      0.000      0.000
REMARK INTER + INTRA:          -4.225
REMARK INTER:                  -3.972
REMARK INTRA:                  -0.253
REMARK UNBOUND:                -0.253
REMARK  Name = Nicotine.pdb
REMARK  2 active torsions:
REMARK  status: ('A' for Active; 'I' for Inactive)
REMARK    1  A    between atoms: C_3  and  C_6
REMARK    2  A    between atoms: N_4  and  C_12
REMARK                            x       y       z     vdW  Elec       q    Type
REMARK                         _______ _______ _______ _____ _____    ______ ____
ROOT
ATOM      1  C   UNL     1      -2.345   3.740  -6.681  0.00  0.00    +0.017 C 
ATOM      2  C   UNL     1      -2.201   5.033  -5.836  0.00  0.00    +0.025 C 
ATOM      3  C   UNL     1      -2.101   4.495  -4.393  0.00  0.00    +0.088 C 
ATOM      4  N   UNL     1      -2.706   3.151  -4.384  0.00  0.00    -0.298 NA
ATOM      5  C   UNL     1      -3.197   2.847  -5.745  0.00  0.00    +0.085 C 
ATOM      6  C   UNL     1      -1.740   2.141  -3.934  0.00  0.00    +0.105 C 
ENDROOT
BRANCH   3   7
ATOM      7  C   UNL     1      -2.851   5.403  -3.454  0.00  0.00    -0.012 A 
ATOM      8  C   UNL     1      -2.385   5.621  -2.171  0.00  0.00    +0.115 A 
ATOM      9  N   UNL     1      -3.036   6.415  -1.343  0.00  0.00    -0.263 NA
ATOM     10  C   UNL     1      -4.147   7.027  -1.699  0.00  0.00    +0.111 A 
ATOM     11  C   UNL     1      -4.673   6.858  -2.966  0.00  0.00    +0.020 A 
ATOM     12  C   UNL     1      -4.014   6.035  -3.866  0.00  0.00    +0.008 A 
ENDBRANCH   3   7
TORSDOF 1
ENDMDL
MODEL 2
REMARK VINA RESULT:    -3.565      2.140      5.081
REMARK INTER + INTRA:          -4.026
REMARK INTER:                  -3.848
REMARK INTRA:                  -0.178
REMARK UNBOUND:                -0.253
REMARK  Name = Nicotine.pdb
REMARK  2 active torsions:
REMARK  status: ('A' for Active; 'I' for Inactive)
REMARK    1  A    between atoms: C_3  and  C_6
REMARK    2  A    between atoms: N_4  and  C_12
REMARK                            x       y       z     vdW  Elec       q    Type
REMARK                         _______ _______ _______ _____ _____    ______ ____
ROOT
ATOM      1  C   UNL     1      -2.362   4.828  -5.399  0.00  0.00    +0.017 C 
ATOM      2  C   UNL     1      -2.498   3.355  -5.867  0.00  0.00    +0.025 C 
ATOM      3  C   UNL     1      -3.150   2.663  -4.651  0.00  0.00    +0.088 C 
ATOM      4  N   UNL     1      -2.860   3.494  -3.469  0.00  0.00    -0.298 NA
ATOM      5  C   UNL     1      -2.042   4.649  -3.894  0.00  0.00    +0.085 C 
ATOM      6  C   UNL     1      -4.101   3.937  -2.820  0.00  0.00    +0.105 C 
ENDROOT
BRANCH   3   7
ATOM      7  C   UNL     1      -2.562   1.287  -4.469  0.00  0.00    -0.012 A 
ATOM      8  C   UNL     1      -1.461   1.100  -3.655  0.00  0.00    +0.115 A 
ATOM      9  N   UNL     1      -0.941  -0.101  -3.490  0.00  0.00    -0.263 NA
ATOM     10  C   UNL     1      -1.444  -1.163  -4.088  0.00  0.00    +0.111 A 
ATOM     11  C   UNL     1      -2.546  -1.052  -4.917  0.00  0.00    +0.020 A 
ATOM     12  C   UNL     1      -3.123   0.193  -5.110  0.00  0.00    +0.008 A 
ENDBRANCH   3   7
TORSDOF 1
ENDMDL
MODEL 3
REMARK VINA RESULT:    -3.367      1.971      4.875
REMARK INTER + INTRA:          -3.816
REMARK INTER:                  -3.610
REMARK INTRA:                  -0.207
REMARK UNBOUND:                -0.253
REMARK  Name = Nicotine.pdb
REMARK  2 active torsions:
REMARK  status: ('A' for Active; 'I' for Inactive)
REMARK    1  A    between atoms: C_3  and  C_6
REMARK    2  A    between atoms: N_4  and  C_12
REMARK                            x       y       z     vdW  Elec       q    Type
REMARK                         _______ _______ _______ _____ _____    ______ ____
ROOT
ATOM      1  C   UNL     1      -3.550   5.715  -3.869  0.00  0.00    +0.017 C 
ATOM      2  C   UNL     1      -2.873   4.422  -3.341  0.00  0.00    +0.025 C 
ATOM      3  C   UNL     1      -2.154   3.872  -4.591  0.00  0.00    +0.088 C 
ATOM      4  N   UNL     1      -2.829   4.442  -5.770  0.00  0.00    -0.298 NA
ATOM      5  C   UNL     1      -3.943   5.296  -5.308  0.00  0.00    +0.085 C 
ATOM      6  C   UNL     1      -1.887   5.207  -6.598  0.00  0.00    +0.105 C 
ENDROOT
BRANCH   3   7
ATOM      7  C   UNL     1      -2.253   2.368  -4.619  0.00  0.00    -0.012 A 
ATOM      8  C   UNL     1      -3.081   1.739  -5.529  0.00  0.00    +0.115 A 
ATOM      9  N   UNL     1      -3.174   0.424  -5.560  0.00  0.00    -0.263 NA
ATOM     10  C   UNL     1      -2.488  -0.339  -4.732  0.00  0.00    +0.111 A 
ATOM     11  C   UNL     1      -1.639   0.219  -3.795  0.00  0.00    +0.020 A 
ATOM     12  C   UNL     1      -1.512   1.598  -3.736  0.00  0.00    +0.008 A 
ENDBRANCH   3   7
TORSDOF 1
ENDMDL
MODEL 4
REMARK VINA RESULT:    -3.269      2.576      4.093
REMARK INTER + INTRA:          -3.712
REMARK INTER:                  -3.513
REMARK INTRA:                  -0.200
REMARK UNBOUND:                -0.253
REMARK  Name = Nicotine.pdb
REMARK  2 active torsions:
REMARK  status: ('A' for Active; 'I' for Inactive)
REMARK    1  A    between atoms: C_3  and  C_6
REMARK    2  A    between atoms: N_4  and  C_12
REMARK                            x       y       z     vdW  Elec       q    Type
REMARK                         _______ _______ _______ _____ _____    ______ ____
ROOT
ATOM      1  C   UNL     1      -1.739  -0.509  -3.635  0.00  0.00    +0.017 C 
ATOM      2  C   UNL     1      -1.349   0.992  -3.651  0.00  0.00    +0.025 C 
ATOM      3  C   UNL     1      -2.695   1.698  -3.918  0.00  0.00    +0.088 C 
ATOM      4  N   UNL     1      -3.586   0.712  -4.557  0.00  0.00    -0.298 NA
ATOM      5  C   UNL     1      -2.845  -0.557  -4.719  0.00  0.00    +0.085 C 
ATOM      6  C   UNL     1      -4.806   0.513  -3.765  0.00  0.00    +0.105 C 
ENDROOT
BRANCH   3   7
ATOM      7  C   UNL     1      -2.484   2.873  -4.838  0.00  0.00    -0.012 A 
ATOM      8  C   UNL     1      -2.045   4.083  -4.337  0.00  0.00    +0.115 A 
ATOM      9  N   UNL     1      -1.858   5.116  -5.135  0.00  0.00    -0.263 NA
ATOM     10  C   UNL     1      -2.080   5.039  -6.432  0.00  0.00    +0.111 A 
ATOM     11  C   UNL     1      -2.521   3.861  -7.005  0.00  0.00    +0.020 A 
ATOM     12  C   UNL     1      -2.723   2.752  -6.199  0.00  0.00    +0.008 A 
ENDBRANCH   3   7
TORSDOF 1
ENDMDL
MODEL 5
REMARK VINA RESULT:    -3.108      1.534      1.903
REMARK INTER + INTRA:          -3.543
REMARK INTER:                  -3.360
REMARK INTRA:                  -0.183
REMARK UNBOUND:                -0.253
REMARK  Name = Nicotine.pdb
REMARK  2 active torsions:
REMARK  status: ('A' for Active; 'I' for Inactive)
REMARK    1  A    between atoms: C_3  and  C_6
REMARK    2  A    between atoms: N_4  and  C_12
REMARK                            x       y       z     vdW  Elec       q    Type
REMARK                         _______ _______ _______ _____ _____    ______ ____
ROOT
ATOM      1  C   UNL     1      -2.942   1.958  -6.503  0.00  0.00    +0.017 C 
ATOM      2  C   UNL     1      -2.801   3.355  -5.843  0.00  0.00    +0.025 C 
ATOM      3  C   UNL     1      -2.283   3.020  -4.428  0.00  0.00    +0.088 C 
ATOM      4  N   UNL     1      -2.660   1.623  -4.145  0.00  0.00    -0.298 NA
ATOM      5  C   UNL     1      -3.406   1.091  -5.305  0.00  0.00    +0.085 C 
ATOM      6  C   UNL     1      -1.474   0.805  -3.860  0.00  0.00    +0.105 C 
ENDROOT
BRANCH   3   7
ATOM      7  C   UNL     1      -2.920   3.939  -3.419  0.00  0.00    -0.012 A 
ATOM      8  C   UNL     1      -4.062   3.552  -2.743  0.00  0.00    +0.115 A 
ATOM      9  N   UNL     1      -4.626   4.351  -1.858  0.00  0.00    -0.263 NA
ATOM     10  C   UNL     1      -4.129   5.541  -1.583  0.00  0.00    +0.111 A 
ATOM     11  C   UNL     1      -2.989   5.996  -2.218  0.00  0.00    +0.020 A 
ATOM     12  C   UNL     1      -2.366   5.182  -3.151  0.00  0.00    +0.008 A 
ENDBRANCH   3   7
TORSDOF 1
ENDMDL
MODEL 6
REMARK VINA RESULT:    -3.078      9.382     11.158
REMARK INTER + INTRA:          -3.511
REMARK INTER:                  -3.333
REMARK INTRA:                  -0.178
REMARK UNBOUND:                -0.253
REMARK  Name = Nicotine.pdb
REMARK  2 active torsions:
REMARK  status: ('A' for Active; 'I' for Inactive)
REMARK    1  A    between atoms: C_3  and  C_6
REMARK    2  A    between atoms: N_4  and  C_12
REMARK                            x       y       z     vdW  Elec       q    Type
REMARK                         _______ _______ _______ _____ _____    ______ ____
ROOT
ATOM      1  C   UNL     1       5.038  -5.158  -5.076  0.00  0.00    +0.017 C 
ATOM      2  C   UNL     1       3.968  -5.530  -4.016  0.00  0.00    +0.025 C 
ATOM      3  C   UNL     1       2.657  -5.525  -4.830  0.00  0.00    +0.088 C 
ATOM      4  N   UNL     1       2.885  -4.685  -6.020  0.00  0.00    -0.298 NA
ATOM      5  C   UNL     1       4.263  -4.153  -5.964  0.00  0.00    +0.085 C 
ATOM      6  C   UNL     1       2.664  -5.449  -7.255  0.00  0.00    +0.105 C 
ENDROOT
BRANCH   3   7
ATOM      7  C   UNL     1       1.540  -4.948  -3.999  0.00  0.00    -0.012 A 
ATOM      8  C   UNL     1       1.278  -3.591  -4.026  0.00  0.00    +0.115 A 
ATOM      9  N   UNL     1       0.302  -3.078  -3.302  0.00  0.00    -0.263 NA
ATOM     10  C   UNL     1      -0.456  -3.830  -2.530  0.00  0.00    +0.111 A 
ATOM     11  C   UNL     1      -0.254  -5.195  -2.452  0.00  0.00    +0.020 A 
ATOM     12  C   UNL     1       0.759  -5.771  -3.203  0.00  0.00    +0.008 A 
ENDBRANCH   3   7
TORSDOF 1
ENDMDL
MODEL 7
REMARK VINA RESULT:    -3.066      8.058     10.260
REMARK INTER + INTRA:          -3.498
REMARK INTER:                  -3.268
REMARK INTRA:                  -0.230
REMARK UNBOUND:                -0.253
REMARK  Name = Nicotine.pdb
REMARK  2 active torsions:
REMARK  status: ('A' for Active; 'I' for Inactive)
REMARK    1  A    between atoms: C_3  and  C_6
REMARK    2  A    between atoms: N_4  and  C_12
REMARK                            x       y       z     vdW  Elec       q    Type
REMARK                         _______ _______ _______ _____ _____    ______ ____
ROOT
ATOM      1  C   UNL     1      -1.176  -5.217  -1.269  0.00  0.00    +0.017 C 
ATOM      2  C   UNL     1      -1.170  -5.100   0.278  0.00  0.00    +0.025 C 
ATOM      3  C   UNL     1      -1.271  -3.577   0.511  0.00  0.00    +0.088 C 
ATOM      4  N   UNL     1      -0.793  -2.914  -0.715  0.00  0.00    -0.298 NA
ATOM      5  C   UNL     1      -0.378  -3.954  -1.681  0.00  0.00    +0.085 C 
ATOM      6  C   UNL     1      -1.832  -2.048  -1.286  0.00  0.00    +0.105 C 
ENDROOT
BRANCH   3   7
ATOM      7  C   UNL     1      -0.409  -3.179   1.681  0.00  0.00    -0.012 A 
ATOM      8  C   UNL     1      -0.217  -1.845   1.985  0.00  0.00    +0.115 A 
ATOM      9  N   UNL     1       0.537  -1.488   3.007  0.00  0.00    -0.263 NA
ATOM     10  C   UNL     1       1.133  -2.380   3.774  0.00  0.00    +0.111 A 
ATOM     11  C   UNL     1       0.986  -3.733   3.531  0.00  0.00    +0.020 A 
ATOM     12  C   UNL     1       0.197  -4.146   2.468  0.00  0.00    +0.008 A 
ENDBRANCH   3   7
TORSDOF 1
ENDMDL
MODEL 8
REMARK VINA RESULT:    -3.031      8.834     11.202
REMARK INTER + INTRA:          -3.460
REMARK INTER:                  -3.239
REMARK INTRA:                  -0.221
REMARK UNBOUND:                -0.253
REMARK  Name = Nicotine.pdb
REMARK  2 active torsions:
REMARK  status: ('A' for Active; 'I' for Inactive)
REMARK    1  A    between atoms: C_3  and  C_6
REMARK    2  A    between atoms: N_4  and  C_12
REMARK                            x       y       z     vdW  Elec       q    Type
REMARK                         _______ _______ _______ _____ _____    ______ ____
ROOT
ATOM      1  C   UNL     1       1.233  -2.538   5.438  0.00  0.00    +0.017 C 
ATOM      2  C   UNL     1       1.402  -2.311   3.912  0.00  0.00    +0.025 C 
ATOM      3  C   UNL     1      -0.003  -1.846   3.473  0.00  0.00    +0.088 C 
ATOM      4  N   UNL     1      -0.959  -2.326   4.487  0.00  0.00    -0.298 NA
ATOM      5  C   UNL     1      -0.214  -3.085   5.514  0.00  0.00    +0.085 C 
ATOM      6  C   UNL     1      -1.695  -1.207   5.089  0.00  0.00    +0.105 C 
ENDROOT
BRANCH   3   7
ATOM      7  C   UNL     1      -0.341  -2.436   2.128  0.00  0.00    -0.012 A 
ATOM      8  C   UNL     1      -0.667  -1.613   1.067  0.00  0.00    +0.115 A 
ATOM      9  N   UNL     1      -0.964  -2.121  -0.114  0.00  0.00    -0.263 NA
ATOM     10  C   UNL     1      -0.962  -3.421  -0.329  0.00  0.00    +0.111 A 
ATOM     11  C   UNL     1      -0.645  -4.306   0.685  0.00  0.00    +0.020 A 
ATOM     12  C   UNL     1      -0.322  -3.809   1.938  0.00  0.00    +0.008 A 
ENDBRANCH   3   7
TORSDOF 1
ENDMDL
MODEL 9
REMARK VINA RESULT:    -2.904      9.183     11.521
REMARK INTER + INTRA:          -3.327
REMARK INTER:                  -3.112
REMARK INTRA:                  -0.215
REMARK UNBOUND:                -0.253
REMARK  Name = Nicotine.pdb
REMARK  2 active torsions:
REMARK  status: ('A' for Active; 'I' for Inactive)
REMARK    1  A    between atoms: C_3  and  C_6
REMARK    2  A    between atoms: N_4  and  C_12
REMARK                            x       y       z     vdW  Elec       q    Type
REMARK                         _______ _______ _______ _____ _____    ______ ____
ROOT
ATOM      1  C   UNL     1       0.460  -2.130   5.464  0.00  0.00    +0.017 C 
ATOM      2  C   UNL     1      -0.643  -2.226   4.377  0.00  0.00    +0.025 C 
ATOM      3  C   UNL     1      -0.302  -3.545   3.652  0.00  0.00    +0.088 C 
ATOM      4  N   UNL     1       1.123  -3.825   3.902  0.00  0.00    -0.298 NA
ATOM      5  C   UNL     1       1.681  -2.730   4.724  0.00  0.00    +0.085 C 
ATOM      6  C   UNL     1       1.297  -5.123   4.565  0.00  0.00    +0.105 C 
ENDROOT
BRANCH   3   7
ATOM      7  C   UNL     1      -0.545  -3.394   2.172  0.00  0.00    -0.012 A 
ATOM      8  C   UNL     1      -0.531  -2.142   1.586  0.00  0.00    +0.115 A 
ATOM      9  N   UNL     1      -0.743  -2.001   0.292  0.00  0.00    -0.263 NA
ATOM     10  C   UNL     1      -0.973  -3.037  -0.489  0.00  0.00    +0.111 A 
ATOM     11  C   UNL     1      -1.001  -4.320   0.026  0.00  0.00    +0.020 A 
ATOM     12  C   UNL     1      -0.778  -4.508   1.381  0.00  0.00    +0.008 A 
ENDBRANCH   3   7
TORSDOF 1
ENDMDL
MODEL 10
REMARK VINA RESULT:    -2.798      9.086     10.732
REMARK INTER + INTRA:          -3.215
REMARK INTER:                  -3.019
REMARK INTRA:                  -0.196
REMARK UNBOUND:                -0.253
REMARK  Name = Nicotine.pdb
REMARK  2 active torsions:
REMARK  status: ('A' for Active; 'I' for Inactive)
REMARK    1  A    between atoms: C_3  and  C_6
REMARK    2  A    between atoms: N_4  and  C_12
REMARK                            x       y       z     vdW  Elec       q    Type
REMARK                         _______ _______ _______ _____ _____    ______ ____
ROOT
ATOM      1  C   UNL     1       4.526  -3.188  -5.677  0.00  0.00    +0.017 C 
ATOM      2  C   UNL     1       3.451  -2.780  -4.634  0.00  0.00    +0.025 C 
ATOM      3  C   UNL     1       3.111  -4.118  -3.944  0.00  0.00    +0.088 C 
ATOM      4  N   UNL     1       3.491  -5.198  -4.873  0.00  0.00    -0.298 NA
ATOM      5  C   UNL     1       4.025  -4.588  -6.110  0.00  0.00    +0.085 C 
ATOM      6  C   UNL     1       4.478  -6.097  -4.261  0.00  0.00    +0.105 C 
ENDROOT
BRANCH   3   7
ATOM      7  C   UNL     1       1.634  -4.185  -3.656  0.00  0.00    -0.012 A 
ATOM      8  C   UNL     1       0.825  -3.091  -3.894  0.00  0.00    +0.115 A 
ATOM      9  N   UNL     1      -0.469  -3.141  -3.644  0.00  0.00    -0.263 NA
ATOM     10  C   UNL     1      -1.040  -4.227  -3.161  0.00  0.00    +0.111 A 
ATOM     11  C   UNL     1      -0.295  -5.361  -2.898  0.00  0.00    +0.020 A 
ATOM     12  C   UNL     1       1.068  -5.347  -3.153  0.00  0.00    +0.008 A 
ENDBRANCH   3   7
TORSDOF 1
ENDMDL
