MODEL 1
REMARK VINA RESULT:    -5.731      0.000      0.000
REMARK INTER + INTRA:          -6.270
REMARK INTER:                  -6.066
REMARK INTRA:                  -0.205
REMARK UNBOUND:                -0.205
REMARK  Name = Nicotine.pdb
REMARK  2 active torsions:
REMARK  status: ('A' for Active; 'I' for Inactive)
REMARK    1  A    between atoms: C_3  and  C_6
REMARK    2  A    between atoms: N_4  and  C_12
REMARK                            x       y       z     vdW  Elec       q    Type
REMARK                         _______ _______ _______ _____ _____    ______ ____
ROOT
ATOM      1  C   UNL     1       5.288   1.777   6.210  0.00  0.00    +0.017 C 
ATOM      2  C   UNL     1       5.145   2.527   4.860  0.00  0.00    +0.025 C 
ATOM      3  C   UNL     1       4.693   1.415   3.891  0.00  0.00    +0.088 C 
ATOM      4  N   UNL     1       5.109   0.128   4.477  0.00  0.00    -0.298 NA
ATOM      5  C   UNL     1       5.818   0.397   5.747  0.00  0.00    +0.085 C 
ATOM      6  C   UNL     1       3.953  -0.751   4.695  0.00  0.00    +0.105 C 
ENDROOT
BRANCH   3   7
ATOM      7  C   UNL     1       5.351   1.605   2.549  0.00  0.00    -0.012 A 
ATOM      8  C   UNL     1       6.365   0.759   2.141  0.00  0.00    +0.115 A 
ATOM      9  N   UNL     1       6.946   0.919   0.968  0.00  0.00    -0.263 NA
ATOM     10  C   UNL     1       6.588   1.882   0.143  0.00  0.00    +0.111 A 
ATOM     11  C   UNL     1       5.580   2.766   0.481  0.00  0.00    +0.020 A 
ATOM     12  C   UNL     1       4.943   2.627   1.704  0.00  0.00    +0.008 A 
ENDBRANCH   3   7
TORSDOF 1
ENDMDL
MODEL 2
REMARK VINA RESULT:    -5.472      1.418      4.574
REMARK INTER + INTRA:          -5.997
REMARK INTER:                  -5.807
REMARK INTRA:                  -0.190
REMARK UNBOUND:                -0.205
REMARK  Name = Nicotine.pdb
REMARK  2 active torsions:
REMARK  status: ('A' for Active; 'I' for Inactive)
REMARK    1  A    between atoms: C_3  and  C_6
REMARK    2  A    between atoms: N_4  and  C_12
REMARK                            x       y       z     vdW  Elec       q    Type
REMARK                         _______ _______ _______ _____ _____    ______ ____
ROOT
ATOM      1  C   UNL     1       5.725   2.775   0.069  0.00  0.00    +0.017 C 
ATOM      2  C   UNL     1       4.919   2.497   1.365  0.00  0.00    +0.025 C 
ATOM      3  C   UNL     1       6.009   2.054   2.364  0.00  0.00    +0.088 C 
ATOM      4  N   UNL     1       7.157   1.574   1.574  0.00  0.00    -0.298 NA
ATOM      5  C   UNL     1       6.816   1.677   0.139  0.00  0.00    +0.085 C 
ATOM      6  C   UNL     1       8.369   2.343   1.884  0.00  0.00    +0.105 C 
ENDROOT
BRANCH   3   7
ATOM      7  C   UNL     1       5.484   0.942   3.235  0.00  0.00    -0.012 A 
ATOM      8  C   UNL     1       4.165   0.940   3.648  0.00  0.00    +0.115 A 
ATOM      9  N   UNL     1       3.698  -0.029   4.410  0.00  0.00    -0.263 NA
ATOM     10  C   UNL     1       4.462  -1.027   4.808  0.00  0.00    +0.111 A 
ATOM     11  C   UNL     1       5.791  -1.093   4.435  0.00  0.00    +0.020 A 
ATOM     12  C   UNL     1       6.316  -0.095   3.629  0.00  0.00    +0.008 A 
ENDBRANCH   3   7
TORSDOF 1
ENDMDL
MODEL 3
REMARK VINA RESULT:    -5.320      1.393      4.560
REMARK INTER + INTRA:          -5.835
REMARK INTER:                  -5.618
REMARK INTRA:                  -0.218
REMARK UNBOUND:                -0.205
REMARK  Name = Nicotine.pdb
REMARK  2 active torsions:
REMARK  status: ('A' for Active; 'I' for Inactive)
REMARK    1  A    between atoms: C_3  and  C_6
REMARK    2  A    between atoms: N_4  and  C_12
REMARK                            x       y       z     vdW  Elec       q    Type
REMARK                         _______ _______ _______ _____ _____    ______ ____
ROOT
ATOM      1  C   UNL     1       5.887   2.515   0.370  0.00  0.00    +0.017 C 
ATOM      2  C   UNL     1       4.957   2.779   1.584  0.00  0.00    +0.025 C 
ATOM      3  C   UNL     1       5.900   2.593   2.791  0.00  0.00    +0.088 C 
ATOM      4  N   UNL     1       7.028   1.758   2.340  0.00  0.00    -0.298 NA
ATOM      5  C   UNL     1       6.812   1.401   0.921  0.00  0.00    +0.085 C 
ATOM      6  C   UNL     1       8.307   2.458   2.518  0.00  0.00    +0.105 C 
ENDROOT
BRANCH   3   7
ATOM      7  C   UNL     1       5.168   1.904   3.913  0.00  0.00    -0.012 A 
ATOM      8  C   UNL     1       5.053   2.510   5.149  0.00  0.00    +0.115 A 
ATOM      9  N   UNL     1       4.413   1.914   6.137  0.00  0.00    -0.263 NA
ATOM     10  C   UNL     1       3.861   0.726   5.987  0.00  0.00    +0.111 A 
ATOM     11  C   UNL     1       3.935   0.058   4.779  0.00  0.00    +0.020 A 
ATOM     12  C   UNL     1       4.595   0.656   3.717  0.00  0.00    +0.008 A 
ENDBRANCH   3   7
TORSDOF 1
ENDMDL
MODEL 4
REMARK VINA RESULT:    -5.219      1.147      1.588
REMARK INTER + INTRA:          -5.729
REMARK INTER:                  -5.537
REMARK INTRA:                  -0.192
REMARK UNBOUND:                -0.205
REMARK  Name = Nicotine.pdb
REMARK  2 active torsions:
REMARK  status: ('A' for Active; 'I' for Inactive)
REMARK    1  A    between atoms: C_3  and  C_6
REMARK    2  A    between atoms: N_4  and  C_12
REMARK                            x       y       z     vdW  Elec       q    Type
REMARK                         _______ _______ _______ _____ _____    ______ ____
ROOT
ATOM      1  C   UNL     1       4.611   1.914   5.704  0.00  0.00    +0.017 C 
ATOM      2  C   UNL     1       4.287   2.210   4.216  0.00  0.00    +0.025 C 
ATOM      3  C   UNL     1       4.915   1.008   3.479  0.00  0.00    +0.088 C 
ATOM      4  N   UNL     1       5.953   0.448   4.363  0.00  0.00    -0.298 NA
ATOM      5  C   UNL     1       6.011   1.261   5.596  0.00  0.00    +0.085 C 
ATOM      6  C   UNL     1       5.677  -0.961   4.673  0.00  0.00    +0.105 C 
ENDROOT
BRANCH   3   7
ATOM      7  C   UNL     1       5.535   1.467   2.185  0.00  0.00    -0.012 A 
ATOM      8  C   UNL     1       4.921   2.444   1.424  0.00  0.00    +0.115 A 
ATOM      9  N   UNL     1       5.457   2.852   0.290  0.00  0.00    -0.263 NA
ATOM     10  C   UNL     1       6.589   2.350  -0.161  0.00  0.00    +0.111 A 
ATOM     11  C   UNL     1       7.261   1.371   0.546  0.00  0.00    +0.020 A 
ATOM     12  C   UNL     1       6.731   0.921   1.745  0.00  0.00    +0.008 A 
ENDBRANCH   3   7
TORSDOF 1
ENDMDL
MODEL 5
REMARK VINA RESULT:    -5.080      1.520      4.501
REMARK INTER + INTRA:          -5.582
REMARK INTER:                  -5.409
REMARK INTRA:                  -0.172
REMARK UNBOUND:                -0.205
REMARK  Name = Nicotine.pdb
REMARK  2 active torsions:
REMARK  status: ('A' for Active; 'I' for Inactive)
REMARK    1  A    between atoms: C_3  and  C_6
REMARK    2  A    between atoms: N_4  and  C_12
REMARK                            x       y       z     vdW  Elec       q    Type
REMARK                         _______ _______ _______ _____ _____    ______ ____
ROOT
ATOM      1  C   UNL     1       7.483   3.970   1.346  0.00  0.00    +0.017 C 
ATOM      2  C   UNL     1       7.410   3.039   2.584  0.00  0.00    +0.025 C 
ATOM      3  C   UNL     1       7.044   1.671   1.969  0.00  0.00    +0.088 C 
ATOM      4  N   UNL     1       6.414   1.935   0.663  0.00  0.00    -0.298 NA
ATOM      5  C   UNL     1       6.352   3.397   0.456  0.00  0.00    +0.085 C 
ATOM      6  C   UNL     1       7.157   1.280  -0.422  0.00  0.00    +0.105 C 
ENDROOT
BRANCH   3   7
ATOM      7  C   UNL     1       6.078   0.946   2.869  0.00  0.00    -0.012 A 
ATOM      8  C   UNL     1       4.802   1.439   3.066  0.00  0.00    +0.115 A 
ATOM      9  N   UNL     1       3.949   0.811   3.852  0.00  0.00    -0.263 NA
ATOM     10  C   UNL     1       4.275  -0.303   4.477  0.00  0.00    +0.111 A 
ATOM     11  C   UNL     1       5.533  -0.857   4.328  0.00  0.00    +0.020 A 
ATOM     12  C   UNL     1       6.454  -0.227   3.505  0.00  0.00    +0.008 A 
ENDBRANCH   3   7
TORSDOF 1
ENDMDL
MODEL 6
REMARK VINA RESULT:    -4.905      1.730      2.186
REMARK INTER + INTRA:          -5.397
REMARK INTER:                  -5.211
REMARK INTRA:                  -0.186
REMARK UNBOUND:                -0.205
REMARK  Name = Nicotine.pdb
REMARK  2 active torsions:
REMARK  status: ('A' for Active; 'I' for Inactive)
REMARK    1  A    between atoms: C_3  and  C_6
REMARK    2  A    between atoms: N_4  and  C_12
REMARK                            x       y       z     vdW  Elec       q    Type
REMARK                         _______ _______ _______ _____ _____    ______ ____
ROOT
ATOM      1  C   UNL     1       6.127   2.294   5.475  0.00  0.00    +0.017 C 
ATOM      2  C   UNL     1       7.096   2.783   4.366  0.00  0.00    +0.025 C 
ATOM      3  C   UNL     1       6.174   2.925   3.137  0.00  0.00    +0.088 C 
ATOM      4  N   UNL     1       4.999   2.066   3.370  0.00  0.00    -0.298 NA
ATOM      5  C   UNL     1       5.165   1.383   4.671  0.00  0.00    +0.085 C 
ATOM      6  C   UNL     1       3.758   2.852   3.342  0.00  0.00    +0.105 C 
ENDROOT
BRANCH   3   7
ATOM      7  C   UNL     1       6.900   2.476   1.896  0.00  0.00    -0.012 A 
ATOM      8  C   UNL     1       8.278   2.365   1.894  0.00  0.00    +0.115 A 
ATOM      9  N   UNL     1       8.922   1.972   0.812  0.00  0.00    -0.263 NA
ATOM     10  C   UNL     1       8.285   1.672  -0.303  0.00  0.00    +0.111 A 
ATOM     11  C   UNL     1       6.907   1.758  -0.376  0.00  0.00    +0.020 A 
ATOM     12  C   UNL     1       6.196   2.162   0.743  0.00  0.00    +0.008 A 
ENDBRANCH   3   7
TORSDOF 1
ENDMDL
MODEL 7
REMARK VINA RESULT:    -4.895      1.846      4.533
REMARK INTER + INTRA:          -5.386
REMARK INTER:                  -5.208
REMARK INTRA:                  -0.178
REMARK UNBOUND:                -0.205
REMARK  Name = Nicotine.pdb
REMARK  2 active torsions:
REMARK  status: ('A' for Active; 'I' for Inactive)
REMARK    1  A    between atoms: C_3  and  C_6
REMARK    2  A    between atoms: N_4  and  C_12
REMARK                            x       y       z     vdW  Elec       q    Type
REMARK                         _______ _______ _______ _____ _____    ______ ____
ROOT
ATOM      1  C   UNL     1       7.866   3.176   1.343  0.00  0.00    +0.017 C 
ATOM      2  C   UNL     1       8.059   1.807   2.047  0.00  0.00    +0.025 C 
ATOM      3  C   UNL     1       6.613   1.377   2.372  0.00  0.00    +0.088 C 
ATOM      4  N   UNL     1       5.788   2.598   2.393  0.00  0.00    -0.298 NA
ATOM      5  C   UNL     1       6.660   3.760   2.121  0.00  0.00    +0.085 C 
ATOM      6  C   UNL     1       4.699   2.516   1.411  0.00  0.00    +0.105 C 
ENDROOT
BRANCH   3   7
ATOM      7  C   UNL     1       6.569   0.704   3.720  0.00  0.00    -0.012 A 
ATOM      8  C   UNL     1       6.933   1.397   4.859  0.00  0.00    +0.115 A 
ATOM      9  N   UNL     1       6.897   0.816   6.042  0.00  0.00    -0.263 NA
ATOM     10  C   UNL     1       6.517  -0.438   6.187  0.00  0.00    +0.111 A 
ATOM     11  C   UNL     1       6.139  -1.194   5.094  0.00  0.00    +0.020 A 
ATOM     12  C   UNL     1       6.158  -0.615   3.834  0.00  0.00    +0.008 A 
ENDBRANCH   3   7
TORSDOF 1
ENDMDL
MODEL 8
REMARK VINA RESULT:    -4.787      1.699      4.717
REMARK INTER + INTRA:          -5.271
REMARK INTER:                  -5.049
REMARK INTRA:                  -0.222
REMARK UNBOUND:                -0.205
REMARK  Name = Nicotine.pdb
REMARK  2 active torsions:
REMARK  status: ('A' for Active; 'I' for Inactive)
REMARK    1  A    between atoms: C_3  and  C_6
REMARK    2  A    between atoms: N_4  and  C_12
REMARK                            x       y       z     vdW  Elec       q    Type
REMARK                         _______ _______ _______ _____ _____    ______ ____
ROOT
ATOM      1  C   UNL     1       5.341   2.587   0.121  0.00  0.00    +0.017 C 
ATOM      2  C   UNL     1       4.623   2.614   1.496  0.00  0.00    +0.025 C 
ATOM      3  C   UNL     1       5.635   3.348   2.402  0.00  0.00    +0.088 C 
ATOM      4  N   UNL     1       6.962   3.210   1.776  0.00  0.00    -0.298 NA
ATOM      5  C   UNL     1       6.820   2.405   0.544  0.00  0.00    +0.085 C 
ATOM      6  C   UNL     1       7.546   4.525   1.482  0.00  0.00    +0.105 C 
ENDROOT
BRANCH   3   7
ATOM      7  C   UNL     1       5.645   2.722   3.772  0.00  0.00    -0.012 A 
ATOM      8  C   UNL     1       6.837   2.341   4.358  0.00  0.00    +0.115 A 
ATOM      9  N   UNL     1       6.854   1.792   5.557  0.00  0.00    -0.263 NA
ATOM     10  C   UNL     1       5.746   1.586   6.241  0.00  0.00    +0.111 A 
ATOM     11  C   UNL     1       4.516   1.943   5.720  0.00  0.00    +0.020 A 
ATOM     12  C   UNL     1       4.459   2.527   4.464  0.00  0.00    +0.008 A 
ENDBRANCH   3   7
TORSDOF 1
ENDMDL
MODEL 9
REMARK VINA RESULT:    -4.785      2.366      4.889
REMARK INTER + INTRA:          -5.269
REMARK INTER:                  -5.057
REMARK INTRA:                  -0.213
REMARK UNBOUND:                -0.205
REMARK  Name = Nicotine.pdb
REMARK  2 active torsions:
REMARK  status: ('A' for Active; 'I' for Inactive)
REMARK    1  A    between atoms: C_3  and  C_6
REMARK    2  A    between atoms: N_4  and  C_12
REMARK                            x       y       z     vdW  Elec       q    Type
REMARK                         _______ _______ _______ _____ _____    ______ ____
ROOT
ATOM      1  C   UNL     1       5.495   2.574   0.611  0.00  0.00    +0.017 C 
ATOM      2  C   UNL     1       5.704   3.171   2.028  0.00  0.00    +0.025 C 
ATOM      3  C   UNL     1       7.233   3.082   2.220  0.00  0.00    +0.088 C 
ATOM      4  N   UNL     1       7.728   2.040   1.304  0.00  0.00    -0.298 NA
ATOM      5  C   UNL     1       6.577   1.465   0.576  0.00  0.00    +0.085 C 
ATOM      6  C   UNL     1       8.721   2.587   0.370  0.00  0.00    +0.105 C 
ENDROOT
BRANCH   3   7
ATOM      7  C   UNL     1       7.550   2.708   3.644  0.00  0.00    -0.012 A 
ATOM      8  C   UNL     1       6.717   1.856   4.345  0.00  0.00    +0.115 A 
ATOM      9  N   UNL     1       6.987   1.523   5.592  0.00  0.00    -0.263 NA
ATOM     10  C   UNL     1       8.052   1.984   6.218  0.00  0.00    +0.111 A 
ATOM     11  C   UNL     1       8.931   2.840   5.581  0.00  0.00    +0.020 A 
ATOM     12  C   UNL     1       8.683   3.208   4.267  0.00  0.00    +0.008 A 
ENDBRANCH   3   7
TORSDOF 1
ENDMDL
MODEL 10
REMARK VINA RESULT:    -4.534      1.725      2.450
REMARK INTER + INTRA:          -5.004
REMARK INTER:                  -4.789
REMARK INTRA:                  -0.215
REMARK UNBOUND:                -0.205
REMARK  Name = Nicotine.pdb
REMARK  2 active torsions:
REMARK  status: ('A' for Active; 'I' for Inactive)
REMARK    1  A    between atoms: C_3  and  C_6
REMARK    2  A    between atoms: N_4  and  C_12
REMARK                            x       y       z     vdW  Elec       q    Type
REMARK                         _______ _______ _______ _____ _____    ______ ____
ROOT
ATOM      1  C   UNL     1       3.846   2.459   4.051  0.00  0.00    +0.017 C 
ATOM      2  C   UNL     1       4.309   2.698   2.590  0.00  0.00    +0.025 C 
ATOM      3  C   UNL     1       5.408   1.631   2.396  0.00  0.00    +0.088 C 
ATOM      4  N   UNL     1       5.900   1.262   3.736  0.00  0.00    -0.298 NA
ATOM      5  C   UNL     1       5.176   2.068   4.742  0.00  0.00    +0.085 C 
ATOM      6  C   UNL     1       5.724  -0.175   3.985  0.00  0.00    +0.105 C 
ENDROOT
BRANCH   3   7
ATOM      7  C   UNL     1       6.535   2.200   1.573  0.00  0.00    -0.012 A 
ATOM      8  C   UNL     1       6.620   3.561   1.350  0.00  0.00    +0.115 A 
ATOM      9  N   UNL     1       7.603   4.067   0.631  0.00  0.00    -0.263 NA
ATOM     10  C   UNL     1       8.537   3.303   0.100  0.00  0.00    +0.111 A 
ATOM     11  C   UNL     1       8.518   1.933   0.281  0.00  0.00    +0.020 A 
ATOM     12  C   UNL     1       7.503   1.365   1.036  0.00  0.00    +0.008 A 
ENDBRANCH   3   7
TORSDOF 1
ENDMDL
