MODEL 1
REMARK VINA RESULT:    -3.019      0.000      0.000
REMARK INTER + INTRA:          -3.411
REMARK INTER:                  -3.196
REMARK INTRA:                  -0.215
REMARK UNBOUND:                -0.215
REMARK  Name = Nicotine.pdb
REMARK  2 active torsions:
REMARK  status: ('A' for Active; 'I' for Inactive)
REMARK    1  A    between atoms: C_3  and  C_6
REMARK    2  A    between atoms: N_4  and  C_12
REMARK                            x       y       z     vdW  Elec       q    Type
REMARK                         _______ _______ _______ _____ _____    ______ ____
ROOT
ATOM      1  C   UNL     1      -1.956   4.407  -0.006  0.00  0.00    +0.017 C 
ATOM      2  C   UNL     1      -1.299   5.526  -0.856  0.00  0.00    +0.025 C 
ATOM      3  C   UNL     1      -1.973   5.356  -2.234  0.00  0.00    +0.088 C 
ATOM      4  N   UNL     1      -2.477   3.973  -2.307  0.00  0.00    -0.298 NA
ATOM      5  C   UNL     1      -2.123   3.276  -1.052  0.00  0.00    +0.085 C 
ATOM      6  C   UNL     1      -3.928   3.951  -2.530  0.00  0.00    +0.105 C 
ENDROOT
BRANCH   3   7
ATOM      7  C   UNL     1      -0.968   5.595  -3.330  0.00  0.00    -0.012 A 
ATOM      8  C   UNL     1       0.386   5.504  -3.069  0.00  0.00    +0.115 A 
ATOM      9  N   UNL     1       1.273   5.712  -4.022  0.00  0.00    -0.263 NA
ATOM     10  C   UNL     1       0.910   6.012  -5.253  0.00  0.00    +0.111 A 
ATOM     11  C   UNL     1      -0.427   6.121  -5.590  0.00  0.00    +0.020 A 
ATOM     12  C   UNL     1      -1.388   5.904  -4.615  0.00  0.00    +0.008 A 
ENDBRANCH   3   7
TORSDOF 1
ENDMDL
MODEL 2
REMARK VINA RESULT:    -3.002      1.133      4.712
REMARK INTER + INTRA:          -3.393
REMARK INTER:                  -3.208
REMARK INTRA:                  -0.185
REMARK UNBOUND:                -0.215
REMARK  Name = Nicotine.pdb
REMARK  2 active torsions:
REMARK  status: ('A' for Active; 'I' for Inactive)
REMARK    1  A    between atoms: C_3  and  C_6
REMARK    2  A    between atoms: N_4  and  C_12
REMARK                            x       y       z     vdW  Elec       q    Type
REMARK                         _______ _______ _______ _____ _____    ______ ____
ROOT
ATOM      1  C   UNL     1      -0.471   6.500  -5.820  0.00  0.00    +0.017 C 
ATOM      2  C   UNL     1      -1.378   6.149  -4.612  0.00  0.00    +0.025 C 
ATOM      3  C   UNL     1      -0.374   6.033  -3.446  0.00  0.00    +0.088 C 
ATOM      4  N   UNL     1       0.950   5.762  -4.035  0.00  0.00    -0.298 NA
ATOM      5  C   UNL     1       0.804   5.679  -5.504  0.00  0.00    +0.085 C 
ATOM      6  C   UNL     1       1.917   6.801  -3.659  0.00  0.00    +0.105 C 
ENDROOT
BRANCH   3   7
ATOM      7  C   UNL     1      -0.773   4.902  -2.535  0.00  0.00    -0.012 A 
ATOM      8  C   UNL     1      -2.067   4.417  -2.548  0.00  0.00    +0.115 A 
ATOM      9  N   UNL     1      -2.425   3.426  -1.754  0.00  0.00    -0.263 NA
ATOM     10  C   UNL     1      -1.572   2.863  -0.922  0.00  0.00    +0.111 A 
ATOM     11  C   UNL     1      -0.260   3.294  -0.853  0.00  0.00    +0.020 A 
ATOM     12  C   UNL     1       0.154   4.330  -1.676  0.00  0.00    +0.008 A 
ENDBRANCH   3   7
TORSDOF 1
ENDMDL
MODEL 3
REMARK VINA RESULT:    -2.841      1.053      1.992
REMARK INTER + INTRA:          -3.223
REMARK INTER:                  -2.967
REMARK INTRA:                  -0.256
REMARK UNBOUND:                -0.215
REMARK  Name = Nicotine.pdb
REMARK  2 active torsions:
REMARK  status: ('A' for Active; 'I' for Inactive)
REMARK    1  A    between atoms: C_3  and  C_6
REMARK    2  A    between atoms: N_4  and  C_12
REMARK                            x       y       z     vdW  Elec       q    Type
REMARK                         _______ _______ _______ _____ _____    ______ ____
ROOT
ATOM      1  C   UNL     1      -4.391   4.850  -1.689  0.00  0.00    +0.017 C 
ATOM      2  C   UNL     1      -3.389   4.404  -2.787  0.00  0.00    +0.025 C 
ATOM      3  C   UNL     1      -2.017   4.651  -2.125  0.00  0.00    +0.088 C 
ATOM      4  N   UNL     1      -2.219   5.649  -1.059  0.00  0.00    -0.298 NA
ATOM      5  C   UNL     1      -3.643   6.046  -1.050  0.00  0.00    +0.085 C 
ATOM      6  C   UNL     1      -1.813   5.115   0.247  0.00  0.00    +0.105 C 
ENDROOT
BRANCH   3   7
ATOM      7  C   UNL     1      -1.043   5.179  -3.146  0.00  0.00    -0.012 A 
ATOM      8  C   UNL     1       0.316   5.160  -2.891  0.00  0.00    +0.115 A 
ATOM      9  N   UNL     1       1.175   5.620  -3.779  0.00  0.00    -0.263 NA
ATOM     10  C   UNL     1       0.779   6.113  -4.936  0.00  0.00    +0.111 A 
ATOM     11  C   UNL     1      -0.564   6.165  -5.261  0.00  0.00    +0.020 A 
ATOM     12  C   UNL     1      -1.496   5.685  -4.354  0.00  0.00    +0.008 A 
ENDBRANCH   3   7
TORSDOF 1
ENDMDL
MODEL 4
REMARK VINA RESULT:    -2.734      9.034      9.738
REMARK INTER + INTRA:          -3.109
REMARK INTER:                  -2.901
REMARK INTRA:                  -0.209
REMARK UNBOUND:                -0.215
REMARK  Name = Nicotine.pdb
REMARK  2 active torsions:
REMARK  status: ('A' for Active; 'I' for Inactive)
REMARK    1  A    between atoms: C_3  and  C_6
REMARK    2  A    between atoms: N_4  and  C_12
REMARK                            x       y       z     vdW  Elec       q    Type
REMARK                         _______ _______ _______ _____ _____    ______ ____
ROOT
ATOM      1  C   UNL     1       4.597  -0.665  -1.257  0.00  0.00    +0.017 C 
ATOM      2  C   UNL     1       4.279  -0.532  -2.770  0.00  0.00    +0.025 C 
ATOM      3  C   UNL     1       4.045  -1.994  -3.205  0.00  0.00    +0.088 C 
ATOM      4  N   UNL     1       4.727  -2.856  -2.224  0.00  0.00    -0.298 NA
ATOM      5  C   UNL     1       5.389  -1.996  -1.220  0.00  0.00    +0.085 C 
ATOM      6  C   UNL     1       3.779  -3.778  -1.584  0.00  0.00    +0.105 C 
ENDROOT
BRANCH   3   7
ATOM      7  C   UNL     1       4.626  -2.219  -4.578  0.00  0.00    -0.012 A 
ATOM      8  C   UNL     1       4.009  -1.685  -5.693  0.00  0.00    +0.115 A 
ATOM      9  N   UNL     1       4.511  -1.877  -6.898  0.00  0.00    -0.263 NA
ATOM     10  C   UNL     1       5.610  -2.579  -7.087  0.00  0.00    +0.111 A 
ATOM     11  C   UNL     1       6.282  -3.144  -6.019  0.00  0.00    +0.020 A 
ATOM     12  C   UNL     1       5.787  -2.959  -4.737  0.00  0.00    +0.008 A 
ENDBRANCH   3   7
TORSDOF 1
ENDMDL
MODEL 5
REMARK VINA RESULT:    -2.718      2.159      4.092
REMARK INTER + INTRA:          -3.092
REMARK INTER:                  -2.881
REMARK INTRA:                  -0.211
REMARK UNBOUND:                -0.215
REMARK  Name = Nicotine.pdb
REMARK  2 active torsions:
REMARK  status: ('A' for Active; 'I' for Inactive)
REMARK    1  A    between atoms: C_3  and  C_6
REMARK    2  A    between atoms: N_4  and  C_12
REMARK                            x       y       z     vdW  Elec       q    Type
REMARK                         _______ _______ _______ _____ _____    ______ ____
ROOT
ATOM      1  C   UNL     1       2.433   3.945  -0.269  0.00  0.00    +0.017 C 
ATOM      2  C   UNL     1       1.380   3.332  -1.229  0.00  0.00    +0.025 C 
ATOM      3  C   UNL     1       0.885   4.555  -2.029  0.00  0.00    +0.088 C 
ATOM      4  N   UNL     1       1.175   5.753  -1.220  0.00  0.00    -0.298 NA
ATOM      5  C   UNL     1       1.801   5.323   0.048  0.00  0.00    +0.085 C 
ATOM      6  C   UNL     1       2.046   6.683  -1.950  0.00  0.00    +0.105 C 
ENDROOT
BRANCH   3   7
ATOM      7  C   UNL     1      -0.599   4.445  -2.270  0.00  0.00    -0.012 A 
ATOM      8  C   UNL     1      -1.333   3.445  -1.661  0.00  0.00    +0.115 A 
ATOM      9  N   UNL     1      -2.632   3.341  -1.866  0.00  0.00    -0.263 NA
ATOM     10  C   UNL     1      -3.278   4.178  -2.653  0.00  0.00    +0.111 A 
ATOM     11  C   UNL     1      -2.610   5.204  -3.295  0.00  0.00    +0.020 A 
ATOM     12  C   UNL     1      -1.245   5.348  -3.100  0.00  0.00    +0.008 A 
ENDBRANCH   3   7
TORSDOF 1
ENDMDL
MODEL 6
REMARK VINA RESULT:    -2.699     10.168     10.875
REMARK INTER + INTRA:          -3.072
REMARK INTER:                  -2.824
REMARK INTRA:                  -0.247
REMARK UNBOUND:                -0.215
REMARK  Name = Nicotine.pdb
REMARK  2 active torsions:
REMARK  status: ('A' for Active; 'I' for Inactive)
REMARK    1  A    between atoms: C_3  and  C_6
REMARK    2  A    between atoms: N_4  and  C_12
REMARK                            x       y       z     vdW  Elec       q    Type
REMARK                         _______ _______ _______ _____ _____    ______ ____
ROOT
ATOM      1  C   UNL     1       7.065  -3.921  -1.575  0.00  0.00    +0.017 C 
ATOM      2  C   UNL     1       7.010  -2.892  -2.735  0.00  0.00    +0.025 C 
ATOM      3  C   UNL     1       5.507  -2.843  -3.084  0.00  0.00    +0.088 C 
ATOM      4  N   UNL     1       4.906  -4.101  -2.604  0.00  0.00    -0.298 NA
ATOM      5  C   UNL     1       5.970  -4.931  -2.000  0.00  0.00    +0.085 C 
ATOM      6  C   UNL     1       3.832  -3.837  -1.639  0.00  0.00    +0.105 C 
ENDROOT
BRANCH   3   7
ATOM      7  C   UNL     1       5.331  -2.726  -4.576  0.00  0.00    -0.012 A 
ATOM      8  C   UNL     1       4.364  -1.891  -5.103  0.00  0.00    +0.115 A 
ATOM      9  N   UNL     1       4.204  -1.782  -6.407  0.00  0.00    -0.263 NA
ATOM     10  C   UNL     1       4.951  -2.459  -7.256  0.00  0.00    +0.111 A 
ATOM     11  C   UNL     1       5.939  -3.314  -6.803  0.00  0.00    +0.020 A 
ATOM     12  C   UNL     1       6.140  -3.450  -5.439  0.00  0.00    +0.008 A 
ENDBRANCH   3   7
TORSDOF 1
ENDMDL
MODEL 7
REMARK VINA RESULT:    -2.665      1.393      4.537
REMARK INTER + INTRA:          -3.037
REMARK INTER:                  -2.813
REMARK INTRA:                  -0.223
REMARK UNBOUND:                -0.215
REMARK  Name = Nicotine.pdb
REMARK  2 active torsions:
REMARK  status: ('A' for Active; 'I' for Inactive)
REMARK    1  A    between atoms: C_3  and  C_6
REMARK    2  A    between atoms: N_4  and  C_12
REMARK                            x       y       z     vdW  Elec       q    Type
REMARK                         _______ _______ _______ _____ _____    ______ ____
ROOT
ATOM      1  C   UNL     1      -0.095   6.880  -5.617  0.00  0.00    +0.017 C 
ATOM      2  C   UNL     1      -1.436   7.028  -4.851  0.00  0.00    +0.025 C 
ATOM      3  C   UNL     1      -1.106   6.448  -3.459  0.00  0.00    +0.088 C 
ATOM      4  N   UNL     1       0.058   5.559  -3.621  0.00  0.00    -0.298 NA
ATOM      5  C   UNL     1       0.445   5.544  -5.048  0.00  0.00    +0.085 C 
ATOM      6  C   UNL     1       1.177   5.996  -2.776  0.00  0.00    +0.105 C 
ENDROOT
BRANCH   3   7
ATOM      7  C   UNL     1      -2.283   5.664  -2.938  0.00  0.00    -0.012 A 
ATOM      8  C   UNL     1      -2.144   4.328  -2.612  0.00  0.00    +0.115 A 
ATOM      9  N   UNL     1      -3.169   3.635  -2.155  0.00  0.00    -0.263 NA
ATOM     10  C   UNL     1      -4.357   4.181  -1.993  0.00  0.00    +0.111 A 
ATOM     11  C   UNL     1      -4.572   5.513  -2.298  0.00  0.00    +0.020 A 
ATOM     12  C   UNL     1      -3.517   6.274  -2.776  0.00  0.00    +0.008 A 
ENDBRANCH   3   7
TORSDOF 1
ENDMDL
MODEL 8
REMARK VINA RESULT:    -2.632      1.693      3.208
REMARK INTER + INTRA:          -3.002
REMARK INTER:                  -2.807
REMARK INTRA:                  -0.195
REMARK UNBOUND:                -0.215
REMARK  Name = Nicotine.pdb
REMARK  2 active torsions:
REMARK  status: ('A' for Active; 'I' for Inactive)
REMARK    1  A    between atoms: C_3  and  C_6
REMARK    2  A    between atoms: N_4  and  C_12
REMARK                            x       y       z     vdW  Elec       q    Type
REMARK                         _______ _______ _______ _____ _____    ______ ____
ROOT
ATOM      1  C   UNL     1      -3.223   6.993  -3.906  0.00  0.00    +0.017 C 
ATOM      2  C   UNL     1      -1.904   6.204  -4.115  0.00  0.00    +0.025 C 
ATOM      3  C   UNL     1      -2.099   4.959  -3.224  0.00  0.00    +0.088 C 
ATOM      4  N   UNL     1      -3.110   5.303  -2.208  0.00  0.00    -0.298 NA
ATOM      5  C   UNL     1      -3.526   6.707  -2.415  0.00  0.00    +0.085 C 
ATOM      6  C   UNL     1      -4.261   4.395  -2.281  0.00  0.00    +0.105 C 
ENDROOT
BRANCH   3   7
ATOM      7  C   UNL     1      -0.798   4.599  -2.554  0.00  0.00    -0.012 A 
ATOM      8  C   UNL     1       0.366   5.267  -2.882  0.00  0.00    +0.115 A 
ATOM      9  N   UNL     1       1.508   4.958  -2.301  0.00  0.00    -0.263 NA
ATOM     10  C   UNL     1       1.588   4.008  -1.390  0.00  0.00    +0.111 A 
ATOM     11  C   UNL     1       0.465   3.296  -1.010  0.00  0.00    +0.020 A 
ATOM     12  C   UNL     1      -0.755   3.597  -1.596  0.00  0.00    +0.008 A 
ENDBRANCH   3   7
TORSDOF 1
ENDMDL
MODEL 9
REMARK VINA RESULT:    -2.560      1.927      2.505
REMARK INTER + INTRA:          -2.925
REMARK INTER:                  -2.671
REMARK INTRA:                  -0.253
REMARK UNBOUND:                -0.215
REMARK  Name = Nicotine.pdb
REMARK  2 active torsions:
REMARK  status: ('A' for Active; 'I' for Inactive)
REMARK    1  A    between atoms: C_3  and  C_6
REMARK    2  A    between atoms: N_4  and  C_12
REMARK                            x       y       z     vdW  Elec       q    Type
REMARK                         _______ _______ _______ _____ _____    ______ ____
ROOT
ATOM      1  C   UNL     1       1.389   4.961   0.385  0.00  0.00    +0.017 C 
ATOM      2  C   UNL     1       0.867   5.959  -0.681  0.00  0.00    +0.025 C 
ATOM      3  C   UNL     1      -0.344   5.218  -1.287  0.00  0.00    +0.088 C 
ATOM      4  N   UNL     1      -0.153   3.781  -1.023  0.00  0.00    -0.298 NA
ATOM      5  C   UNL     1       1.127   3.599  -0.306  0.00  0.00    +0.085 C 
ATOM      6  C   UNL     1      -1.274   3.235  -0.247  0.00  0.00    +0.105 C 
ENDROOT
BRANCH   3   7
ATOM      7  C   UNL     1      -0.404   5.465  -2.773  0.00  0.00    -0.012 A 
ATOM      8  C   UNL     1      -1.623   5.552  -3.418  0.00  0.00    +0.115 A 
ATOM      9  N   UNL     1      -1.684   5.767  -4.718  0.00  0.00    -0.263 NA
ATOM     10  C   UNL     1      -0.597   5.906  -5.449  0.00  0.00    +0.111 A 
ATOM     11  C   UNL     1       0.658   5.832  -4.873  0.00  0.00    +0.020 A 
ATOM     12  C   UNL     1       0.762   5.612  -3.508  0.00  0.00    +0.008 A 
ENDBRANCH   3   7
TORSDOF 1
ENDMDL
MODEL 10
REMARK VINA RESULT:    -2.508     10.092     11.472
REMARK INTER + INTRA:          -2.870
REMARK INTER:                  -2.615
REMARK INTRA:                  -0.255
REMARK UNBOUND:                -0.215
REMARK  Name = Nicotine.pdb
REMARK  2 active torsions:
REMARK  status: ('A' for Active; 'I' for Inactive)
REMARK    1  A    between atoms: C_3  and  C_6
REMARK    2  A    between atoms: N_4  and  C_12
REMARK                            x       y       z     vdW  Elec       q    Type
REMARK                         _______ _______ _______ _____ _____    ______ ____
ROOT
ATOM      1  C   UNL     1       5.465  -1.220  -6.834  0.00  0.00    +0.017 C 
ATOM      2  C   UNL     1       5.766  -1.229  -5.312  0.00  0.00    +0.025 C 
ATOM      3  C   UNL     1       6.196  -2.688  -5.052  0.00  0.00    +0.088 C 
ATOM      4  N   UNL     1       5.635  -3.509  -6.140  0.00  0.00    -0.298 NA
ATOM      5  C   UNL     1       4.861  -2.631  -7.042  0.00  0.00    +0.085 C 
ATOM      6  C   UNL     1       6.697  -4.211  -6.871  0.00  0.00    +0.105 C 
ENDROOT
BRANCH   3   7
ATOM      7  C   UNL     1       5.654  -3.153  -3.725  0.00  0.00    -0.012 A 
ATOM      8  C   UNL     1       6.316  -4.127  -3.002  0.00  0.00    +0.115 A 
ATOM      9  N   UNL     1       5.849  -4.540  -1.840  0.00  0.00    -0.263 NA
ATOM     10  C   UNL     1       4.741  -4.046  -1.324  0.00  0.00    +0.111 A 
ATOM     11  C   UNL     1       4.024  -3.069  -1.989  0.00  0.00    +0.020 A 
ATOM     12  C   UNL     1       4.488  -2.606  -3.211  0.00  0.00    +0.008 A 
ENDBRANCH   3   7
TORSDOF 1
ENDMDL
