MODEL 1
REMARK VINA RESULT:    -3.395      0.000      0.000
REMARK INTER + INTRA:          -3.817
REMARK INTER:                  -3.593
REMARK INTRA:                  -0.224
REMARK UNBOUND:                -0.224
REMARK  Name = Nicotine.pdb
REMARK  2 active torsions:
REMARK  status: ('A' for Active; 'I' for Inactive)
REMARK    1  A    between atoms: C_3  and  C_6
REMARK    2  A    between atoms: N_4  and  C_12
REMARK                            x       y       z     vdW  Elec       q    Type
REMARK                         _______ _______ _______ _____ _____    ______ ____
ROOT
ATOM      1  C   UNL     1      -3.246  -5.246  -3.637  0.00  0.00    +0.017 C 
ATOM      2  C   UNL     1      -2.718  -3.801  -3.435  0.00  0.00    +0.025 C 
ATOM      3  C   UNL     1      -3.161  -3.086  -4.729  0.00  0.00    +0.088 C 
ATOM      4  N   UNL     1      -3.368  -4.125  -5.754  0.00  0.00    -0.298 NA
ATOM      5  C   UNL     1      -3.049  -5.441  -5.161  0.00  0.00    +0.085 C 
ATOM      6  C   UNL     1      -4.744  -4.096  -6.264  0.00  0.00    +0.105 C 
ENDROOT
BRANCH   3   7
ATOM      7  C   UNL     1      -2.088  -2.127  -5.178  0.00  0.00    -0.012 A 
ATOM      8  C   UNL     1      -2.131  -1.573  -6.443  0.00  0.00    +0.115 A 
ATOM      9  N   UNL     1      -1.196  -0.734  -6.844  0.00  0.00    -0.263 NA
ATOM     10  C   UNL     1      -0.192  -0.390  -6.062  0.00  0.00    +0.111 A 
ATOM     11  C   UNL     1      -0.083  -0.903  -4.783  0.00  0.00    +0.020 A 
ATOM     12  C   UNL     1      -1.050  -1.785  -4.325  0.00  0.00    +0.008 A 
ENDBRANCH   3   7
TORSDOF 1
ENDMDL
MODEL 2
REMARK VINA RESULT:    -3.314      1.568      4.246
REMARK INTER + INTRA:          -3.732
REMARK INTER:                  -3.552
REMARK INTRA:                  -0.179
REMARK UNBOUND:                -0.224
REMARK  Name = Nicotine.pdb
REMARK  2 active torsions:
REMARK  status: ('A' for Active; 'I' for Inactive)
REMARK    1  A    between atoms: C_3  and  C_6
REMARK    2  A    between atoms: N_4  and  C_12
REMARK                            x       y       z     vdW  Elec       q    Type
REMARK                         _______ _______ _______ _____ _____    ______ ____
ROOT
ATOM      1  C   UNL     1       0.293  -0.453  -6.106  0.00  0.00    +0.017 C 
ATOM      2  C   UNL     1      -0.595  -0.804  -4.884  0.00  0.00    +0.025 C 
ATOM      3  C   UNL     1      -0.760  -2.334  -5.002  0.00  0.00    +0.088 C 
ATOM      4  N   UNL     1      -0.510  -2.693  -6.410  0.00  0.00    -0.298 NA
ATOM      5  C   UNL     1      -0.224  -1.456  -7.167  0.00  0.00    +0.085 C 
ATOM      6  C   UNL     1       0.600  -3.647  -6.521  0.00  0.00    +0.105 C 
ENDROOT
BRANCH   3   7
ATOM      7  C   UNL     1      -2.161  -2.730  -4.612  0.00  0.00    -0.012 A 
ATOM      8  C   UNL     1      -3.247  -2.232  -5.305  0.00  0.00    +0.115 A 
ATOM      9  N   UNL     1      -4.476  -2.573  -4.970  0.00  0.00    -0.263 NA
ATOM     10  C   UNL     1      -4.718  -3.397  -3.969  0.00  0.00    +0.111 A 
ATOM     11  C   UNL     1      -3.681  -3.935  -3.230  0.00  0.00    +0.020 A 
ATOM     12  C   UNL     1      -2.376  -3.603  -3.556  0.00  0.00    +0.008 A 
ENDBRANCH   3   7
TORSDOF 1
ENDMDL
MODEL 3
REMARK VINA RESULT:    -3.310      1.852      2.445
REMARK INTER + INTRA:          -3.727
REMARK INTER:                  -3.474
REMARK INTRA:                  -0.254
REMARK UNBOUND:                -0.224
REMARK  Name = Nicotine.pdb
REMARK  2 active torsions:
REMARK  status: ('A' for Active; 'I' for Inactive)
REMARK    1  A    between atoms: C_3  and  C_6
REMARK    2  A    between atoms: N_4  and  C_12
REMARK                            x       y       z     vdW  Elec       q    Type
REMARK                         _______ _______ _______ _____ _____    ______ ____
ROOT
ATOM      1  C   UNL     1      -3.236  -3.532  -4.418  0.00  0.00    +0.017 C 
ATOM      2  C   UNL     1      -1.786  -3.008  -4.243  0.00  0.00    +0.025 C 
ATOM      3  C   UNL     1      -1.758  -1.756  -5.145  0.00  0.00    +0.088 C 
ATOM      4  N   UNL     1      -2.836  -1.909  -6.138  0.00  0.00    -0.298 NA
ATOM      5  C   UNL     1      -3.509  -3.205  -5.907  0.00  0.00    +0.085 C 
ATOM      6  C   UNL     1      -3.791  -0.796  -6.054  0.00  0.00    +0.105 C 
ENDROOT
BRANCH   3   7
ATOM      7  C   UNL     1      -0.426  -1.657  -5.842  0.00  0.00    -0.012 A 
ATOM      8  C   UNL     1       0.124  -0.421  -6.126  0.00  0.00    +0.115 A 
ATOM      9  N   UNL     1       1.289  -0.325  -6.737  0.00  0.00    -0.263 NA
ATOM     10  C   UNL     1       1.972  -1.393  -7.099  0.00  0.00    +0.111 A 
ATOM     11  C   UNL     1       1.485  -2.662  -6.847  0.00  0.00    +0.020 A 
ATOM     12  C   UNL     1       0.266  -2.803  -6.203  0.00  0.00    +0.008 A 
ENDBRANCH   3   7
TORSDOF 1
ENDMDL
MODEL 4
REMARK VINA RESULT:    -3.296      1.861      4.160
REMARK INTER + INTRA:          -3.712
REMARK INTER:                  -3.462
REMARK INTRA:                  -0.250
REMARK UNBOUND:                -0.224
REMARK  Name = Nicotine.pdb
REMARK  2 active torsions:
REMARK  status: ('A' for Active; 'I' for Inactive)
REMARK    1  A    between atoms: C_3  and  C_6
REMARK    2  A    between atoms: N_4  and  C_12
REMARK                            x       y       z     vdW  Elec       q    Type
REMARK                         _______ _______ _______ _____ _____    ______ ____
ROOT
ATOM      1  C   UNL     1       1.204  -1.213  -6.095  0.00  0.00    +0.017 C 
ATOM      2  C   UNL     1      -0.033  -1.024  -5.178  0.00  0.00    +0.025 C 
ATOM      3  C   UNL     1      -0.766  -2.377  -5.300  0.00  0.00    +0.088 C 
ATOM      4  N   UNL     1      -0.328  -2.999  -6.563  0.00  0.00    -0.298 NA
ATOM      5  C   UNL     1       0.619  -2.083  -7.235  0.00  0.00    +0.085 C 
ATOM      6  C   UNL     1       0.290  -4.309  -6.319  0.00  0.00    +0.105 C 
ENDROOT
BRANCH   3   7
ATOM      7  C   UNL     1      -2.255  -2.153  -5.328  0.00  0.00    -0.012 A 
ATOM      8  C   UNL     1      -3.106  -3.027  -4.677  0.00  0.00    +0.115 A 
ATOM      9  N   UNL     1      -4.411  -2.838  -4.696  0.00  0.00    -0.263 NA
ATOM     10  C   UNL     1      -4.954  -1.819  -5.330  0.00  0.00    +0.111 A 
ATOM     11  C   UNL     1      -4.167  -0.903  -6.003  0.00  0.00    +0.020 A 
ATOM     12  C   UNL     1      -2.791  -1.066  -6.001  0.00  0.00    +0.008 A 
ENDBRANCH   3   7
TORSDOF 1
ENDMDL
MODEL 5
REMARK VINA RESULT:    -3.206      3.452      4.798
REMARK INTER + INTRA:          -3.617
REMARK INTER:                  -3.368
REMARK INTRA:                  -0.249
REMARK UNBOUND:                -0.224
REMARK  Name = Nicotine.pdb
REMARK  2 active torsions:
REMARK  status: ('A' for Active; 'I' for Inactive)
REMARK    1  A    between atoms: C_3  and  C_6
REMARK    2  A    between atoms: N_4  and  C_12
REMARK                            x       y       z     vdW  Elec       q    Type
REMARK                         _______ _______ _______ _____ _____    ______ ____
ROOT
ATOM      1  C   UNL     1      -0.348  -0.089  -5.519  0.00  0.00    +0.017 C 
ATOM      2  C   UNL     1       0.770  -0.725  -6.386  0.00  0.00    +0.025 C 
ATOM      3  C   UNL     1       0.332  -2.201  -6.490  0.00  0.00    +0.088 C 
ATOM      4  N   UNL     1      -0.564  -2.471  -5.351  0.00  0.00    -0.298 NA
ATOM      5  C   UNL     1      -0.678  -1.242  -4.539  0.00  0.00    +0.085 C 
ATOM      6  C   UNL     1      -1.884  -2.921  -5.814  0.00  0.00    +0.105 C 
ENDROOT
BRANCH   3   7
ATOM      7  C   UNL     1       1.538  -3.101  -6.420  0.00  0.00    -0.012 A 
ATOM      8  C   UNL     1       1.411  -4.459  -6.643  0.00  0.00    +0.115 A 
ATOM      9  N   UNL     1       2.462  -5.253  -6.584  0.00  0.00    -0.263 NA
ATOM     10  C   UNL     1       3.666  -4.790  -6.311  0.00  0.00    +0.111 A 
ATOM     11  C   UNL     1       3.871  -3.443  -6.077  0.00  0.00    +0.020 A 
ATOM     12  C   UNL     1       2.790  -2.577  -6.136  0.00  0.00    +0.008 A 
ENDBRANCH   3   7
TORSDOF 1
ENDMDL
MODEL 6
REMARK VINA RESULT:    -3.135      8.717      9.849
REMARK INTER + INTRA:          -3.542
REMARK INTER:                  -3.332
REMARK INTRA:                  -0.210
REMARK UNBOUND:                -0.224
REMARK  Name = Nicotine.pdb
REMARK  2 active torsions:
REMARK  status: ('A' for Active; 'I' for Inactive)
REMARK    1  A    between atoms: C_3  and  C_6
REMARK    2  A    between atoms: N_4  and  C_12
REMARK                            x       y       z     vdW  Elec       q    Type
REMARK                         _______ _______ _______ _____ _____    ______ ____
ROOT
ATOM      1  C   UNL     1      -2.524  -3.608   1.604  0.00  0.00    +0.017 C 
ATOM      2  C   UNL     1      -1.432  -2.748   2.294  0.00  0.00    +0.025 C 
ATOM      3  C   UNL     1      -1.674  -3.018   3.794  0.00  0.00    +0.088 C 
ATOM      4  N   UNL     1      -3.067  -3.477   3.937  0.00  0.00    -0.298 NA
ATOM      5  C   UNL     1      -3.702  -3.477   2.602  0.00  0.00    +0.085 C 
ATOM      6  C   UNL     1      -3.124  -4.811   4.548  0.00  0.00    +0.105 C 
ENDROOT
BRANCH   3   7
ATOM      7  C   UNL     1      -1.466  -1.752   4.583  0.00  0.00    -0.012 A 
ATOM      8  C   UNL     1      -0.455  -1.671   5.522  0.00  0.00    +0.115 A 
ATOM      9  N   UNL     1      -0.266  -0.566   6.217  0.00  0.00    -0.263 NA
ATOM     10  C   UNL     1      -1.026   0.497   6.048  0.00  0.00    +0.111 A 
ATOM     11  C   UNL     1      -2.057   0.491   5.127  0.00  0.00    +0.020 A 
ATOM     12  C   UNL     1      -2.282  -0.651   4.374  0.00  0.00    +0.008 A 
ENDBRANCH   3   7
TORSDOF 1
ENDMDL
MODEL 7
REMARK VINA RESULT:    -2.987     10.670     11.773
REMARK INTER + INTRA:          -3.385
REMARK INTER:                  -3.169
REMARK INTRA:                  -0.216
REMARK UNBOUND:                -0.224
REMARK  Name = Nicotine.pdb
REMARK  2 active torsions:
REMARK  status: ('A' for Active; 'I' for Inactive)
REMARK    1  A    between atoms: C_3  and  C_6
REMARK    2  A    between atoms: N_4  and  C_12
REMARK                            x       y       z     vdW  Elec       q    Type
REMARK                         _______ _______ _______ _____ _____    ______ ____
ROOT
ATOM      1  C   UNL     1      -4.094   3.918   3.521  0.00  0.00    +0.017 C 
ATOM      2  C   UNL     1      -2.963   4.806   4.102  0.00  0.00    +0.025 C 
ATOM      3  C   UNL     1      -2.854   5.948   3.070  0.00  0.00    +0.088 C 
ATOM      4  N   UNL     1      -3.415   5.448   1.803  0.00  0.00    -0.298 NA
ATOM      5  C   UNL     1      -3.841   4.045   1.998  0.00  0.00    +0.085 C 
ATOM      6  C   UNL     1      -4.539   6.282   1.358  0.00  0.00    +0.105 C 
ENDROOT
BRANCH   3   7
ATOM      7  C   UNL     1      -1.409   6.329   2.877  0.00  0.00    -0.012 A 
ATOM      8  C   UNL     1      -0.941   6.689   1.627  0.00  0.00    +0.115 A 
ATOM      9  N   UNL     1       0.322   7.023   1.450  0.00  0.00    -0.263 NA
ATOM     10  C   UNL     1       1.184   7.028   2.447  0.00  0.00    +0.111 A 
ATOM     11  C   UNL     1       0.790   6.680   3.725  0.00  0.00    +0.020 A 
ATOM     12  C   UNL     1      -0.532   6.327   3.951  0.00  0.00    +0.008 A 
ENDBRANCH   3   7
TORSDOF 1
ENDMDL
MODEL 8
REMARK VINA RESULT:    -2.947     10.121     11.322
REMARK INTER + INTRA:          -3.343
REMARK INTER:                  -3.102
REMARK INTRA:                  -0.240
REMARK UNBOUND:                -0.224
REMARK  Name = Nicotine.pdb
REMARK  2 active torsions:
REMARK  status: ('A' for Active; 'I' for Inactive)
REMARK    1  A    between atoms: C_3  and  C_6
REMARK    2  A    between atoms: N_4  and  C_12
REMARK                            x       y       z     vdW  Elec       q    Type
REMARK                         _______ _______ _______ _____ _____    ______ ____
ROOT
ATOM      1  C   UNL     1      -4.037   2.764   2.876  0.00  0.00    +0.017 C 
ATOM      2  C   UNL     1      -3.986   1.470   3.730  0.00  0.00    +0.025 C 
ATOM      3  C   UNL     1      -2.885   1.781   4.766  0.00  0.00    +0.088 C 
ATOM      4  N   UNL     1      -2.036   2.842   4.196  0.00  0.00    -0.298 NA
ATOM      5  C   UNL     1      -2.545   3.181   2.850  0.00  0.00    +0.085 C 
ATOM      6  C   UNL     1      -2.016   4.025   5.066  0.00  0.00    +0.105 C 
ENDROOT
BRANCH   3   7
ATOM      7  C   UNL     1      -2.061   0.546   5.025  0.00  0.00    -0.012 A 
ATOM      8  C   UNL     1      -1.015   0.580   5.927  0.00  0.00    +0.115 A 
ATOM      9  N   UNL     1      -0.289  -0.496   6.159  0.00  0.00    -0.263 NA
ATOM     10  C   UNL     1      -0.528  -1.639   5.546  0.00  0.00    +0.111 A 
ATOM     11  C   UNL     1      -1.558  -1.749   4.631  0.00  0.00    +0.020 A 
ATOM     12  C   UNL     1      -2.346  -0.640   4.365  0.00  0.00    +0.008 A 
ENDBRANCH   3   7
TORSDOF 1
ENDMDL
MODEL 9
REMARK VINA RESULT:    -2.943     10.442     11.395
REMARK INTER + INTRA:          -3.339
REMARK INTER:                  -3.084
REMARK INTRA:                  -0.256
REMARK UNBOUND:                -0.224
REMARK  Name = Nicotine.pdb
REMARK  2 active torsions:
REMARK  status: ('A' for Active; 'I' for Inactive)
REMARK    1  A    between atoms: C_3  and  C_6
REMARK    2  A    between atoms: N_4  and  C_12
REMARK                            x       y       z     vdW  Elec       q    Type
REMARK                         _______ _______ _______ _____ _____    ______ ____
ROOT
ATOM      1  C   UNL     1      -3.503   1.801   4.471  0.00  0.00    +0.017 C 
ATOM      2  C   UNL     1      -3.520   2.454   3.064  0.00  0.00    +0.025 C 
ATOM      3  C   UNL     1      -2.517   3.619   3.210  0.00  0.00    +0.088 C 
ATOM      4  N   UNL     1      -2.420   3.934   4.647  0.00  0.00    -0.298 NA
ATOM      5  C   UNL     1      -3.332   3.037   5.388  0.00  0.00    +0.085 C 
ATOM      6  C   UNL     1      -1.039   3.793   5.125  0.00  0.00    +0.105 C 
ENDROOT
BRANCH   3   7
ATOM      7  C   UNL     1      -3.015   4.822   2.453  0.00  0.00    -0.012 A 
ATOM      8  C   UNL     1      -2.155   5.858   2.142  0.00  0.00    +0.115 A 
ATOM      9  N   UNL     1      -2.583   6.915   1.479  0.00  0.00    -0.263 NA
ATOM     10  C   UNL     1      -3.837   7.027   1.089  0.00  0.00    +0.111 A 
ATOM     11  C   UNL     1      -4.755   6.031   1.363  0.00  0.00    +0.020 A 
ATOM     12  C   UNL     1      -4.341   4.903   2.053  0.00  0.00    +0.008 A 
ENDBRANCH   3   7
TORSDOF 1
ENDMDL
