MODEL 1
REMARK VINA RESULT:    -3.909      0.000      0.000
REMARK INTER + INTRA:          -4.359
REMARK INTER:                  -4.137
REMARK INTRA:                  -0.222
REMARK UNBOUND:                -0.222
REMARK  Name = Nicotine.pdb
REMARK  2 active torsions:
REMARK  status: ('A' for Active; 'I' for Inactive)
REMARK    1  A    between atoms: C_3  and  C_6
REMARK    2  A    between atoms: N_4  and  C_12
REMARK                            x       y       z     vdW  Elec       q    Type
REMARK                         _______ _______ _______ _____ _____    ______ ____
ROOT
ATOM      1  C   UNL     1      10.921  -1.913  -4.495  0.00  0.00    +0.017 C 
ATOM      2  C   UNL     1      10.676  -0.979  -3.281  0.00  0.00    +0.025 C 
ATOM      3  C   UNL     1       9.241  -1.346  -2.845  0.00  0.00    +0.088 C 
ATOM      4  N   UNL     1       8.572  -1.951  -4.011  0.00  0.00    -0.298 NA
ATOM      5  C   UNL     1       9.517  -1.952  -5.148  0.00  0.00    +0.085 C 
ATOM      6  C   UNL     1       8.112  -3.312  -3.706  0.00  0.00    +0.105 C 
ENDROOT
BRANCH   3   7
ATOM      7  C   UNL     1       8.503  -0.104  -2.416  0.00  0.00    -0.012 A 
ATOM      8  C   UNL     1       7.259   0.187  -2.944  0.00  0.00    +0.115 A 
ATOM      9  N   UNL     1       6.606   1.271  -2.574  0.00  0.00    -0.263 NA
ATOM     10  C   UNL     1       7.107   2.116  -1.694  0.00  0.00    +0.111 A 
ATOM     11  C   UNL     1       8.345   1.890  -1.123  0.00  0.00    +0.020 A 
ATOM     12  C   UNL     1       9.059   0.758  -1.484  0.00  0.00    +0.008 A 
ENDBRANCH   3   7
TORSDOF 1
ENDMDL
MODEL 2
REMARK VINA RESULT:    -3.756      1.659      4.598
REMARK INTER + INTRA:          -4.197
REMARK INTER:                  -3.941
REMARK INTRA:                  -0.256
REMARK UNBOUND:                -0.222
REMARK  Name = Nicotine.pdb
REMARK  2 active torsions:
REMARK  status: ('A' for Active; 'I' for Inactive)
REMARK    1  A    between atoms: C_3  and  C_6
REMARK    2  A    between atoms: N_4  and  C_12
REMARK                            x       y       z     vdW  Elec       q    Type
REMARK                         _______ _______ _______ _____ _____    ______ ____
ROOT
ATOM      1  C   UNL     1       8.500   2.482   1.022  0.00  0.00    +0.017 C 
ATOM      2  C   UNL     1       8.865   2.367  -0.481  0.00  0.00    +0.025 C 
ATOM      3  C   UNL     1       7.768   1.431  -1.034  0.00  0.00    +0.088 C 
ATOM      4  N   UNL     1       7.237   0.660   0.105  0.00  0.00    -0.298 NA
ATOM      5  C   UNL     1       7.971   1.058   1.326  0.00  0.00    +0.085 C 
ATOM      6  C   UNL     1       5.794   0.879   0.263  0.00  0.00    +0.105 C 
ENDROOT
BRANCH   3   7
ATOM      7  C   UNL     1       8.360   0.496  -2.056  0.00  0.00    -0.012 A 
ATOM      8  C   UNL     1       7.561  -0.064  -3.036  0.00  0.00    +0.115 A 
ATOM      9  N   UNL     1       8.071  -0.883  -3.935  0.00  0.00    -0.263 NA
ATOM     10  C   UNL     1       9.351  -1.201  -3.937  0.00  0.00    +0.111 A 
ATOM     11  C   UNL     1      10.210  -0.679  -2.988  0.00  0.00    +0.020 A 
ATOM     12  C   UNL     1       9.712   0.190  -2.030  0.00  0.00    +0.008 A 
ENDBRANCH   3   7
TORSDOF 1
ENDMDL
MODEL 3
REMARK VINA RESULT:    -3.713      1.505      4.509
REMARK INTER + INTRA:          -4.152
REMARK INTER:                  -3.958
REMARK INTRA:                  -0.194
REMARK UNBOUND:                -0.222
REMARK  Name = Nicotine.pdb
REMARK  2 active torsions:
REMARK  status: ('A' for Active; 'I' for Inactive)
REMARK    1  A    between atoms: C_3  and  C_6
REMARK    2  A    between atoms: N_4  and  C_12
REMARK                            x       y       z     vdW  Elec       q    Type
REMARK                         _______ _______ _______ _____ _____    ______ ____
ROOT
ATOM      1  C   UNL     1       7.956   2.491  -0.931  0.00  0.00    +0.017 C 
ATOM      2  C   UNL     1       7.643   1.287  -1.858  0.00  0.00    +0.025 C 
ATOM      3  C   UNL     1       8.680   0.232  -1.418  0.00  0.00    +0.088 C 
ATOM      4  N   UNL     1       9.790   0.953  -0.770  0.00  0.00    -0.298 NA
ATOM      5  C   UNL     1       9.498   2.402  -0.813  0.00  0.00    +0.085 C 
ATOM      6  C   UNL     1       9.981   0.494   0.612  0.00  0.00    +0.105 C 
ENDROOT
BRANCH   3   7
ATOM      7  C   UNL     1       9.188  -0.520  -2.621  0.00  0.00    -0.012 A 
ATOM      8  C   UNL     1       8.319  -0.899  -3.627  0.00  0.00    +0.115 A 
ATOM      9  N   UNL     1       8.755  -1.557  -4.683  0.00  0.00    -0.263 NA
ATOM     10  C   UNL     1      10.026  -1.879  -4.823  0.00  0.00    +0.111 A 
ATOM     11  C   UNL     1      10.954  -1.534  -3.858  0.00  0.00    +0.020 A 
ATOM     12  C   UNL     1      10.533  -0.836  -2.736  0.00  0.00    +0.008 A 
ENDBRANCH   3   7
TORSDOF 1
ENDMDL
MODEL 4
REMARK VINA RESULT:    -3.573      1.913      4.545
REMARK INTER + INTRA:          -4.004
REMARK INTER:                  -3.788
REMARK INTRA:                  -0.215
REMARK UNBOUND:                -0.222
REMARK  Name = Nicotine.pdb
REMARK  2 active torsions:
REMARK  status: ('A' for Active; 'I' for Inactive)
REMARK    1  A    between atoms: C_3  and  C_6
REMARK    2  A    between atoms: N_4  and  C_12
REMARK                            x       y       z     vdW  Elec       q    Type
REMARK                         _______ _______ _______ _____ _____    ______ ____
ROOT
ATOM      1  C   UNL     1      10.238   1.483   0.818  0.00  0.00    +0.017 C 
ATOM      2  C   UNL     1      10.389   1.470  -0.726  0.00  0.00    +0.025 C 
ATOM      3  C   UNL     1       9.056   0.852  -1.199  0.00  0.00    +0.088 C 
ATOM      4  N   UNL     1       8.506   0.082  -0.070  0.00  0.00    -0.298 NA
ATOM      5  C   UNL     1       9.447   0.175   1.067  0.00  0.00    +0.085 C 
ATOM      6  C   UNL     1       7.175   0.577   0.307  0.00  0.00    +0.105 C 
ENDROOT
BRANCH   3   7
ATOM      7  C   UNL     1       9.302  -0.061  -2.372  0.00  0.00    -0.012 A 
ATOM      8  C   UNL     1      10.576  -0.527  -2.641  0.00  0.00    +0.115 A 
ATOM      9  N   UNL     1      10.800  -1.326  -3.665  0.00  0.00    -0.263 NA
ATOM     10  C   UNL     1       9.828  -1.711  -4.470  0.00  0.00    +0.111 A 
ATOM     11  C   UNL     1       8.529  -1.285  -4.264  0.00  0.00    +0.020 A 
ATOM     12  C   UNL     1       8.254  -0.448  -3.193  0.00  0.00    +0.008 A 
ENDBRANCH   3   7
TORSDOF 1
ENDMDL
MODEL 5
REMARK VINA RESULT:    -3.442      1.512      2.764
REMARK INTER + INTRA:          -3.865
REMARK INTER:                  -3.661
REMARK INTRA:                  -0.204
REMARK UNBOUND:                -0.222
REMARK  Name = Nicotine.pdb
REMARK  2 active torsions:
REMARK  status: ('A' for Active; 'I' for Inactive)
REMARK    1  A    between atoms: C_3  and  C_6
REMARK    2  A    between atoms: N_4  and  C_12
REMARK                            x       y       z     vdW  Elec       q    Type
REMARK                         _______ _______ _______ _____ _____    ______ ____
ROOT
ATOM      1  C   UNL     1       5.896  -2.245  -2.662  0.00  0.00    +0.017 C 
ATOM      2  C   UNL     1       6.018  -0.707  -2.494  0.00  0.00    +0.025 C 
ATOM      3  C   UNL     1       7.455  -0.418  -2.979  0.00  0.00    +0.088 C 
ATOM      4  N   UNL     1       8.217  -1.674  -2.857  0.00  0.00    -0.298 NA
ATOM      5  C   UNL     1       7.327  -2.714  -2.299  0.00  0.00    +0.085 C 
ATOM      6  C   UNL     1       8.761  -2.088  -4.157  0.00  0.00    +0.105 C 
ENDROOT
BRANCH   3   7
ATOM      7  C   UNL     1       8.081   0.648  -2.118  0.00  0.00    -0.012 A 
ATOM      8  C   UNL     1       7.399   1.821  -1.852  0.00  0.00    +0.115 A 
ATOM      9  N   UNL     1       7.940   2.760  -1.100  0.00  0.00    -0.263 NA
ATOM     10  C   UNL     1       9.142   2.621  -0.576  0.00  0.00    +0.111 A 
ATOM     11  C   UNL     1       9.883   1.476  -0.799  0.00  0.00    +0.020 A 
ATOM     12  C   UNL     1       9.345   0.465  -1.580  0.00  0.00    +0.008 A 
ENDBRANCH   3   7
TORSDOF 1
ENDMDL
MODEL 6
REMARK VINA RESULT:    -3.121      2.371      3.429
REMARK INTER + INTRA:          -3.525
REMARK INTER:                  -3.296
REMARK INTRA:                  -0.229
REMARK UNBOUND:                -0.222
REMARK  Name = Nicotine.pdb
REMARK  2 active torsions:
REMARK  status: ('A' for Active; 'I' for Inactive)
REMARK    1  A    between atoms: C_3  and  C_6
REMARK    2  A    between atoms: N_4  and  C_12
REMARK                            x       y       z     vdW  Elec       q    Type
REMARK                         _______ _______ _______ _____ _____    ______ ____
ROOT
ATOM      1  C   UNL     1      10.609  -0.803  -2.774  0.00  0.00    +0.017 C 
ATOM      2  C   UNL     1       9.105  -0.423  -2.800  0.00  0.00    +0.025 C 
ATOM      3  C   UNL     1       8.989   0.610  -1.660  0.00  0.00    +0.088 C 
ATOM      4  N   UNL     1      10.124   0.383  -0.747  0.00  0.00    -0.298 NA
ATOM      5  C   UNL     1      10.918  -0.754  -1.257  0.00  0.00    +0.085 C 
ATOM      6  C   UNL     1      10.951   1.591  -0.625  0.00  0.00    +0.105 C 
ENDROOT
BRANCH   3   7
ATOM      7  C   UNL     1       7.689   0.415  -0.922  0.00  0.00    -0.012 A 
ATOM      8  C   UNL     1       6.829   1.479  -0.728  0.00  0.00    +0.115 A 
ATOM      9  N   UNL     1       5.690   1.317  -0.083  0.00  0.00    -0.263 NA
ATOM     10  C   UNL     1       5.327   0.145   0.398  0.00  0.00    +0.111 A 
ATOM     11  C   UNL     1       6.135  -0.966   0.241  0.00  0.00    +0.020 A 
ATOM     12  C   UNL     1       7.338  -0.835  -0.435  0.00  0.00    +0.008 A 
ENDBRANCH   3   7
TORSDOF 1
ENDMDL
MODEL 7
REMARK VINA RESULT:    -3.044      1.344      4.459
REMARK INTER + INTRA:          -3.443
REMARK INTER:                  -3.229
REMARK INTRA:                  -0.214
REMARK UNBOUND:                -0.222
REMARK  Name = Nicotine.pdb
REMARK  2 active torsions:
REMARK  status: ('A' for Active; 'I' for Inactive)
REMARK    1  A    between atoms: C_3  and  C_6
REMARK    2  A    between atoms: N_4  and  C_12
REMARK                            x       y       z     vdW  Elec       q    Type
REMARK                         _______ _______ _______ _____ _____    ______ ____
ROOT
ATOM      1  C   UNL     1       9.786   0.626  -1.296  0.00  0.00    +0.017 C 
ATOM      2  C   UNL     1      10.080  -0.295  -2.510  0.00  0.00    +0.025 C 
ATOM      3  C   UNL     1       8.699  -0.430  -3.186  0.00  0.00    +0.088 C 
ATOM      4  N   UNL     1       7.681  -0.130  -2.163  0.00  0.00    -0.298 NA
ATOM      5  C   UNL     1       8.367   0.159  -0.886  0.00  0.00    +0.085 C 
ATOM      6  C   UNL     1       6.838   1.000  -2.576  0.00  0.00    +0.105 C 
ENDROOT
BRANCH   3   7
ATOM      7  C   UNL     1       8.515  -1.835  -3.698  0.00  0.00    -0.012 A 
ATOM      8  C   UNL     1       9.315  -2.319  -4.716  0.00  0.00    +0.115 A 
ATOM      9  N   UNL     1       9.160  -3.547  -5.170  0.00  0.00    -0.263 NA
ATOM     10  C   UNL     1       8.245  -4.358  -4.677  0.00  0.00    +0.111 A 
ATOM     11  C   UNL     1       7.408  -3.944  -3.657  0.00  0.00    +0.020 A 
ATOM     12  C   UNL     1       7.545  -2.661  -3.151  0.00  0.00    +0.008 A 
ENDBRANCH   3   7
TORSDOF 1
ENDMDL
MODEL 8
REMARK VINA RESULT:    -3.007      2.525      4.192
REMARK INTER + INTRA:          -3.405
REMARK INTER:                  -3.233
REMARK INTRA:                  -0.173
REMARK UNBOUND:                -0.222
REMARK  Name = Nicotine.pdb
REMARK  2 active torsions:
REMARK  status: ('A' for Active; 'I' for Inactive)
REMARK    1  A    between atoms: C_3  and  C_6
REMARK    2  A    between atoms: N_4  and  C_12
REMARK                            x       y       z     vdW  Elec       q    Type
REMARK                         _______ _______ _______ _____ _____    ______ ____
ROOT
ATOM      1  C   UNL     1      10.725   0.722  -1.277  0.00  0.00    +0.017 C 
ATOM      2  C   UNL     1       9.678  -0.143  -2.027  0.00  0.00    +0.025 C 
ATOM      3  C   UNL     1       8.369   0.652  -1.836  0.00  0.00    +0.088 C 
ATOM      4  N   UNL     1       8.547   1.508  -0.649  0.00  0.00    -0.298 NA
ATOM      5  C   UNL     1       9.892   1.259  -0.086  0.00  0.00    +0.085 C 
ATOM      6  C   UNL     1       8.373   2.926  -0.991  0.00  0.00    +0.105 C 
ENDROOT
BRANCH   3   7
ATOM      7  C   UNL     1       7.220  -0.297  -1.617  0.00  0.00    -0.012 A 
ATOM      8  C   UNL     1       6.930  -0.764  -0.349  0.00  0.00    +0.115 A 
ATOM      9  N   UNL     1       5.926  -1.595  -0.149  0.00  0.00    -0.263 NA
ATOM     10  C   UNL     1       5.163  -2.012  -1.140  0.00  0.00    +0.111 A 
ATOM     11  C   UNL     1       5.392  -1.587  -2.436  0.00  0.00    +0.020 A 
ATOM     12  C   UNL     1       6.436  -0.709  -2.684  0.00  0.00    +0.008 A 
ENDBRANCH   3   7
TORSDOF 1
ENDMDL
MODEL 9
REMARK VINA RESULT:    -2.819      2.551      2.917
REMARK INTER + INTRA:          -3.205
REMARK INTER:                  -2.996
REMARK INTRA:                  -0.209
REMARK UNBOUND:                -0.222
REMARK  Name = Nicotine.pdb
REMARK  2 active torsions:
REMARK  status: ('A' for Active; 'I' for Inactive)
REMARK    1  A    between atoms: C_3  and  C_6
REMARK    2  A    between atoms: N_4  and  C_12
REMARK                            x       y       z     vdW  Elec       q    Type
REMARK                         _______ _______ _______ _____ _____    ______ ____
ROOT
ATOM      1  C   UNL     1       9.424  -0.549  -3.011  0.00  0.00    +0.017 C 
ATOM      2  C   UNL     1       9.011  -0.306  -1.536  0.00  0.00    +0.025 C 
ATOM      3  C   UNL     1       7.768  -1.207  -1.370  0.00  0.00    +0.088 C 
ATOM      4  N   UNL     1       7.218  -1.444  -2.717  0.00  0.00    -0.298 NA
ATOM      5  C   UNL     1       8.046  -0.712  -3.700  0.00  0.00    +0.085 C 
ATOM      6  C   UNL     1       7.178  -2.879  -3.026  0.00  0.00    +0.105 C 
ENDROOT
BRANCH   3   7
ATOM      7  C   UNL     1       6.743  -0.514  -0.511  0.00  0.00    -0.012 A 
ATOM      8  C   UNL     1       6.529   0.846  -0.637  0.00  0.00    +0.115 A 
ATOM      9  N   UNL     1       5.634   1.460   0.112  0.00  0.00    -0.263 NA
ATOM     10  C   UNL     1       4.913   0.810   1.004  0.00  0.00    +0.111 A 
ATOM     11  C   UNL     1       5.071  -0.551   1.186  0.00  0.00    +0.020 A 
ATOM     12  C   UNL     1       5.999  -1.232   0.413  0.00  0.00    +0.008 A 
ENDBRANCH   3   7
TORSDOF 1
ENDMDL
MODEL 10
REMARK VINA RESULT:    -2.723      2.014      3.441
REMARK INTER + INTRA:          -3.104
REMARK INTER:                  -2.889
REMARK INTRA:                  -0.214
REMARK UNBOUND:                -0.222
REMARK  Name = Nicotine.pdb
REMARK  2 active torsions:
REMARK  status: ('A' for Active; 'I' for Inactive)
REMARK    1  A    between atoms: C_3  and  C_6
REMARK    2  A    between atoms: N_4  and  C_12
REMARK                            x       y       z     vdW  Elec       q    Type
REMARK                         _______ _______ _______ _____ _____    ______ ____
ROOT
ATOM      1  C   UNL     1       4.945  -2.977  -2.347  0.00  0.00    +0.017 C 
ATOM      2  C   UNL     1       5.624  -1.591  -2.505  0.00  0.00    +0.025 C 
ATOM      3  C   UNL     1       7.021  -1.950  -3.054  0.00  0.00    +0.088 C 
ATOM      4  N   UNL     1       7.290  -3.350  -2.682  0.00  0.00    -0.298 NA
ATOM      5  C   UNL     1       6.139  -3.862  -1.909  0.00  0.00    +0.085 C 
ATOM      6  C   UNL     1       7.534  -4.175  -3.873  0.00  0.00    +0.105 C 
ENDROOT
BRANCH   3   7
ATOM      7  C   UNL     1       8.060  -1.046  -2.443  0.00  0.00    -0.012 A 
ATOM      8  C   UNL     1       7.749  -0.265  -1.346  0.00  0.00    +0.115 A 
ATOM      9  N   UNL     1       8.652   0.529  -0.805  0.00  0.00    -0.263 NA
ATOM     10  C   UNL     1       9.879   0.609  -1.281  0.00  0.00    +0.111 A 
ATOM     11  C   UNL     1      10.264  -0.143  -2.375  0.00  0.00    +0.020 A 
ATOM     12  C   UNL     1       9.342  -0.993  -2.968  0.00  0.00    +0.008 A 
ENDBRANCH   3   7
TORSDOF 1
ENDMDL
