MODEL 1
REMARK VINA RESULT:     8.560      0.000      0.000
REMARK INTER + INTRA:           8.820
REMARK INTER:                   9.061
REMARK INTRA:                  -0.241
REMARK UNBOUND:                -0.241
REMARK  Name = Nicotine.pdb
REMARK  2 active torsions:
REMARK  status: ('A' for Active; 'I' for Inactive)
REMARK    1  A    between atoms: C_3  and  C_6
REMARK    2  A    between atoms: N_4  and  C_12
REMARK                            x       y       z     vdW  Elec       q    Type
REMARK                         _______ _______ _______ _____ _____    ______ ____
ROOT
ATOM      1  C   UNL     1       9.978   3.722   6.243  0.00  0.00    +0.017 C 
ATOM      2  C   UNL     1      10.935   3.885   5.033  0.00  0.00    +0.025 C 
ATOM      3  C   UNL     1      10.810   5.385   4.691  0.00  0.00    +0.088 C 
ATOM      4  N   UNL     1       9.522   5.851   5.237  0.00  0.00    -0.298 NA
ATOM      5  C   UNL     1       8.839   4.706   5.876  0.00  0.00    +0.085 C 
ATOM      6  C   UNL     1       9.722   6.947   6.195  0.00  0.00    +0.105 C 
ENDROOT
BRANCH   3   7
ATOM      7  C   UNL     1      10.832   5.574   3.197  0.00  0.00    -0.012 A 
ATOM      8  C   UNL     1      10.753   6.841   2.651  0.00  0.00    +0.115 A 
ATOM      9  N   UNL     1      10.772   7.015   1.344  0.00  0.00    -0.263 NA
ATOM     10  C   UNL     1      10.867   5.997   0.510  0.00  0.00    +0.111 A 
ATOM     11  C   UNL     1      10.952   4.701   0.983  0.00  0.00    +0.020 A 
ATOM     12  C   UNL     1      10.939   4.480   2.352  0.00  0.00    +0.008 A 
ENDBRANCH   3   7
TORSDOF 1
ENDMDL
