MODEL 1
REMARK VINA RESULT:    -3.367      0.000      0.000
REMARK INTER + INTRA:          -3.814
REMARK INTER:                  -3.564
REMARK INTRA:                  -0.250
REMARK UNBOUND:                -0.250
REMARK  Name = Nicotine.pdb
REMARK  2 active torsions:
REMARK  status: ('A' for Active; 'I' for Inactive)
REMARK    1  A    between atoms: C_3  and  C_6
REMARK    2  A    between atoms: N_4  and  C_12
REMARK                            x       y       z     vdW  Elec       q    Type
REMARK                         _______ _______ _______ _____ _____    ______ ____
ROOT
ATOM      1  C   UNL     1       2.313   0.676   3.825  0.00  0.00    +0.017 C 
ATOM      2  C   UNL     1       1.552  -0.550   3.255  0.00  0.00    +0.025 C 
ATOM      3  C   UNL     1       2.297  -1.746   3.885  0.00  0.00    +0.088 C 
ATOM      4  N   UNL     1       3.642  -1.273   4.261  0.00  0.00    -0.298 NA
ATOM      5  C   UNL     1       3.769   0.147   3.870  0.00  0.00    +0.085 C 
ATOM      6  C   UNL     1       3.878  -1.447   5.700  0.00  0.00    +0.105 C 
ENDROOT
BRANCH   3   7
ATOM      7  C   UNL     1       2.407  -2.867   2.885  0.00  0.00    -0.012 A 
ATOM      8  C   UNL     1       2.270  -4.181   3.289  0.00  0.00    +0.115 A 
ATOM      9  N   UNL     1       2.364  -5.168   2.420  0.00  0.00    -0.263 NA
ATOM     10  C   UNL     1       2.592  -4.945   1.141  0.00  0.00    +0.111 A 
ATOM     11  C   UNL     1       2.740  -3.657   0.662  0.00  0.00    +0.020 A 
ATOM     12  C   UNL     1       2.641  -2.593   1.546  0.00  0.00    +0.008 A 
ENDBRANCH   3   7
TORSDOF 1
ENDMDL
MODEL 2
REMARK VINA RESULT:    -3.272      4.602      7.780
REMARK INTER + INTRA:          -3.714
REMARK INTER:                  -3.468
REMARK INTRA:                  -0.246
REMARK UNBOUND:                -0.250
REMARK  Name = Nicotine.pdb
REMARK  2 active torsions:
REMARK  status: ('A' for Active; 'I' for Inactive)
REMARK    1  A    between atoms: C_3  and  C_6
REMARK    2  A    between atoms: N_4  and  C_12
REMARK                            x       y       z     vdW  Elec       q    Type
REMARK                         _______ _______ _______ _____ _____    ______ ____
ROOT
ATOM      1  C   UNL     1       5.529   2.249   4.616  0.00  0.00    +0.017 C 
ATOM      2  C   UNL     1       4.866   3.525   5.198  0.00  0.00    +0.025 C 
ATOM      3  C   UNL     1       3.379   3.343   4.828  0.00  0.00    +0.088 C 
ATOM      4  N   UNL     1       3.323   2.410   3.688  0.00  0.00    -0.298 NA
ATOM      5  C   UNL     1       4.704   2.029   3.323  0.00  0.00    +0.085 C 
ATOM      6  C   UNL     1       2.519   1.225   4.016  0.00  0.00    +0.105 C 
ENDROOT
BRANCH   3   7
ATOM      7  C   UNL     1       2.782   4.669   4.436  0.00  0.00    -0.012 A 
ATOM      8  C   UNL     1       1.433   4.773   4.152  0.00  0.00    +0.115 A 
ATOM      9  N   UNL     1       0.903   5.930   3.808  0.00  0.00    -0.263 NA
ATOM     10  C   UNL     1       1.629   7.027   3.722  0.00  0.00    +0.111 A 
ATOM     11  C   UNL     1       2.985   7.001   3.992  0.00  0.00    +0.020 A 
ATOM     12  C   UNL     1       3.576   5.803   4.361  0.00  0.00    +0.008 A 
ENDBRANCH   3   7
TORSDOF 1
ENDMDL
MODEL 3
REMARK VINA RESULT:    -3.214      1.361      4.442
REMARK INTER + INTRA:          -3.652
REMARK INTER:                  -3.407
REMARK INTRA:                  -0.245
REMARK UNBOUND:                -0.250
REMARK  Name = Nicotine.pdb
REMARK  2 active torsions:
REMARK  status: ('A' for Active; 'I' for Inactive)
REMARK    1  A    between atoms: C_3  and  C_6
REMARK    2  A    between atoms: N_4  and  C_12
REMARK                            x       y       z     vdW  Elec       q    Type
REMARK                         _______ _______ _______ _____ _____    ______ ____
ROOT
ATOM      1  C   UNL     1       2.401  -4.786   0.727  0.00  0.00    +0.017 C 
ATOM      2  C   UNL     1       2.653  -3.257   0.672  0.00  0.00    +0.025 C 
ATOM      3  C   UNL     1       3.603  -3.018   1.865  0.00  0.00    +0.088 C 
ATOM      4  N   UNL     1       3.419  -4.141   2.802  0.00  0.00    -0.298 NA
ATOM      5  C   UNL     1       2.385  -5.046   2.255  0.00  0.00    +0.085 C 
ATOM      6  C   UNL     1       4.683  -4.857   3.021  0.00  0.00    +0.105 C 
ENDROOT
BRANCH   3   7
ATOM      7  C   UNL     1       3.254  -1.719   2.546  0.00  0.00    -0.012 A 
ATOM      8  C   UNL     1       4.252  -0.852   2.949  0.00  0.00    +0.115 A 
ATOM      9  N   UNL     1       3.955   0.287   3.545  0.00  0.00    -0.263 NA
ATOM     10  C   UNL     1       2.708   0.642   3.780  0.00  0.00    +0.111 A 
ATOM     11  C   UNL     1       1.657  -0.175   3.405  0.00  0.00    +0.020 A 
ATOM     12  C   UNL     1       1.930  -1.377   2.771  0.00  0.00    +0.008 A 
ENDBRANCH   3   7
TORSDOF 1
ENDMDL
MODEL 4
REMARK VINA RESULT:    -3.210      1.111      1.924
REMARK INTER + INTRA:          -3.647
REMARK INTER:                  -3.478
REMARK INTRA:                  -0.169
REMARK UNBOUND:                -0.250
REMARK  Name = Nicotine.pdb
REMARK  2 active torsions:
REMARK  status: ('A' for Active; 'I' for Inactive)
REMARK    1  A    between atoms: C_3  and  C_6
REMARK    2  A    between atoms: N_4  and  C_12
REMARK                            x       y       z     vdW  Elec       q    Type
REMARK                         _______ _______ _______ _____ _____    ______ ____
ROOT
ATOM      1  C   UNL     1       4.483  -0.751   4.186  0.00  0.00    +0.017 C 
ATOM      2  C   UNL     1       4.571  -1.753   3.005  0.00  0.00    +0.025 C 
ATOM      3  C   UNL     1       3.114  -1.825   2.501  0.00  0.00    +0.088 C 
ATOM      4  N   UNL     1       2.245  -1.398   3.612  0.00  0.00    -0.298 NA
ATOM      5  C   UNL     1       3.095  -1.092   4.783  0.00  0.00    +0.085 C 
ATOM      6  C   UNL     1       1.435  -0.234   3.231  0.00  0.00    +0.105 C 
ENDROOT
BRANCH   3   7
ATOM      7  C   UNL     1       2.779  -3.238   2.100  0.00  0.00    -0.012 A 
ATOM      8  C   UNL     1       2.488  -4.187   3.061  0.00  0.00    +0.115 A 
ATOM      9  N   UNL     1       2.193  -5.426   2.719  0.00  0.00    -0.263 NA
ATOM     10  C   UNL     1       2.165  -5.808   1.457  0.00  0.00    +0.111 A 
ATOM     11  C   UNL     1       2.444  -4.914   0.440  0.00  0.00    +0.020 A 
ATOM     12  C   UNL     1       2.753  -3.602   0.762  0.00  0.00    +0.008 A 
ENDBRANCH   3   7
TORSDOF 1
ENDMDL
MODEL 5
REMARK VINA RESULT:    -3.155      1.296      2.313
REMARK INTER + INTRA:          -3.589
REMARK INTER:                  -3.397
REMARK INTRA:                  -0.193
REMARK UNBOUND:                -0.250
REMARK  Name = Nicotine.pdb
REMARK  2 active torsions:
REMARK  status: ('A' for Active; 'I' for Inactive)
REMARK    1  A    between atoms: C_3  and  C_6
REMARK    2  A    between atoms: N_4  and  C_12
REMARK                            x       y       z     vdW  Elec       q    Type
REMARK                         _______ _______ _______ _____ _____    ______ ____
ROOT
ATOM      1  C   UNL     1       4.543  -0.629   3.835  0.00  0.00    +0.017 C 
ATOM      2  C   UNL     1       4.552  -1.673   2.688  0.00  0.00    +0.025 C 
ATOM      3  C   UNL     1       3.055  -1.823   2.343  0.00  0.00    +0.088 C 
ATOM      4  N   UNL     1       2.289  -1.388   3.525  0.00  0.00    -0.298 NA
ATOM      5  C   UNL     1       3.242  -1.002   4.588  0.00  0.00    +0.085 C 
ATOM      6  C   UNL     1       1.392  -0.273   3.191  0.00  0.00    +0.105 C 
ENDROOT
BRANCH   3   7
ATOM      7  C   UNL     1       2.742  -3.263   2.030  0.00  0.00    -0.012 A 
ATOM      8  C   UNL     1       2.658  -3.692   0.719  0.00  0.00    +0.115 A 
ATOM      9  N   UNL     1       2.385  -4.951   0.437  0.00  0.00    -0.263 NA
ATOM     10  C   UNL     1       2.182  -5.845   1.384  0.00  0.00    +0.111 A 
ATOM     11  C   UNL     1       2.250  -5.491   2.718  0.00  0.00    +0.020 A 
ATOM     12  C   UNL     1       2.540  -4.177   3.054  0.00  0.00    +0.008 A 
ENDBRANCH   3   7
TORSDOF 1
ENDMDL
MODEL 6
REMARK VINA RESULT:    -3.120      2.371      4.030
REMARK INTER + INTRA:          -3.552
REMARK INTER:                  -3.297
REMARK INTRA:                  -0.256
REMARK UNBOUND:                -0.250
REMARK  Name = Nicotine.pdb
REMARK  2 active torsions:
REMARK  status: ('A' for Active; 'I' for Inactive)
REMARK    1  A    between atoms: C_3  and  C_6
REMARK    2  A    between atoms: N_4  and  C_12
REMARK                            x       y       z     vdW  Elec       q    Type
REMARK                         _______ _______ _______ _____ _____    ______ ____
ROOT
ATOM      1  C   UNL     1       4.205  -4.222  -0.494  0.00  0.00    +0.017 C 
ATOM      2  C   UNL     1       2.868  -4.258   0.293  0.00  0.00    +0.025 C 
ATOM      3  C   UNL     1       3.159  -3.360   1.513  0.00  0.00    +0.088 C 
ATOM      4  N   UNL     1       4.622  -3.325   1.691  0.00  0.00    -0.298 NA
ATOM      5  C   UNL     1       5.242  -4.178   0.655  0.00  0.00    +0.085 C 
ATOM      6  C   UNL     1       5.130  -1.949   1.615  0.00  0.00    +0.105 C 
ENDROOT
BRANCH   3   7
ATOM      7  C   UNL     1       2.505  -3.937   2.742  0.00  0.00    -0.012 A 
ATOM      8  C   UNL     1       2.138  -3.114   3.790  0.00  0.00    +0.115 A 
ATOM      9  N   UNL     1       1.565  -3.611   4.869  0.00  0.00    -0.263 NA
ATOM     10  C   UNL     1       1.322  -4.900   4.993  0.00  0.00    +0.111 A 
ATOM     11  C   UNL     1       1.660  -5.785   3.986  0.00  0.00    +0.020 A 
ATOM     12  C   UNL     1       2.259  -5.298   2.834  0.00  0.00    +0.008 A 
ENDBRANCH   3   7
TORSDOF 1
ENDMDL
MODEL 7
REMARK VINA RESULT:    -3.105      1.822      2.995
REMARK INTER + INTRA:          -3.536
REMARK INTER:                  -3.301
REMARK INTRA:                  -0.235
REMARK UNBOUND:                -0.250
REMARK  Name = Nicotine.pdb
REMARK  2 active torsions:
REMARK  status: ('A' for Active; 'I' for Inactive)
REMARK    1  A    between atoms: C_3  and  C_6
REMARK    2  A    between atoms: N_4  and  C_12
REMARK                            x       y       z     vdW  Elec       q    Type
REMARK                         _______ _______ _______ _____ _____    ______ ____
ROOT
ATOM      1  C   UNL     1       2.295  -2.808   4.440  0.00  0.00    +0.017 C 
ATOM      2  C   UNL     1       2.605  -4.124   3.678  0.00  0.00    +0.025 C 
ATOM      3  C   UNL     1       3.525  -3.652   2.532  0.00  0.00    +0.088 C 
ATOM      4  N   UNL     1       3.271  -2.214   2.331  0.00  0.00    -0.298 NA
ATOM      5  C   UNL     1       2.222  -1.784   3.280  0.00  0.00    +0.085 C 
ATOM      6  C   UNL     1       4.500  -1.432   2.514  0.00  0.00    +0.105 C 
ENDROOT
BRANCH   3   7
ATOM      7  C   UNL     1       3.203  -4.412   1.271  0.00  0.00    -0.012 A 
ATOM      8  C   UNL     1       3.848  -4.107   0.087  0.00  0.00    +0.115 A 
ATOM      9  N   UNL     1       3.572  -4.767  -1.021  0.00  0.00    -0.263 NA
ATOM     10  C   UNL     1       2.679  -5.735  -1.046  0.00  0.00    +0.111 A 
ATOM     11  C   UNL     1       1.994  -6.097   0.099  0.00  0.00    +0.020 A 
ATOM     12  C   UNL     1       2.261  -5.429   1.284  0.00  0.00    +0.008 A 
ENDBRANCH   3   7
TORSDOF 1
ENDMDL
MODEL 8
REMARK VINA RESULT:    -3.100      6.782      8.419
REMARK INTER + INTRA:          -3.531
REMARK INTER:                  -3.282
REMARK INTRA:                  -0.249
REMARK UNBOUND:                -0.250
REMARK  Name = Nicotine.pdb
REMARK  2 active torsions:
REMARK  status: ('A' for Active; 'I' for Inactive)
REMARK    1  A    between atoms: C_3  and  C_6
REMARK    2  A    between atoms: N_4  and  C_12
REMARK                            x       y       z     vdW  Elec       q    Type
REMARK                         _______ _______ _______ _____ _____    ______ ____
ROOT
ATOM      1  C   UNL     1       7.254   6.663   3.189  0.00  0.00    +0.017 C 
ATOM      2  C   UNL     1       6.045   6.555   4.155  0.00  0.00    +0.025 C 
ATOM      3  C   UNL     1       5.507   5.135   3.880  0.00  0.00    +0.088 C 
ATOM      4  N   UNL     1       5.971   4.744   2.537  0.00  0.00    -0.298 NA
ATOM      5  C   UNL     1       6.747   5.864   1.963  0.00  0.00    +0.085 C 
ATOM      6  C   UNL     1       6.779   3.518   2.594  0.00  0.00    +0.105 C 
ENDROOT
BRANCH   3   7
ATOM      7  C   UNL     1       4.001   5.140   3.921  0.00  0.00    -0.012 A 
ATOM      8  C   UNL     1       3.295   3.954   3.844  0.00  0.00    +0.115 A 
ATOM      9  N   UNL     1       1.976   3.950   3.880  0.00  0.00    -0.263 NA
ATOM     10  C   UNL     1       1.283   5.066   3.989  0.00  0.00    +0.111 A 
ATOM     11  C   UNL     1       1.920   6.290   4.072  0.00  0.00    +0.020 A 
ATOM     12  C   UNL     1       3.305   6.333   4.043  0.00  0.00    +0.008 A 
ENDBRANCH   3   7
TORSDOF 1
ENDMDL
MODEL 9
REMARK VINA RESULT:    -3.079      1.466      4.584
REMARK INTER + INTRA:          -3.509
REMARK INTER:                  -3.255
REMARK INTRA:                  -0.255
REMARK UNBOUND:                -0.250
REMARK  Name = Nicotine.pdb
REMARK  2 active torsions:
REMARK  status: ('A' for Active; 'I' for Inactive)
REMARK    1  A    between atoms: C_3  and  C_6
REMARK    2  A    between atoms: N_4  and  C_12
REMARK                            x       y       z     vdW  Elec       q    Type
REMARK                         _______ _______ _______ _____ _____    ______ ____
ROOT
ATOM      1  C   UNL     1       2.940  -5.092   4.589  0.00  0.00    +0.017 C 
ATOM      2  C   UNL     1       2.175  -3.796   4.964  0.00  0.00    +0.025 C 
ATOM      3  C   UNL     1       2.119  -3.027   3.626  0.00  0.00    +0.088 C 
ATOM      4  N   UNL     1       3.214  -3.538   2.782  0.00  0.00    -0.298 NA
ATOM      5  C   UNL     1       3.956  -4.565   3.544  0.00  0.00    +0.085 C 
ATOM      6  C   UNL     1       2.696  -4.088   1.523  0.00  0.00    +0.105 C 
ENDROOT
BRANCH   3   7
ATOM      7  C   UNL     1       2.306  -1.553   3.874  0.00  0.00    -0.012 A 
ATOM      8  C   UNL     1       1.712  -0.623   3.042  0.00  0.00    +0.115 A 
ATOM      9  N   UNL     1       1.870   0.669   3.252  0.00  0.00    -0.263 NA
ATOM     10  C   UNL     1       2.596   1.125   4.254  0.00  0.00    +0.111 A 
ATOM     11  C   UNL     1       3.220   0.255   5.128  0.00  0.00    +0.020 A 
ATOM     12  C   UNL     1       3.072  -1.111   4.942  0.00  0.00    +0.008 A 
ENDBRANCH   3   7
TORSDOF 1
ENDMDL
MODEL 10
REMARK VINA RESULT:    -3.027      7.371      8.359
REMARK INTER + INTRA:          -3.454
REMARK INTER:                  -3.238
REMARK INTRA:                  -0.216
REMARK UNBOUND:                -0.250
REMARK  Name = Nicotine.pdb
REMARK  2 active torsions:
REMARK  status: ('A' for Active; 'I' for Inactive)
REMARK    1  A    between atoms: C_3  and  C_6
REMARK    2  A    between atoms: N_4  and  C_12
REMARK                            x       y       z     vdW  Elec       q    Type
REMARK                         _______ _______ _______ _____ _____    ______ ____
ROOT
ATOM      1  C   UNL     1       1.130   5.071   4.225  0.00  0.00    +0.017 C 
ATOM      2  C   UNL     1       2.401   4.226   3.947  0.00  0.00    +0.025 C 
ATOM      3  C   UNL     1       3.534   5.105   4.519  0.00  0.00    +0.088 C 
ATOM      4  N   UNL     1       3.034   6.491   4.558  0.00  0.00    -0.298 NA
ATOM      5  C   UNL     1       1.660   6.511   4.015  0.00  0.00    +0.085 C 
ATOM      6  C   UNL     1       3.069   7.025   5.926  0.00  0.00    +0.105 C 
ENDROOT
BRANCH   3   7
ATOM      7  C   UNL     1       4.747   5.021   3.630  0.00  0.00    -0.012 A 
ATOM      8  C   UNL     1       5.548   6.130   3.433  0.00  0.00    +0.115 A 
ATOM      9  N   UNL     1       6.612   6.065   2.656  0.00  0.00    -0.263 NA
ATOM     10  C   UNL     1       6.953   4.950   2.040  0.00  0.00    +0.111 A 
ATOM     11  C   UNL     1       6.200   3.800   2.189  0.00  0.00    +0.020 A 
ATOM     12  C   UNL     1       5.078   3.829   3.003  0.00  0.00    +0.008 A 
ENDBRANCH   3   7
TORSDOF 1
ENDMDL
