MODEL 1
REMARK VINA RESULT:    -3.782      0.000      0.000
REMARK INTER + INTRA:          -4.252
REMARK INTER:                  -4.003
REMARK INTRA:                  -0.249
REMARK UNBOUND:                -0.249
REMARK  Name = Nicotine.pdb
REMARK  2 active torsions:
REMARK  status: ('A' for Active; 'I' for Inactive)
REMARK    1  A    between atoms: C_3  and  C_6
REMARK    2  A    between atoms: N_4  and  C_12
REMARK                            x       y       z     vdW  Elec       q    Type
REMARK                         _______ _______ _______ _____ _____    ______ ____
ROOT
ATOM      1  C   UNL     1       8.294   1.786  -4.245  0.00  0.00    +0.017 C 
ATOM      2  C   UNL     1       7.105   2.560  -3.615  0.00  0.00    +0.025 C 
ATOM      3  C   UNL     1       7.122   2.085  -2.146  0.00  0.00    +0.088 C 
ATOM      4  N   UNL     1       7.826   0.791  -2.113  0.00  0.00    -0.298 NA
ATOM      5  C   UNL     1       8.221   0.434  -3.492  0.00  0.00    +0.085 C 
ATOM      6  C   UNL     1       8.997   0.850  -1.228  0.00  0.00    +0.105 C 
ENDROOT
BRANCH   3   7
ATOM      7  C   UNL     1       5.711   1.916  -1.646  0.00  0.00    -0.012 A 
ATOM      8  C   UNL     1       5.470   1.632  -0.315  0.00  0.00    +0.115 A 
ATOM      9  N   UNL     1       4.238   1.482   0.131  0.00  0.00    -0.263 NA
ATOM     10  C   UNL     1       3.194   1.596  -0.667  0.00  0.00    +0.111 A 
ATOM     11  C   UNL     1       3.356   1.879  -2.010  0.00  0.00    +0.020 A 
ATOM     12  C   UNL     1       4.637   2.049  -2.514  0.00  0.00    +0.008 A 
ENDBRANCH   3   7
TORSDOF 1
ENDMDL
MODEL 2
REMARK VINA RESULT:    -3.599      2.244      5.242
REMARK INTER + INTRA:          -4.058
REMARK INTER:                  -3.856
REMARK INTRA:                  -0.203
REMARK UNBOUND:                -0.249
REMARK  Name = Nicotine.pdb
REMARK  2 active torsions:
REMARK  status: ('A' for Active; 'I' for Inactive)
REMARK    1  A    between atoms: C_3  and  C_6
REMARK    2  A    between atoms: N_4  and  C_12
REMARK                            x       y       z     vdW  Elec       q    Type
REMARK                         _______ _______ _______ _____ _____    ______ ____
ROOT
ATOM      1  C   UNL     1       0.450   1.277  -3.285  0.00  0.00    +0.017 C 
ATOM      2  C   UNL     1       1.908   1.029  -3.752  0.00  0.00    +0.025 C 
ATOM      3  C   UNL     1       2.706   1.063  -2.431  0.00  0.00    +0.088 C 
ATOM      4  N   UNL     1       1.902   1.819  -1.454  0.00  0.00    -0.298 NA
ATOM      5  C   UNL     1       0.660   2.272  -2.116  0.00  0.00    +0.085 C 
ATOM      6  C   UNL     1       1.600   0.999  -0.273  0.00  0.00    +0.105 C 
ENDROOT
BRANCH   3   7
ATOM      7  C   UNL     1       4.029   1.751  -2.649  0.00  0.00    -0.012 A 
ATOM      8  C   UNL     1       4.835   1.394  -3.713  0.00  0.00    +0.115 A 
ATOM      9  N   UNL     1       5.995   1.991  -3.911  0.00  0.00    -0.263 NA
ATOM     10  C   UNL     1       6.430   2.943  -3.110  0.00  0.00    +0.111 A 
ATOM     11  C   UNL     1       5.678   3.353  -2.025  0.00  0.00    +0.020 A 
ATOM     12  C   UNL     1       4.451   2.752  -1.788  0.00  0.00    +0.008 A 
ENDBRANCH   3   7
TORSDOF 1
ENDMDL
MODEL 3
REMARK VINA RESULT:    -3.567      1.999      2.658
REMARK INTER + INTRA:          -4.025
REMARK INTER:                  -3.824
REMARK INTRA:                  -0.201
REMARK UNBOUND:                -0.249
REMARK  Name = Nicotine.pdb
REMARK  2 active torsions:
REMARK  status: ('A' for Active; 'I' for Inactive)
REMARK    1  A    between atoms: C_3  and  C_6
REMARK    2  A    between atoms: N_4  and  C_12
REMARK                            x       y       z     vdW  Elec       q    Type
REMARK                         _______ _______ _______ _____ _____    ______ ____
ROOT
ATOM      1  C   UNL     1       6.619   2.561  -3.272  0.00  0.00    +0.017 C 
ATOM      2  C   UNL     1       5.660   2.661  -2.057  0.00  0.00    +0.025 C 
ATOM      3  C   UNL     1       4.881   1.330  -2.119  0.00  0.00    +0.088 C 
ATOM      4  N   UNL     1       4.967   0.837  -3.505  0.00  0.00    -0.298 NA
ATOM      5  C   UNL     1       5.739   1.813  -4.304  0.00  0.00    +0.085 C 
ATOM      6  C   UNL     1       5.588  -0.493  -3.554  0.00  0.00    +0.105 C 
ENDROOT
BRANCH   3   7
ATOM      7  C   UNL     1       3.440   1.561  -1.744  0.00  0.00    -0.012 A 
ATOM      8  C   UNL     1       3.067   1.638  -0.415  0.00  0.00    +0.115 A 
ATOM      9  N   UNL     1       1.808   1.840  -0.079  0.00  0.00    -0.263 NA
ATOM     10  C   UNL     1       0.861   1.976  -0.986  0.00  0.00    +0.111 A 
ATOM     11  C   UNL     1       1.159   1.911  -2.335  0.00  0.00    +0.020 A 
ATOM     12  C   UNL     1       2.473   1.705  -2.727  0.00  0.00    +0.008 A 
ENDBRANCH   3   7
TORSDOF 1
ENDMDL
MODEL 4
REMARK VINA RESULT:    -3.557      1.282      1.487
REMARK INTER + INTRA:          -4.013
REMARK INTER:                  -3.772
REMARK INTRA:                  -0.241
REMARK UNBOUND:                -0.249
REMARK  Name = Nicotine.pdb
REMARK  2 active torsions:
REMARK  status: ('A' for Active; 'I' for Inactive)
REMARK    1  A    between atoms: C_3  and  C_6
REMARK    2  A    between atoms: N_4  and  C_12
REMARK                            x       y       z     vdW  Elec       q    Type
REMARK                         _______ _______ _______ _____ _____    ______ ____
ROOT
ATOM      1  C   UNL     1       6.653   1.044  -5.181  0.00  0.00    +0.017 C 
ATOM      2  C   UNL     1       5.371   1.733  -4.645  0.00  0.00    +0.025 C 
ATOM      3  C   UNL     1       5.735   2.053  -3.179  0.00  0.00    +0.088 C 
ATOM      4  N   UNL     1       6.823   1.138  -2.790  0.00  0.00    -0.298 NA
ATOM      5  C   UNL     1       7.127   0.254  -3.935  0.00  0.00    +0.085 C 
ATOM      6  C   UNL     1       8.015   1.885  -2.369  0.00  0.00    +0.105 C 
ENDROOT
BRANCH   3   7
ATOM      7  C   UNL     1       4.536   1.834  -2.294  0.00  0.00    -0.012 A 
ATOM      8  C   UNL     1       4.616   2.080  -0.936  0.00  0.00    +0.115 A 
ATOM      9  N   UNL     1       3.571   1.891  -0.153  0.00  0.00    -0.263 NA
ATOM     10  C   UNL     1       2.418   1.463  -0.628  0.00  0.00    +0.111 A 
ATOM     11  C   UNL     1       2.263   1.195  -1.976  0.00  0.00    +0.020 A 
ATOM     12  C   UNL     1       3.338   1.388  -2.830  0.00  0.00    +0.008 A 
ENDBRANCH   3   7
TORSDOF 1
ENDMDL
MODEL 5
REMARK VINA RESULT:    -3.495      1.935      3.569
REMARK INTER + INTRA:          -3.947
REMARK INTER:                  -3.732
REMARK INTRA:                  -0.216
REMARK UNBOUND:                -0.249
REMARK  Name = Nicotine.pdb
REMARK  2 active torsions:
REMARK  status: ('A' for Active; 'I' for Inactive)
REMARK    1  A    between atoms: C_3  and  C_6
REMARK    2  A    between atoms: N_4  and  C_12
REMARK                            x       y       z     vdW  Elec       q    Type
REMARK                         _______ _______ _______ _____ _____    ______ ____
ROOT
ATOM      1  C   UNL     1       7.173   2.339  -3.743  0.00  0.00    +0.017 C 
ATOM      2  C   UNL     1       7.629   1.271  -2.715  0.00  0.00    +0.025 C 
ATOM      3  C   UNL     1       6.400   1.131  -1.792  0.00  0.00    +0.088 C 
ATOM      4  N   UNL     1       5.612   2.369  -1.922  0.00  0.00    -0.298 NA
ATOM      5  C   UNL     1       6.309   3.275  -2.861  0.00  0.00    +0.085 C 
ATOM      6  C   UNL     1       4.248   2.080  -2.384  0.00  0.00    +0.105 C 
ENDROOT
BRANCH   3   7
ATOM      7  C   UNL     1       6.849   0.955  -0.364  0.00  0.00    -0.012 A 
ATOM      8  C   UNL     1       6.106   1.487   0.673  0.00  0.00    +0.115 A 
ATOM      9  N   UNL     1       6.491   1.338   1.925  0.00  0.00    -0.263 NA
ATOM     10  C   UNL     1       7.591   0.682   2.238  0.00  0.00    +0.111 A 
ATOM     11  C   UNL     1       8.385   0.122   1.255  0.00  0.00    +0.020 A 
ATOM     12  C   UNL     1       8.009   0.254  -0.073  0.00  0.00    +0.008 A 
ENDBRANCH   3   7
TORSDOF 1
ENDMDL
MODEL 6
REMARK VINA RESULT:    -3.413      3.234      4.443
REMARK INTER + INTRA:          -3.861
REMARK INTER:                  -3.608
REMARK INTRA:                  -0.253
REMARK UNBOUND:                -0.249
REMARK  Name = Nicotine.pdb
REMARK  2 active torsions:
REMARK  status: ('A' for Active; 'I' for Inactive)
REMARK    1  A    between atoms: C_3  and  C_6
REMARK    2  A    between atoms: N_4  and  C_12
REMARK                            x       y       z     vdW  Elec       q    Type
REMARK                         _______ _______ _______ _____ _____    ______ ____
ROOT
ATOM      1  C   UNL     1       4.434  -0.414  -6.651  0.00  0.00    +0.017 C 
ATOM      2  C   UNL     1       5.027  -0.243  -5.228  0.00  0.00    +0.025 C 
ATOM      3  C   UNL     1       3.865   0.402  -4.442  0.00  0.00    +0.088 C 
ATOM      4  N   UNL     1       2.978   1.048  -5.427  0.00  0.00    -0.298 NA
ATOM      5  C   UNL     1       3.551   0.853  -6.776  0.00  0.00    +0.085 C 
ATOM      6  C   UNL     1       1.617   0.502  -5.348  0.00  0.00    +0.105 C 
ENDROOT
BRANCH   3   7
ATOM      7  C   UNL     1       4.405   1.431  -3.483  0.00  0.00    -0.012 A 
ATOM      8  C   UNL     1       3.587   1.978  -2.512  0.00  0.00    +0.115 A 
ATOM      9  N   UNL     1       4.051   2.879  -1.669  0.00  0.00    -0.263 NA
ATOM     10  C   UNL     1       5.302   3.293  -1.715  0.00  0.00    +0.111 A 
ATOM     11  C   UNL     1       6.178   2.791  -2.659  0.00  0.00    +0.020 A 
ATOM     12  C   UNL     1       5.728   1.838  -3.559  0.00  0.00    +0.008 A 
ENDBRANCH   3   7
TORSDOF 1
ENDMDL
MODEL 7
REMARK VINA RESULT:    -3.402      2.206      3.584
REMARK INTER + INTRA:          -3.849
REMARK INTER:                  -3.634
REMARK INTRA:                  -0.215
REMARK UNBOUND:                -0.249
REMARK  Name = Nicotine.pdb
REMARK  2 active torsions:
REMARK  status: ('A' for Active; 'I' for Inactive)
REMARK    1  A    between atoms: C_3  and  C_6
REMARK    2  A    between atoms: N_4  and  C_12
REMARK                            x       y       z     vdW  Elec       q    Type
REMARK                         _______ _______ _______ _____ _____    ______ ____
ROOT
ATOM      1  C   UNL     1       7.586  -1.077   1.903  0.00  0.00    +0.017 C 
ATOM      2  C   UNL     1       6.691  -0.802   0.666  0.00  0.00    +0.025 C 
ATOM      3  C   UNL     1       7.550   0.164  -0.177  0.00  0.00    +0.088 C 
ATOM      4  N   UNL     1       8.513   0.804   0.737  0.00  0.00    -0.298 NA
ATOM      5  C   UNL     1       8.270   0.298   2.105  0.00  0.00    +0.085 C 
ATOM      6  C   UNL     1       9.895   0.542   0.316  0.00  0.00    +0.105 C 
ENDROOT
BRANCH   3   7
ATOM      7  C   UNL     1       6.672   1.210  -0.813  0.00  0.00    -0.012 A 
ATOM      8  C   UNL     1       5.460   1.547  -0.241  0.00  0.00    +0.115 A 
ATOM      9  N   UNL     1       4.685   2.461  -0.791  0.00  0.00    -0.263 NA
ATOM     10  C   UNL     1       5.030   3.086  -1.900  0.00  0.00    +0.111 A 
ATOM     11  C   UNL     1       6.228   2.802  -2.528  0.00  0.00    +0.020 A 
ATOM     12  C   UNL     1       7.071   1.850  -1.976  0.00  0.00    +0.008 A 
ENDBRANCH   3   7
TORSDOF 1
ENDMDL
MODEL 8
REMARK VINA RESULT:    -3.347      2.099      3.178
REMARK INTER + INTRA:          -3.791
REMARK INTER:                  -3.591
REMARK INTRA:                  -0.200
REMARK UNBOUND:                -0.249
REMARK  Name = Nicotine.pdb
REMARK  2 active torsions:
REMARK  status: ('A' for Active; 'I' for Inactive)
REMARK    1  A    between atoms: C_3  and  C_6
REMARK    2  A    between atoms: N_4  and  C_12
REMARK                            x       y       z     vdW  Elec       q    Type
REMARK                         _______ _______ _______ _____ _____    ______ ____
ROOT
ATOM      1  C   UNL     1       5.653   0.921  -3.614  0.00  0.00    +0.017 C 
ATOM      2  C   UNL     1       4.105   1.017  -3.626  0.00  0.00    +0.025 C 
ATOM      3  C   UNL     1       3.819   2.134  -2.600  0.00  0.00    +0.088 C 
ATOM      4  N   UNL     1       4.991   2.220  -1.710  0.00  0.00    -0.298 NA
ATOM      5  C   UNL     1       5.973   1.194  -2.123  0.00  0.00    +0.085 C 
ATOM      6  C   UNL     1       5.584   3.563  -1.748  0.00  0.00    +0.105 C 
ENDROOT
BRANCH   3   7
ATOM      7  C   UNL     1       2.590   1.791  -1.799  0.00  0.00    -0.012 A 
ATOM      8  C   UNL     1       2.706   1.342  -0.497  0.00  0.00    +0.115 A 
ATOM      9  N   UNL     1       1.635   1.040   0.211  0.00  0.00    -0.263 NA
ATOM     10  C   UNL     1       0.420   1.152  -0.288  0.00  0.00    +0.111 A 
ATOM     11  C   UNL     1       0.225   1.596  -1.583  0.00  0.00    +0.020 A 
ATOM     12  C   UNL     1       1.327   1.928  -2.356  0.00  0.00    +0.008 A 
ENDBRANCH   3   7
TORSDOF 1
ENDMDL
MODEL 9
REMARK VINA RESULT:    -3.286      3.051      5.552
REMARK INTER + INTRA:          -3.727
REMARK INTER:                  -3.508
REMARK INTRA:                  -0.218
REMARK UNBOUND:                -0.249
REMARK  Name = Nicotine.pdb
REMARK  2 active torsions:
REMARK  status: ('A' for Active; 'I' for Inactive)
REMARK    1  A    between atoms: C_3  and  C_6
REMARK    2  A    between atoms: N_4  and  C_12
REMARK                            x       y       z     vdW  Elec       q    Type
REMARK                         _______ _______ _______ _____ _____    ______ ____
ROOT
ATOM      1  C   UNL     1       0.735   0.252  -5.637  0.00  0.00    +0.017 C 
ATOM      2  C   UNL     1       2.155   0.067  -5.039  0.00  0.00    +0.025 C 
ATOM      3  C   UNL     1       1.974   0.509  -3.571  0.00  0.00    +0.088 C 
ATOM      4  N   UNL     1       0.786   1.380  -3.520  0.00  0.00    -0.298 NA
ATOM      5  C   UNL     1       0.244   1.516  -4.889  0.00  0.00    +0.085 C 
ATOM      6  C   UNL     1      -0.225   0.840  -2.603  0.00  0.00    +0.105 C 
ENDROOT
BRANCH   3   7
ATOM      7  C   UNL     1       3.190   1.270  -3.111  0.00  0.00    -0.012 A 
ATOM      8  C   UNL     1       3.120   2.098  -2.006  0.00  0.00    +0.115 A 
ATOM      9  N   UNL     1       4.180   2.767  -1.597  0.00  0.00    -0.263 NA
ATOM     10  C   UNL     1       5.340   2.676  -2.218  0.00  0.00    +0.111 A 
ATOM     11  C   UNL     1       5.486   1.868  -3.329  0.00  0.00    +0.020 A 
ATOM     12  C   UNL     1       4.395   1.144  -3.786  0.00  0.00    +0.008 A 
ENDBRANCH   3   7
TORSDOF 1
ENDMDL
MODEL 10
REMARK VINA RESULT:    -3.200      2.292      3.206
REMARK INTER + INTRA:          -3.635
REMARK INTER:                  -3.409
REMARK INTRA:                  -0.227
REMARK UNBOUND:                -0.249
REMARK  Name = Nicotine.pdb
REMARK  2 active torsions:
REMARK  status: ('A' for Active; 'I' for Inactive)
REMARK    1  A    between atoms: C_3  and  C_6
REMARK    2  A    between atoms: N_4  and  C_12
REMARK                            x       y       z     vdW  Elec       q    Type
REMARK                         _______ _______ _______ _____ _____    ______ ____
ROOT
ATOM      1  C   UNL     1       7.310   2.480  -2.999  0.00  0.00    +0.017 C 
ATOM      2  C   UNL     1       6.063   1.920  -2.265  0.00  0.00    +0.025 C 
ATOM      3  C   UNL     1       5.351   1.104  -3.364  0.00  0.00    +0.088 C 
ATOM      4  N   UNL     1       5.806   1.629  -4.663  0.00  0.00    -0.298 NA
ATOM      5  C   UNL     1       6.744   2.745  -4.417  0.00  0.00    +0.085 C 
ATOM      6  C   UNL     1       6.440   0.575  -5.465  0.00  0.00    +0.105 C 
ENDROOT
BRANCH   3   7
ATOM      7  C   UNL     1       3.858   1.268  -3.238  0.00  0.00    -0.012 A 
ATOM      8  C   UNL     1       3.017   0.791  -4.225  0.00  0.00    +0.115 A 
ATOM      9  N   UNL     1       1.709   0.931  -4.122  0.00  0.00    -0.263 NA
ATOM     10  C   UNL     1       1.155   1.524  -3.084  0.00  0.00    +0.111 A 
ATOM     11  C   UNL     1       1.933   2.025  -2.057  0.00  0.00    +0.020 A 
ATOM     12  C   UNL     1       3.311   1.893  -2.127  0.00  0.00    +0.008 A 
ENDBRANCH   3   7
TORSDOF 1
ENDMDL
