MODEL 1
REMARK VINA RESULT:    -5.790      0.000      0.000
REMARK INTER + INTRA:          -6.376
REMARK INTER:                  -6.129
REMARK INTRA:                  -0.247
REMARK UNBOUND:                -0.247
REMARK  Name = Nicotine.pdb
REMARK  2 active torsions:
REMARK  status: ('A' for Active; 'I' for Inactive)
REMARK    1  A    between atoms: C_3  and  C_6
REMARK    2  A    between atoms: N_4  and  C_12
REMARK                            x       y       z     vdW  Elec       q    Type
REMARK                         _______ _______ _______ _____ _____    ______ ____
ROOT
ATOM      1  C   UNL     1       1.550   1.272  -2.778  0.00  0.00    +0.017 C 
ATOM      2  C   UNL     1       1.319   1.584  -1.276  0.00  0.00    +0.025 C 
ATOM      3  C   UNL     1       0.865   0.223  -0.705  0.00  0.00    +0.088 C 
ATOM      4  N   UNL     1       0.340  -0.570  -1.831  0.00  0.00    -0.298 NA
ATOM      5  C   UNL     1       0.425   0.245  -3.061  0.00  0.00    +0.085 C 
ATOM      6  C   UNL     1       1.082  -1.828  -1.980  0.00  0.00    +0.105 C 
ENDROOT
BRANCH   3   7
ATOM      7  C   UNL     1      -0.215   0.434   0.324  0.00  0.00    -0.012 A 
ATOM      8  C   UNL     1      -0.218  -0.300   1.495  0.00  0.00    +0.115 A 
ATOM      9  N   UNL     1      -1.160  -0.122   2.400  0.00  0.00    -0.263 NA
ATOM     10  C   UNL     1      -2.130   0.754   2.229  0.00  0.00    +0.111 A 
ATOM     11  C   UNL     1      -2.192   1.525   1.083  0.00  0.00    +0.020 A 
ATOM     12  C   UNL     1      -1.216   1.370   0.111  0.00  0.00    +0.008 A 
ENDBRANCH   3   7
TORSDOF 1
ENDMDL
MODEL 2
REMARK VINA RESULT:    -5.760      1.290      4.374
REMARK INTER + INTRA:          -6.344
REMARK INTER:                  -6.099
REMARK INTRA:                  -0.245
REMARK UNBOUND:                -0.247
REMARK  Name = Nicotine.pdb
REMARK  2 active torsions:
REMARK  status: ('A' for Active; 'I' for Inactive)
REMARK    1  A    between atoms: C_3  and  C_6
REMARK    2  A    between atoms: N_4  and  C_12
REMARK                            x       y       z     vdW  Elec       q    Type
REMARK                         _______ _______ _______ _____ _____    ______ ____
ROOT
ATOM      1  C   UNL     1      -2.167   0.652   2.210  0.00  0.00    +0.017 C 
ATOM      2  C   UNL     1      -1.970   1.288   0.808  0.00  0.00    +0.025 C 
ATOM      3  C   UNL     1      -1.509   0.094  -0.053  0.00  0.00    +0.088 C 
ATOM      4  N   UNL     1      -0.951  -0.917   0.863  0.00  0.00    -0.298 NA
ATOM      5  C   UNL     1      -1.022  -0.391   2.243  0.00  0.00    +0.085 C 
ATOM      6  C   UNL     1      -1.672  -2.191   0.746  0.00  0.00    +0.105 C 
ENDROOT
BRANCH   3   7
ATOM      7  C   UNL     1      -0.453   0.543  -1.029  0.00  0.00    -0.012 A 
ATOM      8  C   UNL     1      -0.488   0.117  -2.343  0.00  0.00    +0.115 A 
ATOM      9  N   UNL     1       0.433   0.505  -3.204  0.00  0.00    -0.263 NA
ATOM     10  C   UNL     1       1.417   1.308  -2.850  0.00  0.00    +0.111 A 
ATOM     11  C   UNL     1       1.517   1.776  -1.553  0.00  0.00    +0.020 A 
ATOM     12  C   UNL     1       0.564   1.393  -0.622  0.00  0.00    +0.008 A 
ENDBRANCH   3   7
TORSDOF 1
ENDMDL
MODEL 3
REMARK VINA RESULT:    -5.056      2.280      3.714
REMARK INTER + INTRA:          -5.598
REMARK INTER:                  -5.342
REMARK INTRA:                  -0.256
REMARK UNBOUND:                -0.247
REMARK  Name = Nicotine.pdb
REMARK  2 active torsions:
REMARK  status: ('A' for Active; 'I' for Inactive)
REMARK    1  A    between atoms: C_3  and  C_6
REMARK    2  A    between atoms: N_4  and  C_12
REMARK                            x       y       z     vdW  Elec       q    Type
REMARK                         _______ _______ _______ _____ _____    ______ ____
ROOT
ATOM      1  C   UNL     1       2.977   0.049  -5.854  0.00  0.00    +0.017 C 
ATOM      2  C   UNL     1       2.836  -0.203  -4.330  0.00  0.00    +0.025 C 
ATOM      3  C   UNL     1       1.315  -0.391  -4.149  0.00  0.00    +0.088 C 
ATOM      4  N   UNL     1       0.655   0.260  -5.294  0.00  0.00    -0.298 NA
ATOM      5  C   UNL     1       1.694   0.862  -6.157  0.00  0.00    +0.085 C 
ATOM      6  C   UNL     1      -0.165  -0.699  -6.046  0.00  0.00    +0.105 C 
ENDROOT
BRANCH   3   7
ATOM      7  C   UNL     1       0.868   0.254  -2.863  0.00  0.00    -0.012 A 
ATOM      8  C   UNL     1      -0.339  -0.096  -2.288  0.00  0.00    +0.115 A 
ATOM      9  N   UNL     1      -0.738   0.464  -1.162  0.00  0.00    -0.263 NA
ATOM     10  C   UNL     1      -0.009   1.372  -0.544  0.00  0.00    +0.111 A 
ATOM     11  C   UNL     1       1.210   1.772  -1.058  0.00  0.00    +0.020 A 
ATOM     12  C   UNL     1       1.664   1.201  -2.238  0.00  0.00    +0.008 A 
ENDBRANCH   3   7
TORSDOF 1
ENDMDL
MODEL 4
REMARK VINA RESULT:    -4.919      1.286      2.349
REMARK INTER + INTRA:          -5.453
REMARK INTER:                  -5.260
REMARK INTRA:                  -0.193
REMARK UNBOUND:                -0.247
REMARK  Name = Nicotine.pdb
REMARK  2 active torsions:
REMARK  status: ('A' for Active; 'I' for Inactive)
REMARK    1  A    between atoms: C_3  and  C_6
REMARK    2  A    between atoms: N_4  and  C_12
REMARK                            x       y       z     vdW  Elec       q    Type
REMARK                         _______ _______ _______ _____ _____    ______ ____
ROOT
ATOM      1  C   UNL     1      -0.257  -0.179  -2.733  0.00  0.00    +0.017 C 
ATOM      2  C   UNL     1      -1.341   0.010  -1.640  0.00  0.00    +0.025 C 
ATOM      3  C   UNL     1      -0.619   0.871  -0.581  0.00  0.00    +0.088 C 
ATOM      4  N   UNL     1       0.829   0.677  -0.773  0.00  0.00    -0.298 NA
ATOM      5  C   UNL     1       1.033  -0.280  -1.881  0.00  0.00    +0.085 C 
ATOM      6  C   UNL     1       1.500   1.954  -1.049  0.00  0.00    +0.105 C 
ENDROOT
BRANCH   3   7
ATOM      7  C   UNL     1      -1.019   0.424   0.802  0.00  0.00    -0.012 A 
ATOM      8  C   UNL     1      -2.048   1.059   1.471  0.00  0.00    +0.115 A 
ATOM      9  N   UNL     1      -2.404   0.674   2.681  0.00  0.00    -0.263 NA
ATOM     10  C   UNL     1      -1.799  -0.321   3.298  0.00  0.00    +0.111 A 
ATOM     11  C   UNL     1      -0.761  -1.004   2.691  0.00  0.00    +0.020 A 
ATOM     12  C   UNL     1      -0.363  -0.631   1.416  0.00  0.00    +0.008 A 
ENDBRANCH   3   7
TORSDOF 1
ENDMDL
MODEL 5
REMARK VINA RESULT:    -4.703      2.300      5.364
REMARK INTER + INTRA:          -5.224
REMARK INTER:                  -5.003
REMARK INTRA:                  -0.221
REMARK UNBOUND:                -0.247
REMARK  Name = Nicotine.pdb
REMARK  2 active torsions:
REMARK  status: ('A' for Active; 'I' for Inactive)
REMARK    1  A    between atoms: C_3  and  C_6
REMARK    2  A    between atoms: N_4  and  C_12
REMARK                            x       y       z     vdW  Elec       q    Type
REMARK                         _______ _______ _______ _____ _____    ______ ____
ROOT
ATOM      1  C   UNL     1       0.989   1.511  -0.509  0.00  0.00    +0.017 C 
ATOM      2  C   UNL     1       1.518   1.637  -1.962  0.00  0.00    +0.025 C 
ATOM      3  C   UNL     1       0.645   0.628  -2.738  0.00  0.00    +0.088 C 
ATOM      4  N   UNL     1       0.129  -0.346  -1.760  0.00  0.00    -0.298 NA
ATOM      5  C   UNL     1       0.662  -0.001  -0.425  0.00  0.00    +0.085 C 
ATOM      6  C   UNL     1      -1.339  -0.359  -1.753  0.00  0.00    +0.105 C 
ENDROOT
BRANCH   3   7
ATOM      7  C   UNL     1       1.478  -0.078  -3.776  0.00  0.00    -0.012 A 
ATOM      8  C   UNL     1       1.640  -1.450  -3.728  0.00  0.00    +0.115 A 
ATOM      9  N   UNL     1       2.367  -2.076  -4.633  0.00  0.00    -0.263 NA
ATOM     10  C   UNL     1       2.964  -1.426  -5.612  0.00  0.00    +0.111 A 
ATOM     11  C   UNL     1       2.848  -0.054  -5.725  0.00  0.00    +0.020 A 
ATOM     12  C   UNL     1       2.087   0.638  -4.795  0.00  0.00    +0.008 A 
ENDBRANCH   3   7
TORSDOF 1
ENDMDL
MODEL 6
REMARK VINA RESULT:    -4.488      2.312      4.130
REMARK INTER + INTRA:          -4.997
REMARK INTER:                  -4.798
REMARK INTRA:                  -0.199
REMARK UNBOUND:                -0.247
REMARK  Name = Nicotine.pdb
REMARK  2 active torsions:
REMARK  status: ('A' for Active; 'I' for Inactive)
REMARK    1  A    between atoms: C_3  and  C_6
REMARK    2  A    between atoms: N_4  and  C_12
REMARK                            x       y       z     vdW  Elec       q    Type
REMARK                         _______ _______ _______ _____ _____    ______ ____
ROOT
ATOM      1  C   UNL     1      -1.920  -3.329  -2.883  0.00  0.00    +0.017 C 
ATOM      2  C   UNL     1      -1.808  -2.066  -1.989  0.00  0.00    +0.025 C 
ATOM      3  C   UNL     1      -1.487  -0.949  -3.004  0.00  0.00    +0.088 C 
ATOM      4  N   UNL     1      -0.909  -1.595  -4.196  0.00  0.00    -0.298 NA
ATOM      5  C   UNL     1      -0.836  -3.052  -3.954  0.00  0.00    +0.085 C 
ATOM      6  C   UNL     1      -1.706  -1.300  -5.394  0.00  0.00    +0.105 C 
ENDROOT
BRANCH   3   7
ATOM      7  C   UNL     1      -0.493   0.014  -2.409  0.00  0.00    -0.012 A 
ATOM      8  C   UNL     1      -0.655   0.478  -1.117  0.00  0.00    +0.115 A 
ATOM      9  N   UNL     1       0.210   1.321  -0.589  0.00  0.00    -0.263 NA
ATOM     10  C   UNL     1       1.256   1.754  -1.264  0.00  0.00    +0.111 A 
ATOM     11  C   UNL     1       1.485   1.334  -2.561  0.00  0.00    +0.020 A 
ATOM     12  C   UNL     1       0.599   0.444  -3.148  0.00  0.00    +0.008 A 
ENDBRANCH   3   7
TORSDOF 1
ENDMDL
MODEL 7
REMARK VINA RESULT:    -4.465      1.635      4.646
REMARK INTER + INTRA:          -4.973
REMARK INTER:                  -4.726
REMARK INTRA:                  -0.247
REMARK UNBOUND:                -0.247
REMARK  Name = Nicotine.pdb
REMARK  2 active torsions:
REMARK  status: ('A' for Active; 'I' for Inactive)
REMARK    1  A    between atoms: C_3  and  C_6
REMARK    2  A    between atoms: N_4  and  C_12
REMARK                            x       y       z     vdW  Elec       q    Type
REMARK                         _______ _______ _______ _____ _____    ______ ____
ROOT
ATOM      1  C   UNL     1      -1.521   0.507   0.460  0.00  0.00    +0.017 C 
ATOM      2  C   UNL     1      -1.279   0.468  -1.072  0.00  0.00    +0.025 C 
ATOM      3  C   UNL     1      -0.374  -0.769  -1.250  0.00  0.00    +0.088 C 
ATOM      4  N   UNL     1       0.281  -1.021   0.046  0.00  0.00    -0.298 NA
ATOM      5  C   UNL     1      -0.156   0.016   1.005  0.00  0.00    +0.085 C 
ATOM      6  C   UNL     1      -0.034  -2.366   0.544  0.00  0.00    +0.105 C 
ENDROOT
BRANCH   3   7
ATOM      7  C   UNL     1       0.664  -0.498  -2.307  0.00  0.00    -0.012 A 
ATOM      8  C   UNL     1       1.516  -1.502  -2.724  0.00  0.00    +0.115 A 
ATOM      9  N   UNL     1       2.428  -1.273  -3.650  0.00  0.00    -0.263 NA
ATOM     10  C   UNL     1       2.564  -0.087  -4.210  0.00  0.00    +0.111 A 
ATOM     11  C   UNL     1       1.747   0.966  -3.843  0.00  0.00    +0.020 A 
ATOM     12  C   UNL     1       0.773   0.761  -2.878  0.00  0.00    +0.008 A 
ENDBRANCH   3   7
TORSDOF 1
ENDMDL
MODEL 8
REMARK VINA RESULT:    -4.414      2.131      5.326
REMARK INTER + INTRA:          -4.919
REMARK INTER:                  -4.703
REMARK INTRA:                  -0.216
REMARK UNBOUND:                -0.247
REMARK  Name = Nicotine.pdb
REMARK  2 active torsions:
REMARK  status: ('A' for Active; 'I' for Inactive)
REMARK    1  A    between atoms: C_3  and  C_6
REMARK    2  A    between atoms: N_4  and  C_12
REMARK                            x       y       z     vdW  Elec       q    Type
REMARK                         _______ _______ _______ _____ _____    ______ ____
ROOT
ATOM      1  C   UNL     1       0.186  -0.597  -0.197  0.00  0.00    +0.017 C 
ATOM      2  C   UNL     1       0.724  -1.146  -1.544  0.00  0.00    +0.025 C 
ATOM      3  C   UNL     1       1.340   0.105  -2.207  0.00  0.00    +0.088 C 
ATOM      4  N   UNL     1       0.703   1.283  -1.593  0.00  0.00    -0.298 NA
ATOM      5  C   UNL     1      -0.293   0.819  -0.604  0.00  0.00    +0.085 C 
ATOM      6  C   UNL     1       1.703   2.156  -0.965  0.00  0.00    +0.105 C 
ENDROOT
BRANCH   3   7
ATOM      7  C   UNL     1       1.068   0.086  -3.689  0.00  0.00    -0.012 A 
ATOM      8  C   UNL     1       0.037  -0.679  -4.201  0.00  0.00    +0.115 A 
ATOM      9  N   UNL     1      -0.208  -0.700  -5.497  0.00  0.00    -0.263 NA
ATOM     10  C   UNL     1       0.514  -0.001  -6.350  0.00  0.00    +0.111 A 
ATOM     11  C   UNL     1       1.561   0.788  -5.912  0.00  0.00    +0.020 A 
ATOM     12  C   UNL     1       1.845   0.840  -4.556  0.00  0.00    +0.008 A 
ENDBRANCH   3   7
TORSDOF 1
ENDMDL
MODEL 9
REMARK VINA RESULT:    -4.384      1.839      4.930
REMARK INTER + INTRA:          -4.887
REMARK INTER:                  -4.660
REMARK INTRA:                  -0.228
REMARK UNBOUND:                -0.247
REMARK  Name = Nicotine.pdb
REMARK  2 active torsions:
REMARK  status: ('A' for Active; 'I' for Inactive)
REMARK    1  A    between atoms: C_3  and  C_6
REMARK    2  A    between atoms: N_4  and  C_12
REMARK                            x       y       z     vdW  Elec       q    Type
REMARK                         _______ _______ _______ _____ _____    ______ ____
ROOT
ATOM      1  C   UNL     1       1.573   1.999  -1.238  0.00  0.00    +0.017 C 
ATOM      2  C   UNL     1       1.502   1.316  -2.629  0.00  0.00    +0.025 C 
ATOM      3  C   UNL     1       0.243   0.430  -2.517  0.00  0.00    +0.088 C 
ATOM      4  N   UNL     1       0.001   0.194  -1.083  0.00  0.00    -0.298 NA
ATOM      5  C   UNL     1       1.064   0.869  -0.308  0.00  0.00    +0.085 C 
ATOM      6  C   UNL     1      -1.328   0.677  -0.685  0.00  0.00    +0.105 C 
ENDROOT
BRANCH   3   7
ATOM      7  C   UNL     1       0.473  -0.881  -3.223  0.00  0.00    -0.012 A 
ATOM      8  C   UNL     1      -0.409  -1.318  -4.192  0.00  0.00    +0.115 A 
ATOM      9  N   UNL     1      -0.215  -2.465  -4.814  0.00  0.00    -0.263 NA
ATOM     10  C   UNL     1       0.820  -3.235  -4.540  0.00  0.00    +0.111 A 
ATOM     11  C   UNL     1       1.745  -2.863  -3.583  0.00  0.00    +0.020 A 
ATOM     12  C   UNL     1       1.576  -1.662  -2.912  0.00  0.00    +0.008 A 
ENDBRANCH   3   7
TORSDOF 1
ENDMDL
MODEL 10
REMARK VINA RESULT:    -4.325      2.318      3.916
REMARK INTER + INTRA:          -4.824
REMARK INTER:                  -4.609
REMARK INTRA:                  -0.215
REMARK UNBOUND:                -0.247
REMARK  Name = Nicotine.pdb
REMARK  2 active torsions:
REMARK  status: ('A' for Active; 'I' for Inactive)
REMARK    1  A    between atoms: C_3  and  C_6
REMARK    2  A    between atoms: N_4  and  C_12
REMARK                            x       y       z     vdW  Elec       q    Type
REMARK                         _______ _______ _______ _____ _____    ______ ____
ROOT
ATOM      1  C   UNL     1      -0.623  -2.453  -5.157  0.00  0.00    +0.017 C 
ATOM      2  C   UNL     1      -0.969  -1.113  -4.454  0.00  0.00    +0.025 C 
ATOM      3  C   UNL     1       0.405  -0.421  -4.330  0.00  0.00    +0.088 C 
ATOM      4  N   UNL     1       1.433  -1.475  -4.400  0.00  0.00    -0.298 NA
ATOM      5  C   UNL     1       0.758  -2.783  -4.536  0.00  0.00    +0.085 C 
ATOM      6  C   UNL     1       2.354  -1.238  -5.519  0.00  0.00    +0.105 C 
ENDROOT
BRANCH   3   7
ATOM      7  C   UNL     1       0.497   0.301  -3.011  0.00  0.00    -0.012 A 
ATOM      8  C   UNL     1      -0.415   0.040  -2.006  0.00  0.00    +0.115 A 
ATOM      9  N   UNL     1      -0.341   0.667  -0.848  0.00  0.00    -0.263 NA
ATOM     10  C   UNL     1       0.597   1.560  -0.602  0.00  0.00    +0.111 A 
ATOM     11  C   UNL     1       1.545   1.873  -1.559  0.00  0.00    +0.020 A 
ATOM     12  C   UNL     1       1.501   1.230  -2.787  0.00  0.00    +0.008 A 
ENDBRANCH   3   7
TORSDOF 1
ENDMDL
