MODEL 1
REMARK VINA RESULT:    -4.115      0.000      0.000
REMARK INTER + INTRA:          -4.524
REMARK INTER:                  -4.356
REMARK INTRA:                  -0.168
REMARK UNBOUND:                -0.168
REMARK  Name = Nicotine.pdb
REMARK  2 active torsions:
REMARK  status: ('A' for Active; 'I' for Inactive)
REMARK    1  A    between atoms: C_3  and  C_6
REMARK    2  A    between atoms: N_4  and  C_12
REMARK                            x       y       z     vdW  Elec       q    Type
REMARK                         _______ _______ _______ _____ _____    ______ ____
ROOT
ATOM      1  C   UNL     1       4.280   2.439   2.372  0.00  0.00    +0.017 C 
ATOM      2  C   UNL     1       5.732   2.410   1.826  0.00  0.00    +0.025 C 
ATOM      3  C   UNL     1       5.664   3.357   0.610  0.00  0.00    +0.088 C 
ATOM      4  N   UNL     1       4.254   3.422   0.185  0.00  0.00    -0.298 NA
ATOM      5  C   UNL     1       3.456   2.542   1.065  0.00  0.00    +0.085 C 
ATOM      6  C   UNL     1       3.754   4.803   0.227  0.00  0.00    +0.105 C 
ENDROOT
BRANCH   3   7
ATOM      7  C   UNL     1       6.514   2.815  -0.510  0.00  0.00    -0.012 A 
ATOM      8  C   UNL     1       6.072   1.747  -1.269  0.00  0.00    +0.115 A 
ATOM      9  N   UNL     1       6.810   1.267  -2.251  0.00  0.00    -0.263 NA
ATOM     10  C   UNL     1       7.988   1.779  -2.548  0.00  0.00    +0.111 A 
ATOM     11  C   UNL     1       8.495   2.848  -1.833  0.00  0.00    +0.020 A 
ATOM     12  C   UNL     1       7.745   3.384  -0.797  0.00  0.00    +0.008 A 
ENDBRANCH   3   7
TORSDOF 1
ENDMDL
MODEL 2
REMARK VINA RESULT:    -3.968      0.811      1.369
REMARK INTER + INTRA:          -4.368
REMARK INTER:                  -4.163
REMARK INTRA:                  -0.205
REMARK UNBOUND:                -0.168
REMARK  Name = Nicotine.pdb
REMARK  2 active torsions:
REMARK  status: ('A' for Active; 'I' for Inactive)
REMARK    1  A    between atoms: C_3  and  C_6
REMARK    2  A    between atoms: N_4  and  C_12
REMARK                            x       y       z     vdW  Elec       q    Type
REMARK                         _______ _______ _______ _____ _____    ______ ____
ROOT
ATOM      1  C   UNL     1       4.224   2.435   2.346  0.00  0.00    +0.017 C 
ATOM      2  C   UNL     1       5.693   2.429   1.846  0.00  0.00    +0.025 C 
ATOM      3  C   UNL     1       5.653   3.391   0.640  0.00  0.00    +0.088 C 
ATOM      4  N   UNL     1       4.257   3.447   0.171  0.00  0.00    -0.298 NA
ATOM      5  C   UNL     1       3.441   2.547   1.014  0.00  0.00    +0.085 C 
ATOM      6  C   UNL     1       3.741   4.821   0.215  0.00  0.00    +0.105 C 
ENDROOT
BRANCH   3   7
ATOM      7  C   UNL     1       6.544   2.872  -0.459  0.00  0.00    -0.012 A 
ATOM      8  C   UNL     1       7.683   3.566  -0.821  0.00  0.00    +0.115 A 
ATOM      9  N   UNL     1       8.468   3.119  -1.782  0.00  0.00    -0.263 NA
ATOM     10  C   UNL     1       8.203   2.003  -2.431  0.00  0.00    +0.111 A 
ATOM     11  C   UNL     1       7.081   1.255  -2.123  0.00  0.00    +0.020 A 
ATOM     12  C   UNL     1       6.235   1.691  -1.115  0.00  0.00    +0.008 A 
ENDBRANCH   3   7
TORSDOF 1
ENDMDL
MODEL 3
REMARK VINA RESULT:    -3.956      2.393      3.770
REMARK INTER + INTRA:          -4.356
REMARK INTER:                  -4.152
REMARK INTRA:                  -0.203
REMARK UNBOUND:                -0.168
REMARK  Name = Nicotine.pdb
REMARK  2 active torsions:
REMARK  status: ('A' for Active; 'I' for Inactive)
REMARK    1  A    between atoms: C_3  and  C_6
REMARK    2  A    between atoms: N_4  and  C_12
REMARK                            x       y       z     vdW  Elec       q    Type
REMARK                         _______ _______ _______ _____ _____    ______ ____
ROOT
ATOM      1  C   UNL     1       5.881   2.153  -0.512  0.00  0.00    +0.017 C 
ATOM      2  C   UNL     1       6.705   1.545  -1.677  0.00  0.00    +0.025 C 
ATOM      3  C   UNL     1       8.146   1.551  -1.124  0.00  0.00    +0.088 C 
ATOM      4  N   UNL     1       8.200   2.566  -0.057  0.00  0.00    -0.298 NA
ATOM      5  C   UNL     1       6.870   3.202   0.056  0.00  0.00    +0.085 C 
ATOM      6  C   UNL     1       8.608   1.966   1.221  0.00  0.00    +0.105 C 
ENDROOT
BRANCH   3   7
ATOM      7  C   UNL     1       9.115   1.907  -2.221  0.00  0.00    -0.012 A 
ATOM      8  C   UNL     1      10.018   0.970  -2.688  0.00  0.00    +0.115 A 
ATOM      9  N   UNL     1      10.869   1.273  -3.648  0.00  0.00    -0.263 NA
ATOM     10  C   UNL     1      10.895   2.471  -4.198  0.00  0.00    +0.111 A 
ATOM     11  C   UNL     1      10.022   3.459  -3.784  0.00  0.00    +0.020 A 
ATOM     12  C   UNL     1       9.109   3.176  -2.780  0.00  0.00    +0.008 A 
ENDBRANCH   3   7
TORSDOF 1
ENDMDL
MODEL 4
REMARK VINA RESULT:    -3.955      1.671      5.053
REMARK INTER + INTRA:          -4.355
REMARK INTER:                  -4.136
REMARK INTRA:                  -0.219
REMARK UNBOUND:                -0.168
REMARK  Name = Nicotine.pdb
REMARK  2 active torsions:
REMARK  status: ('A' for Active; 'I' for Inactive)
REMARK    1  A    between atoms: C_3  and  C_6
REMARK    2  A    between atoms: N_4  and  C_12
REMARK                            x       y       z     vdW  Elec       q    Type
REMARK                         _______ _______ _______ _____ _____    ______ ____
ROOT
ATOM      1  C   UNL     1      10.458   4.104  -2.987  0.00  0.00    +0.017 C 
ATOM      2  C   UNL     1       9.683   4.340  -1.664  0.00  0.00    +0.025 C 
ATOM      3  C   UNL     1       8.948   3.000  -1.449  0.00  0.00    +0.088 C 
ATOM      4  N   UNL     1       8.848   2.340  -2.764  0.00  0.00    -0.298 NA
ATOM      5  C   UNL     1       9.463   3.221  -3.780  0.00  0.00    +0.085 C 
ATOM      6  C   UNL     1       9.498   1.024  -2.744  0.00  0.00    +0.105 C 
ENDROOT
BRANCH   3   7
ATOM      7  C   UNL     1       7.570   3.254  -0.896  0.00  0.00    -0.012 A 
ATOM      8  C   UNL     1       6.595   2.278  -0.971  0.00  0.00    +0.115 A 
ATOM      9  N   UNL     1       5.386   2.492  -0.488  0.00  0.00    -0.263 NA
ATOM     10  C   UNL     1       5.060   3.636   0.080  0.00  0.00    +0.111 A 
ATOM     11  C   UNL     1       5.983   4.660   0.191  0.00  0.00    +0.020 A 
ATOM     12  C   UNL     1       7.265   4.469  -0.299  0.00  0.00    +0.008 A 
ENDBRANCH   3   7
TORSDOF 1
ENDMDL
MODEL 5
REMARK VINA RESULT:    -3.710      1.168      4.472
REMARK INTER + INTRA:          -4.095
REMARK INTER:                  -3.921
REMARK INTRA:                  -0.174
REMARK UNBOUND:                -0.168
REMARK  Name = Nicotine.pdb
REMARK  2 active torsions:
REMARK  status: ('A' for Active; 'I' for Inactive)
REMARK    1  A    between atoms: C_3  and  C_6
REMARK    2  A    between atoms: N_4  and  C_12
REMARK                            x       y       z     vdW  Elec       q    Type
REMARK                         _______ _______ _______ _____ _____    ______ ____
ROOT
ATOM      1  C   UNL     1       8.963   2.948  -0.217  0.00  0.00    +0.017 C 
ATOM      2  C   UNL     1       7.764   3.007   0.765  0.00  0.00    +0.025 C 
ATOM      3  C   UNL     1       6.669   2.211   0.025  0.00  0.00    +0.088 C 
ATOM      4  N   UNL     1       7.010   2.228  -1.409  0.00  0.00    -0.298 NA
ATOM      5  C   UNL     1       8.247   3.017  -1.589  0.00  0.00    +0.085 C 
ATOM      6  C   UNL     1       7.174   0.864  -1.928  0.00  0.00    +0.105 C 
ENDROOT
BRANCH   3   7
ATOM      7  C   UNL     1       5.327   2.861   0.242  0.00  0.00    -0.012 A 
ATOM      8  C   UNL     1       5.073   4.124  -0.258  0.00  0.00    +0.115 A 
ATOM      9  N   UNL     1       3.901   4.700  -0.073  0.00  0.00    -0.263 NA
ATOM     10  C   UNL     1       2.932   4.102   0.591  0.00  0.00    +0.111 A 
ATOM     11  C   UNL     1       3.112   2.837   1.120  0.00  0.00    +0.020 A 
ATOM     12  C   UNL     1       4.329   2.198   0.941  0.00  0.00    +0.008 A 
ENDBRANCH   3   7
TORSDOF 1
ENDMDL
MODEL 6
REMARK VINA RESULT:    -3.547      3.940      5.425
REMARK INTER + INTRA:          -3.922
REMARK INTER:                  -3.721
REMARK INTRA:                  -0.201
REMARK UNBOUND:                -0.168
REMARK  Name = Nicotine.pdb
REMARK  2 active torsions:
REMARK  status: ('A' for Active; 'I' for Inactive)
REMARK    1  A    between atoms: C_3  and  C_6
REMARK    2  A    between atoms: N_4  and  C_12
REMARK                            x       y       z     vdW  Elec       q    Type
REMARK                         _______ _______ _______ _____ _____    ______ ____
ROOT
ATOM      1  C   UNL     1       1.897   5.134  -0.017  0.00  0.00    +0.017 C 
ATOM      2  C   UNL     1       1.486   4.244   1.185  0.00  0.00    +0.025 C 
ATOM      3  C   UNL     1       2.577   4.550   2.232  0.00  0.00    +0.088 C 
ATOM      4  N   UNL     1       3.750   5.067   1.504  0.00  0.00    -0.298 NA
ATOM      5  C   UNL     1       3.442   5.068   0.058  0.00  0.00    +0.085 C 
ATOM      6  C   UNL     1       4.108   6.413   1.968  0.00  0.00    +0.105 C 
ENDROOT
BRANCH   3   7
ATOM      7  C   UNL     1       2.945   3.291   2.973  0.00  0.00    -0.012 A 
ATOM      8  C   UNL     1       2.607   3.138   4.304  0.00  0.00    +0.115 A 
ATOM      9  N   UNL     1       2.925   2.039   4.959  0.00  0.00    -0.263 NA
ATOM     10  C   UNL     1       3.574   1.049   4.378  0.00  0.00    +0.111 A 
ATOM     11  C   UNL     1       3.945   1.130   3.049  0.00  0.00    +0.020 A 
ATOM     12  C   UNL     1       3.623   2.268   2.327  0.00  0.00    +0.008 A 
ENDBRANCH   3   7
TORSDOF 1
ENDMDL
MODEL 7
REMARK VINA RESULT:    -3.521      9.909     10.887
REMARK INTER + INTRA:          -3.895
REMARK INTER:                  -3.639
REMARK INTRA:                  -0.256
REMARK UNBOUND:                -0.168
REMARK  Name = Nicotine.pdb
REMARK  2 active torsions:
REMARK  status: ('A' for Active; 'I' for Inactive)
REMARK    1  A    between atoms: C_3  and  C_6
REMARK    2  A    between atoms: N_4  and  C_12
REMARK                            x       y       z     vdW  Elec       q    Type
REMARK                         _______ _______ _______ _____ _____    ______ ____
ROOT
ATOM      1  C   UNL     1      -4.789  -1.152   2.947  0.00  0.00    +0.017 C 
ATOM      2  C   UNL     1      -3.243  -1.041   3.018  0.00  0.00    +0.025 C 
ATOM      3  C   UNL     1      -2.774  -2.448   2.590  0.00  0.00    +0.088 C 
ATOM      4  N   UNL     1      -3.895  -3.375   2.833  0.00  0.00    -0.298 NA
ATOM      5  C   UNL     1      -5.020  -2.611   3.413  0.00  0.00    +0.085 C 
ATOM      6  C   UNL     1      -4.299  -4.050   1.593  0.00  0.00    +0.105 C 
ENDROOT
BRANCH   3   7
ATOM      7  C   UNL     1      -1.579  -2.861   3.408  0.00  0.00    -0.012 A 
ATOM      8  C   UNL     1      -0.687  -3.798   2.920  0.00  0.00    +0.115 A 
ATOM      9  N   UNL     1       0.362  -4.165   3.630  0.00  0.00    -0.263 NA
ATOM     10  C   UNL     1       0.602  -3.660   4.824  0.00  0.00    +0.111 A 
ATOM     11  C   UNL     1      -0.245  -2.717   5.377  0.00  0.00    +0.020 A 
ATOM     12  C   UNL     1      -1.355  -2.303   4.658  0.00  0.00    +0.008 A 
ENDBRANCH   3   7
TORSDOF 1
ENDMDL
MODEL 8
REMARK VINA RESULT:    -3.473      3.411      5.083
REMARK INTER + INTRA:          -3.844
REMARK INTER:                  -3.647
REMARK INTRA:                  -0.197
REMARK UNBOUND:                -0.168
REMARK  Name = Nicotine.pdb
REMARK  2 active torsions:
REMARK  status: ('A' for Active; 'I' for Inactive)
REMARK    1  A    between atoms: C_3  and  C_6
REMARK    2  A    between atoms: N_4  and  C_12
REMARK                            x       y       z     vdW  Elec       q    Type
REMARK                         _______ _______ _______ _____ _____    ______ ____
ROOT
ATOM      1  C   UNL     1       4.247   5.861  -0.158  0.00  0.00    +0.017 C 
ATOM      2  C   UNL     1       4.649   4.480   0.424  0.00  0.00    +0.025 C 
ATOM      3  C   UNL     1       3.286   3.812   0.704  0.00  0.00    +0.088 C 
ATOM      4  N   UNL     1       2.288   4.890   0.829  0.00  0.00    -0.298 NA
ATOM      5  C   UNL     1       2.975   6.188   0.664  0.00  0.00    +0.085 C 
ATOM      6  C   UNL     1       1.215   4.731  -0.161  0.00  0.00    +0.105 C 
ENDROOT
BRANCH   3   7
ATOM      7  C   UNL     1       3.355   3.025   1.987  0.00  0.00    -0.012 A 
ATOM      8  C   UNL     1       2.807   3.532   3.149  0.00  0.00    +0.115 A 
ATOM      9  N   UNL     1       2.863   2.850   4.277  0.00  0.00    -0.263 NA
ATOM     10  C   UNL     1       3.440   1.666   4.342  0.00  0.00    +0.111 A 
ATOM     11  C   UNL     1       4.010   1.094   3.219  0.00  0.00    +0.020 A 
ATOM     12  C   UNL     1       3.965   1.779   2.015  0.00  0.00    +0.008 A 
ENDBRANCH   3   7
TORSDOF 1
ENDMDL
MODEL 9
REMARK VINA RESULT:    -3.391      1.621      4.321
REMARK INTER + INTRA:          -3.758
REMARK INTER:                  -3.548
REMARK INTRA:                  -0.210
REMARK UNBOUND:                -0.168
REMARK  Name = Nicotine.pdb
REMARK  2 active torsions:
REMARK  status: ('A' for Active; 'I' for Inactive)
REMARK    1  A    between atoms: C_3  and  C_6
REMARK    2  A    between atoms: N_4  and  C_12
REMARK                            x       y       z     vdW  Elec       q    Type
REMARK                         _______ _______ _______ _____ _____    ______ ____
ROOT
ATOM      1  C   UNL     1       8.249   1.574  -0.870  0.00  0.00    +0.017 C 
ATOM      2  C   UNL     1       6.796   1.971  -1.241  0.00  0.00    +0.025 C 
ATOM      3  C   UNL     1       6.630   3.349  -0.566  0.00  0.00    +0.088 C 
ATOM      4  N   UNL     1       7.625   3.427   0.519  0.00  0.00    -0.298 NA
ATOM      5  C   UNL     1       8.377   2.154   0.560  0.00  0.00    +0.085 C 
ATOM      6  C   UNL     1       8.530   4.567   0.324  0.00  0.00    +0.105 C 
ENDROOT
BRANCH   3   7
ATOM      7  C   UNL     1       5.240   3.479   0.001  0.00  0.00    -0.012 A 
ATOM      8  C   UNL     1       4.627   2.395   0.601  0.00  0.00    +0.115 A 
ATOM      9  N   UNL     1       3.410   2.500   1.100  0.00  0.00    -0.263 NA
ATOM     10  C   UNL     1       2.735   3.631   1.048  0.00  0.00    +0.111 A 
ATOM     11  C   UNL     1       3.284   4.757   0.464  0.00  0.00    +0.020 A 
ATOM     12  C   UNL     1       4.563   4.687  -0.067  0.00  0.00    +0.008 A 
ENDBRANCH   3   7
TORSDOF 1
ENDMDL
MODEL 10
REMARK VINA RESULT:    -3.372      1.500      4.463
REMARK INTER + INTRA:          -3.737
REMARK INTER:                  -3.526
REMARK INTRA:                  -0.211
REMARK UNBOUND:                -0.168
REMARK  Name = Nicotine.pdb
REMARK  2 active torsions:
REMARK  status: ('A' for Active; 'I' for Inactive)
REMARK    1  A    between atoms: C_3  and  C_6
REMARK    2  A    between atoms: N_4  and  C_12
REMARK                            x       y       z     vdW  Elec       q    Type
REMARK                         _______ _______ _______ _____ _____    ______ ____
ROOT
ATOM      1  C   UNL     1       7.592   1.008  -2.388  0.00  0.00    +0.017 C 
ATOM      2  C   UNL     1       6.272   1.230  -1.604  0.00  0.00    +0.025 C 
ATOM      3  C   UNL     1       6.558   2.518  -0.802  0.00  0.00    +0.088 C 
ATOM      4  N   UNL     1       8.022   2.648  -0.691  0.00  0.00    -0.298 NA
ATOM      5  C   UNL     1       8.650   1.491  -1.364  0.00  0.00    +0.085 C 
ATOM      6  C   UNL     1       8.484   3.913  -1.277  0.00  0.00    +0.105 C 
ENDROOT
BRANCH   3   7
ATOM      7  C   UNL     1       5.946   2.413   0.571  0.00  0.00    -0.012 A 
ATOM      8  C   UNL     1       4.600   2.134   0.717  0.00  0.00    +0.115 A 
ATOM      9  N   UNL     1       4.057   2.040   1.915  0.00  0.00    -0.263 NA
ATOM     10  C   UNL     1       4.768   2.207   3.013  0.00  0.00    +0.111 A 
ATOM     11  C   UNL     1       6.120   2.487   2.946  0.00  0.00    +0.020 A 
ATOM     12  C   UNL     1       6.727   2.588   1.704  0.00  0.00    +0.008 A 
ENDBRANCH   3   7
TORSDOF 1
ENDMDL
