MODEL 1
REMARK VINA RESULT:    -5.239      0.000      0.000
REMARK INTER + INTRA:          -5.715
REMARK INTER:                  -5.545
REMARK INTRA:                  -0.170
REMARK UNBOUND:                -0.170
REMARK  Name = Nicotine.pdb
REMARK  2 active torsions:
REMARK  status: ('A' for Active; 'I' for Inactive)
REMARK    1  A    between atoms: C_3  and  C_6
REMARK    2  A    between atoms: N_4  and  C_12
REMARK                            x       y       z     vdW  Elec       q    Type
REMARK                         _______ _______ _______ _____ _____    ______ ____
ROOT
ATOM      1  C   UNL     1       0.034  -4.742  -1.909  0.00  0.00    +0.017 C 
ATOM      2  C   UNL     1      -0.166  -3.204  -1.867  0.00  0.00    +0.025 C 
ATOM      3  C   UNL     1      -0.795  -2.898  -3.243  0.00  0.00    +0.088 C 
ATOM      4  N   UNL     1      -0.437  -4.009  -4.143  0.00  0.00    -0.298 NA
ATOM      5  C   UNL     1       0.402  -4.970  -3.396  0.00  0.00    +0.085 C 
ATOM      6  C   UNL     1      -1.639  -4.663  -4.677  0.00  0.00    +0.105 C 
ENDROOT
BRANCH   3   7
ATOM      7  C   UNL     1      -0.245  -1.603  -3.781  0.00  0.00    -0.012 A 
ATOM      8  C   UNL     1       1.069  -1.521  -4.200  0.00  0.00    +0.115 A 
ATOM      9  N   UNL     1       1.558  -0.391  -4.672  0.00  0.00    -0.263 NA
ATOM     10  C   UNL     1       0.821   0.698  -4.764  0.00  0.00    +0.111 A 
ATOM     11  C   UNL     1      -0.502   0.693  -4.365  0.00  0.00    +0.020 A 
ATOM     12  C   UNL     1      -1.053  -0.479  -3.868  0.00  0.00    +0.008 A 
ENDBRANCH   3   7
TORSDOF 1
ENDMDL
MODEL 2
REMARK VINA RESULT:    -5.206      1.219      1.894
REMARK INTER + INTRA:          -5.680
REMARK INTER:                  -5.475
REMARK INTRA:                  -0.205
REMARK UNBOUND:                -0.170
REMARK  Name = Nicotine.pdb
REMARK  2 active torsions:
REMARK  status: ('A' for Active; 'I' for Inactive)
REMARK    1  A    between atoms: C_3  and  C_6
REMARK    2  A    between atoms: N_4  and  C_12
REMARK                            x       y       z     vdW  Elec       q    Type
REMARK                         _______ _______ _______ _____ _____    ______ ____
ROOT
ATOM      1  C   UNL     1       0.073  -5.295  -3.566  0.00  0.00    +0.017 C 
ATOM      2  C   UNL     1       0.715  -4.089  -4.301  0.00  0.00    +0.025 C 
ATOM      3  C   UNL     1       0.759  -3.000  -3.209  0.00  0.00    +0.088 C 
ATOM      4  N   UNL     1      -0.257  -3.351  -2.201  0.00  0.00    -0.298 NA
ATOM      5  C   UNL     1      -0.941  -4.588  -2.632  0.00  0.00    +0.085 C 
ATOM      6  C   UNL     1       0.352  -3.520  -0.875  0.00  0.00    +0.105 C 
ENDROOT
BRANCH   3   7
ATOM      7  C   UNL     1       0.443  -1.656  -3.812  0.00  0.00    -0.012 A 
ATOM      8  C   UNL     1       1.397  -0.977  -4.547  0.00  0.00    +0.115 A 
ATOM      9  N   UNL     1       1.128   0.200  -5.078  0.00  0.00    -0.263 NA
ATOM     10  C   UNL     1      -0.050   0.773  -4.931  0.00  0.00    +0.111 A 
ATOM     11  C   UNL     1      -1.054   0.154  -4.210  0.00  0.00    +0.020 A 
ATOM     12  C   UNL     1      -0.810  -1.086  -3.641  0.00  0.00    +0.008 A 
ENDBRANCH   3   7
TORSDOF 1
ENDMDL
MODEL 3
REMARK VINA RESULT:    -4.785      0.949      1.254
REMARK INTER + INTRA:          -5.234
REMARK INTER:                  -5.010
REMARK INTRA:                  -0.224
REMARK UNBOUND:                -0.170
REMARK  Name = Nicotine.pdb
REMARK  2 active torsions:
REMARK  status: ('A' for Active; 'I' for Inactive)
REMARK    1  A    between atoms: C_3  and  C_6
REMARK    2  A    between atoms: N_4  and  C_12
REMARK                            x       y       z     vdW  Elec       q    Type
REMARK                         _______ _______ _______ _____ _____    ______ ____
ROOT
ATOM      1  C   UNL     1      -0.675  -3.472  -0.683  0.00  0.00    +0.017 C 
ATOM      2  C   UNL     1      -1.147  -2.285  -1.563  0.00  0.00    +0.025 C 
ATOM      3  C   UNL     1      -0.657  -2.681  -2.972  0.00  0.00    +0.088 C 
ATOM      4  N   UNL     1       0.446  -3.643  -2.796  0.00  0.00    -0.298 NA
ATOM      5  C   UNL     1       0.675  -3.838  -1.349  0.00  0.00    +0.085 C 
ATOM      6  C   UNL     1       0.144  -4.918  -3.459  0.00  0.00    +0.105 C 
ENDROOT
BRANCH   3   7
ATOM      7  C   UNL     1      -0.163  -1.461  -3.705  0.00  0.00    -0.012 A 
ATOM      8  C   UNL     1       1.129  -1.414  -4.193  0.00  0.00    +0.115 A 
ATOM      9  N   UNL     1       1.569  -0.349  -4.836  0.00  0.00    -0.263 NA
ATOM     10  C   UNL     1       0.803   0.704  -5.037  0.00  0.00    +0.111 A 
ATOM     11  C   UNL     1      -0.501   0.729  -4.578  0.00  0.00    +0.020 A 
ATOM     12  C   UNL     1      -1.000  -0.374  -3.903  0.00  0.00    +0.008 A 
ENDBRANCH   3   7
TORSDOF 1
ENDMDL
MODEL 4
REMARK VINA RESULT:    -4.782      1.284      4.427
REMARK INTER + INTRA:          -5.231
REMARK INTER:                  -4.977
REMARK INTRA:                  -0.254
REMARK UNBOUND:                -0.170
REMARK  Name = Nicotine.pdb
REMARK  2 active torsions:
REMARK  status: ('A' for Active; 'I' for Inactive)
REMARK    1  A    between atoms: C_3  and  C_6
REMARK    2  A    between atoms: N_4  and  C_12
REMARK                            x       y       z     vdW  Elec       q    Type
REMARK                         _______ _______ _______ _____ _____    ______ ____
ROOT
ATOM      1  C   UNL     1      -1.025   1.106  -4.026  0.00  0.00    +0.017 C 
ATOM      2  C   UNL     1      -1.036  -0.227  -3.233  0.00  0.00    +0.025 C 
ATOM      3  C   UNL     1       0.249  -0.931  -3.718  0.00  0.00    +0.088 C 
ATOM      4  N   UNL     1       0.598  -0.350  -5.027  0.00  0.00    -0.298 NA
ATOM      5  C   UNL     1      -0.424   0.658  -5.382  0.00  0.00    +0.085 C 
ATOM      6  C   UNL     1       1.939   0.247  -4.998  0.00  0.00    +0.105 C 
ENDROOT
BRANCH   3   7
ATOM      7  C   UNL     1       0.001  -2.410  -3.862  0.00  0.00    -0.012 A 
ATOM      8  C   UNL     1       1.015  -3.316  -3.616  0.00  0.00    +0.115 A 
ATOM      9  N   UNL     1       0.806  -4.613  -3.740  0.00  0.00    -0.263 NA
ATOM     10  C   UNL     1      -0.367  -5.094  -4.100  0.00  0.00    +0.111 A 
ATOM     11  C   UNL     1      -1.429  -4.249  -4.362  0.00  0.00    +0.020 A 
ATOM     12  C   UNL     1      -1.249  -2.880  -4.237  0.00  0.00    +0.008 A 
ENDBRANCH   3   7
TORSDOF 1
ENDMDL
MODEL 5
REMARK VINA RESULT:    -4.456      2.503      4.436
REMARK INTER + INTRA:          -4.886
REMARK INTER:                  -4.673
REMARK INTRA:                  -0.212
REMARK UNBOUND:                -0.170
REMARK  Name = Nicotine.pdb
REMARK  2 active torsions:
REMARK  status: ('A' for Active; 'I' for Inactive)
REMARK    1  A    between atoms: C_3  and  C_6
REMARK    2  A    between atoms: N_4  and  C_12
REMARK                            x       y       z     vdW  Elec       q    Type
REMARK                         _______ _______ _______ _____ _____    ______ ____
ROOT
ATOM      1  C   UNL     1       0.418  -4.245  -4.206  0.00  0.00    +0.017 C 
ATOM      2  C   UNL     1      -0.156  -4.690  -2.836  0.00  0.00    +0.025 C 
ATOM      3  C   UNL     1      -0.741  -3.382  -2.263  0.00  0.00    +0.088 C 
ATOM      4  N   UNL     1      -0.059  -2.265  -2.939  0.00  0.00    -0.298 NA
ATOM      5  C   UNL     1       0.936  -2.821  -3.881  0.00  0.00    +0.085 C 
ATOM      6  C   UNL     1      -1.022  -1.404  -3.637  0.00  0.00    +0.105 C 
ENDROOT
BRANCH   3   7
ATOM      7  C   UNL     1      -0.490  -3.315  -0.778  0.00  0.00    -0.012 A 
ATOM      8  C   UNL     1       0.673  -3.834  -0.242  0.00  0.00    +0.115 A 
ATOM      9  N   UNL     1       0.900  -3.779   1.056  0.00  0.00    -0.263 NA
ATOM     10  C   UNL     1       0.036  -3.233   1.889  0.00  0.00    +0.111 A 
ATOM     11  C   UNL     1      -1.149  -2.693   1.425  0.00  0.00    +0.020 A 
ATOM     12  C   UNL     1      -1.420  -2.727   0.066  0.00  0.00    +0.008 A 
ENDBRANCH   3   7
TORSDOF 1
ENDMDL
MODEL 6
REMARK VINA RESULT:    -4.064      2.745      4.578
REMARK INTER + INTRA:          -4.471
REMARK INTER:                  -4.222
REMARK INTRA:                  -0.248
REMARK UNBOUND:                -0.170
REMARK  Name = Nicotine.pdb
REMARK  2 active torsions:
REMARK  status: ('A' for Active; 'I' for Inactive)
REMARK    1  A    between atoms: C_3  and  C_6
REMARK    2  A    between atoms: N_4  and  C_12
REMARK                            x       y       z     vdW  Elec       q    Type
REMARK                         _______ _______ _______ _____ _____    ______ ____
ROOT
ATOM      1  C   UNL     1      -0.372  -2.812   1.767  0.00  0.00    +0.017 C 
ATOM      2  C   UNL     1      -0.995  -3.098   0.375  0.00  0.00    +0.025 C 
ATOM      3  C   UNL     1      -0.274  -4.388  -0.070  0.00  0.00    +0.088 C 
ATOM      4  N   UNL     1       0.989  -4.466   0.687  0.00  0.00    -0.298 NA
ATOM      5  C   UNL     1       1.091  -3.274   1.556  0.00  0.00    +0.085 C 
ATOM      6  C   UNL     1       1.054  -5.702   1.478  0.00  0.00    +0.105 C 
ENDROOT
BRANCH   3   7
ATOM      7  C   UNL     1       0.016  -4.331  -1.547  0.00  0.00    -0.012 A 
ATOM      8  C   UNL     1      -0.144  -5.456  -2.335  0.00  0.00    +0.115 A 
ATOM      9  N   UNL     1       0.107  -5.415  -3.629  0.00  0.00    -0.263 NA
ATOM     10  C   UNL     1       0.517  -4.310  -4.220  0.00  0.00    +0.111 A 
ATOM     11  C   UNL     1       0.699  -3.146  -3.497  0.00  0.00    +0.020 A 
ATOM     12  C   UNL     1       0.440  -3.150  -2.135  0.00  0.00    +0.008 A 
ENDBRANCH   3   7
TORSDOF 1
ENDMDL
MODEL 7
REMARK VINA RESULT:    -3.758      2.677      4.282
REMARK INTER + INTRA:          -4.147
REMARK INTER:                  -3.925
REMARK INTRA:                  -0.222
REMARK UNBOUND:                -0.170
REMARK  Name = Nicotine.pdb
REMARK  2 active torsions:
REMARK  status: ('A' for Active; 'I' for Inactive)
REMARK    1  A    between atoms: C_3  and  C_6
REMARK    2  A    between atoms: N_4  and  C_12
REMARK                            x       y       z     vdW  Elec       q    Type
REMARK                         _______ _______ _______ _____ _____    ______ ____
ROOT
ATOM      1  C   UNL     1      -0.437  -6.027   1.230  0.00  0.00    +0.017 C 
ATOM      2  C   UNL     1       0.048  -5.758  -0.219  0.00  0.00    +0.025 C 
ATOM      3  C   UNL     1       0.460  -4.271  -0.176  0.00  0.00    +0.088 C 
ATOM      4  N   UNL     1      -0.257  -3.652   0.953  0.00  0.00    -0.298 NA
ATOM      5  C   UNL     1      -1.108  -4.679   1.591  0.00  0.00    +0.085 C 
ATOM      6  C   UNL     1       0.684  -3.072   1.920  0.00  0.00    +0.105 C 
ENDROOT
BRANCH   3   7
ATOM      7  C   UNL     1       0.071  -3.595  -1.465  0.00  0.00    -0.012 A 
ATOM      8  C   UNL     1      -0.672  -2.429  -1.446  0.00  0.00    +0.115 A 
ATOM      9  N   UNL     1      -1.016  -1.831  -2.570  0.00  0.00    -0.263 NA
ATOM     10  C   UNL     1      -0.671  -2.314  -3.747  0.00  0.00    +0.111 A 
ATOM     11  C   UNL     1       0.073  -3.476  -3.844  0.00  0.00    +0.020 A 
ATOM     12  C   UNL     1       0.458  -4.130  -2.684  0.00  0.00    +0.008 A 
ENDBRANCH   3   7
TORSDOF 1
ENDMDL
MODEL 8
REMARK VINA RESULT:    -3.157      4.925      6.557
REMARK INTER + INTRA:          -3.511
REMARK INTER:                  -3.292
REMARK INTRA:                  -0.219
REMARK UNBOUND:                -0.170
REMARK  Name = Nicotine.pdb
REMARK  2 active torsions:
REMARK  status: ('A' for Active; 'I' for Inactive)
REMARK    1  A    between atoms: C_3  and  C_6
REMARK    2  A    between atoms: N_4  and  C_12
REMARK                            x       y       z     vdW  Elec       q    Type
REMARK                         _______ _______ _______ _____ _____    ______ ____
ROOT
ATOM      1  C   UNL     1      -4.305  -3.927   3.253  0.00  0.00    +0.017 C 
ATOM      2  C   UNL     1      -3.277  -4.628   2.327  0.00  0.00    +0.025 C 
ATOM      3  C   UNL     1      -1.968  -3.864   2.621  0.00  0.00    +0.088 C 
ATOM      4  N   UNL     1      -2.344  -2.549   3.170  0.00  0.00    -0.298 NA
ATOM      5  C   UNL     1      -3.819  -2.457   3.205  0.00  0.00    +0.085 C 
ATOM      6  C   UNL     1      -1.772  -2.354   4.509  0.00  0.00    +0.105 C 
ENDROOT
BRANCH   3   7
ATOM      7  C   UNL     1      -1.183  -3.685   1.348  0.00  0.00    -0.012 A 
ATOM      8  C   UNL     1       0.104  -4.178   1.246  0.00  0.00    +0.115 A 
ATOM      9  N   UNL     1       0.799  -4.025   0.135  0.00  0.00    -0.263 NA
ATOM     10  C   UNL     1       0.300  -3.401  -0.914  0.00  0.00    +0.111 A 
ATOM     11  C   UNL     1      -0.981  -2.881  -0.885  0.00  0.00    +0.020 A 
ATOM     12  C   UNL     1      -1.743  -3.028   0.263  0.00  0.00    +0.008 A 
ENDBRANCH   3   7
TORSDOF 1
ENDMDL
MODEL 9
REMARK VINA RESULT:    -3.101      5.188      7.447
REMARK INTER + INTRA:          -3.452
REMARK INTER:                  -3.235
REMARK INTRA:                  -0.217
REMARK UNBOUND:                -0.170
REMARK  Name = Nicotine.pdb
REMARK  2 active torsions:
REMARK  status: ('A' for Active; 'I' for Inactive)
REMARK    1  A    between atoms: C_3  and  C_6
REMARK    2  A    between atoms: N_4  and  C_12
REMARK                            x       y       z     vdW  Elec       q    Type
REMARK                         _______ _______ _______ _____ _____    ______ ____
ROOT
ATOM      1  C   UNL     1       0.398   5.230  -3.167  0.00  0.00    +0.017 C 
ATOM      2  C   UNL     1       0.767   3.746  -3.432  0.00  0.00    +0.025 C 
ATOM      3  C   UNL     1       2.186   3.843  -4.033  0.00  0.00    +0.088 C 
ATOM      4  N   UNL     1       2.336   5.204  -4.581  0.00  0.00    -0.298 NA
ATOM      5  C   UNL     1       1.071   5.939  -4.369  0.00  0.00    +0.085 C 
ATOM      6  C   UNL     1       3.464   5.904  -3.953  0.00  0.00    +0.105 C 
ENDROOT
BRANCH   3   7
ATOM      7  C   UNL     1       2.348   2.826  -5.132  0.00  0.00    -0.012 A 
ATOM      8  C   UNL     1       3.040   3.146  -6.285  0.00  0.00    +0.115 A 
ATOM      9  N   UNL     1       3.187   2.261  -7.251  0.00  0.00    -0.263 NA
ATOM     10  C   UNL     1       2.684   1.045  -7.161  0.00  0.00    +0.111 A 
ATOM     11  C   UNL     1       1.979   0.653  -6.038  0.00  0.00    +0.020 A 
ATOM     12  C   UNL     1       1.809   1.555  -4.998  0.00  0.00    +0.008 A 
ENDBRANCH   3   7
TORSDOF 1
ENDMDL
