MODEL 1
REMARK VINA RESULT:     0.000      0.000      0.000
REMARK INTER + INTRA:          -0.256
REMARK INTER:                   0.000
REMARK INTRA:                  -0.256
REMARK UNBOUND:                -0.256
REMARK  Name = Nicotine.pdb
REMARK  2 active torsions:
REMARK  status: ('A' for Active; 'I' for Inactive)
REMARK    1  A    between atoms: C_3  and  C_6
REMARK    2  A    between atoms: N_4  and  C_12
REMARK                            x       y       z     vdW  Elec       q    Type
REMARK                         _______ _______ _______ _____ _____    ______ ____
ROOT
ATOM      1  C   UNL     1      -0.076   0.194  -6.050  0.00  0.00    +0.017 C 
ATOM      2  C   UNL     1       0.233   1.408  -5.135  0.00  0.00    +0.025 C 
ATOM      3  C   UNL     1       1.705   1.175  -4.735  0.00  0.00    +0.088 C 
ATOM      4  N   UNL     1       1.982  -0.262  -4.908  0.00  0.00    -0.298 NA
ATOM      5  C   UNL     1       0.746  -0.928  -5.370  0.00  0.00    +0.085 C 
ATOM      6  C   UNL     1       3.083  -0.476  -5.856  0.00  0.00    +0.105 C 
ENDROOT
BRANCH   3   7
ATOM      7  C   UNL     1       1.914   1.570  -3.296  0.00  0.00    -0.012 A 
ATOM      8  C   UNL     1       3.179   1.874  -2.831  0.00  0.00    +0.115 A 
ATOM      9  N   UNL     1       3.371   2.220  -1.573  0.00  0.00    -0.263 NA
ATOM     10  C   UNL     1       2.373   2.291  -0.714  0.00  0.00    +0.111 A 
ATOM     11  C   UNL     1       1.080   2.002  -1.107  0.00  0.00    +0.020 A 
ATOM     12  C   UNL     1       0.839   1.639  -2.423  0.00  0.00    +0.008 A 
ENDBRANCH   3   7
TORSDOF 1
ENDMDL
MODEL 2
REMARK VINA RESULT:     0.000      5.540      7.484
REMARK INTER + INTRA:          -0.256
REMARK INTER:                   0.000
REMARK INTRA:                  -0.256
REMARK UNBOUND:                -0.256
REMARK  Name = Nicotine.pdb
REMARK  2 active torsions:
REMARK  status: ('A' for Active; 'I' for Inactive)
REMARK    1  A    between atoms: C_3  and  C_6
REMARK    2  A    between atoms: N_4  and  C_12
REMARK                            x       y       z     vdW  Elec       q    Type
REMARK                         _______ _______ _______ _____ _____    ______ ____
ROOT
ATOM      1  C   UNL     1       8.070  -3.416   0.675  0.00  0.00    +0.017 C 
ATOM      2  C   UNL     1       8.473  -2.461  -0.480  0.00  0.00    +0.025 C 
ATOM      3  C   UNL     1       7.515  -1.266  -0.293  0.00  0.00    +0.088 C 
ATOM      4  N   UNL     1       6.353  -1.753   0.473  0.00  0.00    -0.298 NA
ATOM      5  C   UNL     1       6.539  -3.195   0.744  0.00  0.00    +0.085 C 
ATOM      6  C   UNL     1       6.192  -0.999   1.723  0.00  0.00    +0.105 C 
ENDROOT
BRANCH   3   7
ATOM      7  C   UNL     1       7.066  -0.753  -1.636  0.00  0.00    -0.012 A 
ATOM      8  C   UNL     1       6.582   0.535  -1.767  0.00  0.00    +0.115 A 
ATOM      9  N   UNL     1       6.187   0.992  -2.940  0.00  0.00    -0.263 NA
ATOM     10  C   UNL     1       6.236   0.247  -4.026  0.00  0.00    +0.111 A 
ATOM     11  C   UNL     1       6.709  -1.052  -3.973  0.00  0.00    +0.020 A 
ATOM     12  C   UNL     1       7.138  -1.565  -2.758  0.00  0.00    +0.008 A 
ENDBRANCH   3   7
TORSDOF 1
ENDMDL
MODEL 3
REMARK VINA RESULT:     0.000      3.562      4.420
REMARK INTER + INTRA:          -0.256
REMARK INTER:                   0.000
REMARK INTRA:                  -0.256
REMARK UNBOUND:                -0.256
REMARK  Name = Nicotine.pdb
REMARK  2 active torsions:
REMARK  status: ('A' for Active; 'I' for Inactive)
REMARK    1  A    between atoms: C_3  and  C_6
REMARK    2  A    between atoms: N_4  and  C_12
REMARK                            x       y       z     vdW  Elec       q    Type
REMARK                         _______ _______ _______ _____ _____    ______ ____
ROOT
ATOM      1  C   UNL     1       4.175   1.878  -5.918  0.00  0.00    +0.017 C 
ATOM      2  C   UNL     1       3.503   2.869  -4.932  0.00  0.00    +0.025 C 
ATOM      3  C   UNL     1       1.999   2.682  -5.224  0.00  0.00    +0.088 C 
ATOM      4  N   UNL     1       1.884   2.122  -6.582  0.00  0.00    -0.298 NA
ATOM      5  C   UNL     1       3.241   1.980  -7.150  0.00  0.00    +0.085 C 
ATOM      6  C   UNL     1       1.182   0.832  -6.563  0.00  0.00    +0.105 C 
ENDROOT
BRANCH   3   7
ATOM      7  C   UNL     1       1.294   4.012  -5.155  0.00  0.00    -0.012 A 
ATOM      8  C   UNL     1      -0.070   4.070  -4.941  0.00  0.00    +0.115 A 
ATOM      9  N   UNL     1      -0.695   5.230  -4.879  0.00  0.00    -0.263 NA
ATOM     10  C   UNL     1      -0.051   6.372  -5.017  0.00  0.00    +0.111 A 
ATOM     11  C   UNL     1       1.314   6.393  -5.233  0.00  0.00    +0.020 A 
ATOM     12  C   UNL     1       2.006   5.193  -5.299  0.00  0.00    +0.008 A 
ENDBRANCH   3   7
TORSDOF 1
ENDMDL
MODEL 4
REMARK VINA RESULT:     0.000      3.987      5.654
REMARK INTER + INTRA:          -0.256
REMARK INTER:                   0.000
REMARK INTRA:                  -0.256
REMARK UNBOUND:                -0.256
REMARK  Name = Nicotine.pdb
REMARK  2 active torsions:
REMARK  status: ('A' for Active; 'I' for Inactive)
REMARK    1  A    between atoms: C_3  and  C_6
REMARK    2  A    between atoms: N_4  and  C_12
REMARK                            x       y       z     vdW  Elec       q    Type
REMARK                         _______ _______ _______ _____ _____    ______ ____
ROOT
ATOM      1  C   UNL     1       5.498   3.321  -3.965  0.00  0.00    +0.017 C 
ATOM      2  C   UNL     1       5.574   3.357  -2.416  0.00  0.00    +0.025 C 
ATOM      3  C   UNL     1       4.204   3.943  -2.014  0.00  0.00    +0.088 C 
ATOM      4  N   UNL     1       3.688   4.685  -3.179  0.00  0.00    -0.298 NA
ATOM      5  C   UNL     1       4.685   4.605  -4.268  0.00  0.00    +0.085 C 
ATOM      6  C   UNL     1       2.390   4.150  -3.611  0.00  0.00    +0.105 C 
ENDROOT
BRANCH   3   7
ATOM      7  C   UNL     1       4.369   4.876  -0.843  0.00  0.00    -0.012 A 
ATOM      8  C   UNL     1       3.291   5.177  -0.031  0.00  0.00    +0.115 A 
ATOM      9  N   UNL     1       3.427   5.993   0.996  0.00  0.00    -0.263 NA
ATOM     10  C   UNL     1       4.585   6.550   1.290  0.00  0.00    +0.111 A 
ATOM     11  C   UNL     1       5.708   6.296   0.524  0.00  0.00    +0.020 A 
ATOM     12  C   UNL     1       5.604   5.440  -0.561  0.00  0.00    +0.008 A 
ENDBRANCH   3   7
TORSDOF 1
ENDMDL
MODEL 5
REMARK VINA RESULT:     0.000      5.591      6.707
REMARK INTER + INTRA:          -0.256
REMARK INTER:                   0.000
REMARK INTRA:                  -0.256
REMARK UNBOUND:                -0.256
REMARK  Name = Nicotine.pdb
REMARK  2 active torsions:
REMARK  status: ('A' for Active; 'I' for Inactive)
REMARK    1  A    between atoms: C_3  and  C_6
REMARK    2  A    between atoms: N_4  and  C_12
REMARK                            x       y       z     vdW  Elec       q    Type
REMARK                         _______ _______ _______ _____ _____    ______ ____
ROOT
ATOM      1  C   UNL     1       5.549  -4.704   1.292  0.00  0.00    +0.017 C 
ATOM      2  C   UNL     1       5.370  -3.164   1.253  0.00  0.00    +0.025 C 
ATOM      3  C   UNL     1       4.689  -2.928  -0.112  0.00  0.00    +0.088 C 
ATOM      4  N   UNL     1       4.998  -4.093  -0.961  0.00  0.00    -0.298 NA
ATOM      5  C   UNL     1       5.855  -5.021  -0.193  0.00  0.00    +0.085 C 
ATOM      6  C   UNL     1       3.768  -4.759  -1.409  0.00  0.00    +0.105 C 
ENDROOT
BRANCH   3   7
ATOM      7  C   UNL     1       5.232  -1.672  -0.745  0.00  0.00    -0.012 A 
ATOM      8  C   UNL     1       4.508  -1.012  -1.720  0.00  0.00    +0.115 A 
ATOM      9  N   UNL     1       4.976   0.087  -2.279  0.00  0.00    -0.263 NA
ATOM     10  C   UNL     1       6.142   0.597  -1.935  0.00  0.00    +0.111 A 
ATOM     11  C   UNL     1       6.922  -0.008  -0.967  0.00  0.00    +0.020 A 
ATOM     12  C   UNL     1       6.460  -1.162  -0.354  0.00  0.00    +0.008 A 
ENDBRANCH   3   7
TORSDOF 1
ENDMDL
MODEL 6
REMARK VINA RESULT:     0.000      4.414      6.463
REMARK INTER + INTRA:          -0.256
REMARK INTER:                   0.000
REMARK INTRA:                  -0.256
REMARK UNBOUND:                -0.256
REMARK  Name = Nicotine.pdb
REMARK  2 active torsions:
REMARK  status: ('A' for Active; 'I' for Inactive)
REMARK    1  A    between atoms: C_3  and  C_6
REMARK    2  A    between atoms: N_4  and  C_12
REMARK                            x       y       z     vdW  Elec       q    Type
REMARK                         _______ _______ _______ _____ _____    ______ ____
ROOT
ATOM      1  C   UNL     1       3.770  -2.920   2.071  0.00  0.00    +0.017 C 
ATOM      2  C   UNL     1       4.720  -2.868   0.845  0.00  0.00    +0.025 C 
ATOM      3  C   UNL     1       4.159  -1.690   0.021  0.00  0.00    +0.088 C 
ATOM      4  N   UNL     1       2.752  -1.508   0.420  0.00  0.00    -0.298 NA
ATOM      5  C   UNL     1       2.413  -2.532   1.431  0.00  0.00    +0.085 C 
ATOM      6  C   UNL     1       2.523  -0.155   0.943  0.00  0.00    +0.105 C 
ENDROOT
BRANCH   3   7
ATOM      7  C   UNL     1       4.238  -2.009  -1.450  0.00  0.00    -0.012 A 
ATOM      8  C   UNL     1       4.221  -0.995  -2.388  0.00  0.00    +0.115 A 
ATOM      9  N   UNL     1       4.290  -1.266  -3.676  0.00  0.00    -0.263 NA
ATOM     10  C   UNL     1       4.378  -2.504  -4.120  0.00  0.00    +0.111 A 
ATOM     11  C   UNL     1       4.401  -3.571  -3.242  0.00  0.00    +0.020 A 
ATOM     12  C   UNL     1       4.335  -3.324  -1.879  0.00  0.00    +0.008 A 
ENDBRANCH   3   7
TORSDOF 1
ENDMDL
MODEL 7
REMARK VINA RESULT:     0.000      4.237      5.492
REMARK INTER + INTRA:          -0.256
REMARK INTER:                   0.000
REMARK INTRA:                  -0.256
REMARK UNBOUND:                -0.256
REMARK  Name = Nicotine.pdb
REMARK  2 active torsions:
REMARK  status: ('A' for Active; 'I' for Inactive)
REMARK    1  A    between atoms: C_3  and  C_6
REMARK    2  A    between atoms: N_4  and  C_12
REMARK                            x       y       z     vdW  Elec       q    Type
REMARK                         _______ _______ _______ _____ _____    ______ ____
ROOT
ATOM      1  C   UNL     1       2.281   0.636   2.316  0.00  0.00    +0.017 C 
ATOM      2  C   UNL     1       1.344   1.317   1.285  0.00  0.00    +0.025 C 
ATOM      3  C   UNL     1       2.325   1.829   0.209  0.00  0.00    +0.088 C 
ATOM      4  N   UNL     1       3.648   1.949   0.846  0.00  0.00    -0.298 NA
ATOM      5  C   UNL     1       3.524   1.560   2.267  0.00  0.00    +0.085 C 
ATOM      6  C   UNL     1       4.642   1.116   0.156  0.00  0.00    +0.105 C 
ENDROOT
BRANCH   3   7
ATOM      7  C   UNL     1       1.874   3.175  -0.297  0.00  0.00    -0.012 A 
ATOM      8  C   UNL     1       2.299   3.638  -1.527  0.00  0.00    +0.115 A 
ATOM      9  N   UNL     1       1.910   4.815  -1.977  0.00  0.00    -0.263 NA
ATOM     10  C   UNL     1       1.106   5.592  -1.279  0.00  0.00    +0.111 A 
ATOM     11  C   UNL     1       0.639   5.196  -0.039  0.00  0.00    +0.020 A 
ATOM     12  C   UNL     1       1.023   3.963   0.464  0.00  0.00    +0.008 A 
ENDBRANCH   3   7
TORSDOF 1
ENDMDL
MODEL 8
REMARK VINA RESULT:     0.000      6.480      7.930
REMARK INTER + INTRA:          -0.256
REMARK INTER:                   0.000
REMARK INTRA:                  -0.256
REMARK UNBOUND:                -0.256
REMARK  Name = Nicotine.pdb
REMARK  2 active torsions:
REMARK  status: ('A' for Active; 'I' for Inactive)
REMARK    1  A    between atoms: C_3  and  C_6
REMARK    2  A    between atoms: N_4  and  C_12
REMARK                            x       y       z     vdW  Elec       q    Type
REMARK                         _______ _______ _______ _____ _____    ______ ____
ROOT
ATOM      1  C   UNL     1       8.478   0.213  -5.017  0.00  0.00    +0.017 C 
ATOM      2  C   UNL     1       8.670   1.324  -3.951  0.00  0.00    +0.025 C 
ATOM      3  C   UNL     1       8.022   2.557  -4.615  0.00  0.00    +0.088 C 
ATOM      4  N   UNL     1       8.015   2.319  -6.069  0.00  0.00    -0.298 NA
ATOM      5  C   UNL     1       8.650   1.010  -6.334  0.00  0.00    +0.085 C 
ATOM      6  C   UNL     1       6.648   2.359  -6.604  0.00  0.00    +0.105 C 
ENDROOT
BRANCH   3   7
ATOM      7  C   UNL     1       8.827   3.791  -4.300  0.00  0.00    -0.012 A 
ATOM      8  C   UNL     1       8.251   5.044  -4.389  0.00  0.00    +0.115 A 
ATOM      9  N   UNL     1       8.949   6.129  -4.115  0.00  0.00    -0.263 NA
ATOM     10  C   UNL     1      10.214   6.065  -3.749  0.00  0.00    +0.111 A 
ATOM     11  C   UNL     1      10.857   4.847  -3.637  0.00  0.00    +0.020 A 
ATOM     12  C   UNL     1      10.154   3.684  -3.912  0.00  0.00    +0.008 A 
ENDBRANCH   3   7
TORSDOF 1
ENDMDL
MODEL 9
REMARK VINA RESULT:     0.000      1.901      2.619
REMARK INTER + INTRA:          -0.256
REMARK INTER:                   0.000
REMARK INTRA:                  -0.256
REMARK UNBOUND:                -0.256
REMARK  Name = Nicotine.pdb
REMARK  2 active torsions:
REMARK  status: ('A' for Active; 'I' for Inactive)
REMARK    1  A    between atoms: C_3  and  C_6
REMARK    2  A    between atoms: N_4  and  C_12
REMARK                            x       y       z     vdW  Elec       q    Type
REMARK                         _______ _______ _______ _____ _____    ______ ____
ROOT
ATOM      1  C   UNL     1       0.166   0.446  -3.396  0.00  0.00    +0.017 C 
ATOM      2  C   UNL     1       0.702   1.664  -2.598  0.00  0.00    +0.025 C 
ATOM      3  C   UNL     1       1.459   2.476  -3.670  0.00  0.00    +0.088 C 
ATOM      4  N   UNL     1       1.805   1.545  -4.759  0.00  0.00    -0.298 NA
ATOM      5  C   UNL     1       1.321   0.196  -4.398  0.00  0.00    +0.085 C 
ATOM      6  C   UNL     1       1.228   1.988  -6.035  0.00  0.00    +0.105 C 
ENDROOT
BRANCH   3   7
ATOM      7  C   UNL     1       2.714   3.063  -3.077  0.00  0.00    -0.012 A 
ATOM      8  C   UNL     1       3.320   4.156  -3.667  0.00  0.00    +0.115 A 
ATOM      9  N   UNL     1       4.418   4.677  -3.154  0.00  0.00    -0.263 NA
ATOM     10  C   UNL     1       4.979   4.181  -2.069  0.00  0.00    +0.111 A 
ATOM     11  C   UNL     1       4.429   3.088  -1.425  0.00  0.00    +0.020 A 
ATOM     12  C   UNL     1       3.272   2.518  -1.931  0.00  0.00    +0.008 A 
ENDBRANCH   3   7
TORSDOF 1
ENDMDL
MODEL 10
REMARK VINA RESULT:     0.000      2.636      3.675
REMARK INTER + INTRA:          -0.256
REMARK INTER:                   0.000
REMARK INTRA:                  -0.256
REMARK UNBOUND:                -0.256
REMARK  Name = Nicotine.pdb
REMARK  2 active torsions:
REMARK  status: ('A' for Active; 'I' for Inactive)
REMARK    1  A    between atoms: C_3  and  C_6
REMARK    2  A    between atoms: N_4  and  C_12
REMARK                            x       y       z     vdW  Elec       q    Type
REMARK                         _______ _______ _______ _____ _____    ______ ____
ROOT
ATOM      1  C   UNL     1       1.306   3.213  -3.527  0.00  0.00    +0.017 C 
ATOM      2  C   UNL     1       2.589   2.454  -3.099  0.00  0.00    +0.025 C 
ATOM      3  C   UNL     1       2.032   1.220  -2.357  0.00  0.00    +0.088 C 
ATOM      4  N   UNL     1       0.667   1.557  -1.914  0.00  0.00    -0.298 NA
ATOM      5  C   UNL     1       0.368   2.945  -2.324  0.00  0.00    +0.085 C 
ATOM      6  C   UNL     1      -0.315   0.619  -2.473  0.00  0.00    +0.105 C 
ENDROOT
BRANCH   3   7
ATOM      7  C   UNL     1       2.896   0.904  -1.164  0.00  0.00    -0.012 A 
ATOM      8  C   UNL     1       2.886  -0.361  -0.609  0.00  0.00    +0.115 A 
ATOM      9  N   UNL     1       3.640  -0.646   0.435  0.00  0.00    -0.263 NA
ATOM     10  C   UNL     1       4.427   0.256   0.988  0.00  0.00    +0.111 A 
ATOM     11  C   UNL     1       4.491   1.543   0.486  0.00  0.00    +0.020 A 
ATOM     12  C   UNL     1       3.716   1.877  -0.614  0.00  0.00    +0.008 A 
ENDBRANCH   3   7
TORSDOF 1
ENDMDL
