MODEL 1
REMARK VINA RESULT:     0.000      0.000      0.000
REMARK INTER + INTRA:          -0.256
REMARK INTER:                   0.000
REMARK INTRA:                  -0.256
REMARK UNBOUND:                -0.256
REMARK  Name = Nicotine.pdb
REMARK  2 active torsions:
REMARK  status: ('A' for Active; 'I' for Inactive)
REMARK    1  A    between atoms: C_3  and  C_6
REMARK    2  A    between atoms: N_4  and  C_12
REMARK                            x       y       z     vdW  Elec       q    Type
REMARK                         _______ _______ _______ _____ _____    ______ ____
ROOT
ATOM      1  C   UNL     1      -3.658   2.092   0.675  0.00  0.00    +0.017 C 
ATOM      2  C   UNL     1      -2.775   1.913   1.938  0.00  0.00    +0.025 C 
ATOM      3  C   UNL     1      -3.033   3.212   2.730  0.00  0.00    +0.088 C 
ATOM      4  N   UNL     1      -3.511   4.222   1.769  0.00  0.00    -0.298 NA
ATOM      5  C   UNL     1      -3.535   3.615   0.421  0.00  0.00    +0.085 C 
ATOM      6  C   UNL     1      -4.840   4.721   2.145  0.00  0.00    +0.105 C 
ENDROOT
BRANCH   3   7
ATOM      7  C   UNL     1      -1.756   3.682   3.376  0.00  0.00    -0.012 A 
ATOM      8  C   UNL     1      -1.795   4.534   4.463  0.00  0.00    +0.115 A 
ATOM      9  N   UNL     1      -0.681   4.950   5.035  0.00  0.00    -0.263 NA
ATOM     10  C   UNL     1       0.504   4.574   4.598  0.00  0.00    +0.111 A 
ATOM     11  C   UNL     1       0.622   3.722   3.515  0.00  0.00    +0.020 A 
ATOM     12  C   UNL     1      -0.527   3.260   2.892  0.00  0.00    +0.008 A 
ENDBRANCH   3   7
TORSDOF 1
ENDMDL
MODEL 2
REMARK VINA RESULT:     0.000      2.789      3.285
REMARK INTER + INTRA:          -0.256
REMARK INTER:                   0.000
REMARK INTRA:                  -0.256
REMARK UNBOUND:                -0.256
REMARK  Name = Nicotine.pdb
REMARK  2 active torsions:
REMARK  status: ('A' for Active; 'I' for Inactive)
REMARK    1  A    between atoms: C_3  and  C_6
REMARK    2  A    between atoms: N_4  and  C_12
REMARK                            x       y       z     vdW  Elec       q    Type
REMARK                         _______ _______ _______ _____ _____    ______ ____
ROOT
ATOM      1  C   UNL     1      -0.290   2.260  -2.554  0.00  0.00    +0.017 C 
ATOM      2  C   UNL     1       0.248   2.050  -1.114  0.00  0.00    +0.025 C 
ATOM      3  C   UNL     1      -1.029   2.136  -0.251  0.00  0.00    +0.088 C 
ATOM      4  N   UNL     1      -2.032   2.885  -1.029  0.00  0.00    -0.298 NA
ATOM      5  C   UNL     1      -1.427   3.285  -2.317  0.00  0.00    +0.085 C 
ATOM      6  C   UNL     1      -3.242   2.080  -1.242  0.00  0.00    +0.105 C 
ENDROOT
BRANCH   3   7
ATOM      7  C   UNL     1      -0.730   2.861   1.036  0.00  0.00    -0.012 A 
ATOM      8  C   UNL     1      -1.545   2.693   2.139  0.00  0.00    +0.115 A 
ATOM      9  N   UNL     1      -1.291   3.324   3.269  0.00  0.00    -0.263 NA
ATOM     10  C   UNL     1      -0.258   4.134   3.392  0.00  0.00    +0.111 A 
ATOM     11  C   UNL     1       0.602   4.351   2.332  0.00  0.00    +0.020 A 
ATOM     12  C   UNL     1       0.369   3.701   1.130  0.00  0.00    +0.008 A 
ENDBRANCH   3   7
TORSDOF 1
ENDMDL
MODEL 3
REMARK VINA RESULT:     0.000     10.248     11.702
REMARK INTER + INTRA:          -0.256
REMARK INTER:                   0.000
REMARK INTRA:                  -0.256
REMARK UNBOUND:                -0.256
REMARK  Name = Nicotine.pdb
REMARK  2 active torsions:
REMARK  status: ('A' for Active; 'I' for Inactive)
REMARK    1  A    between atoms: C_3  and  C_6
REMARK    2  A    between atoms: N_4  and  C_12
REMARK                            x       y       z     vdW  Elec       q    Type
REMARK                         _______ _______ _______ _____ _____    ______ ____
ROOT
ATOM      1  C   UNL     1       9.118   1.239  -4.174  0.00  0.00    +0.017 C 
ATOM      2  C   UNL     1       7.733   0.546  -4.271  0.00  0.00    +0.025 C 
ATOM      3  C   UNL     1       6.867   1.602  -4.991  0.00  0.00    +0.088 C 
ATOM      4  N   UNL     1       7.509   2.912  -4.781  0.00  0.00    -0.298 NA
ATOM      5  C   UNL     1       8.713   2.716  -3.945  0.00  0.00    +0.085 C 
ATOM      6  C   UNL     1       7.853   3.542  -6.061  0.00  0.00    +0.105 C 
ENDROOT
BRANCH   3   7
ATOM      7  C   UNL     1       5.478   1.611  -4.407  0.00  0.00    -0.012 A 
ATOM      8  C   UNL     1       4.418   2.121  -5.132  0.00  0.00    +0.115 A 
ATOM      9  N   UNL     1       3.199   2.132  -4.629  0.00  0.00    -0.263 NA
ATOM     10  C   UNL     1       2.943   1.662  -3.424  0.00  0.00    +0.111 A 
ATOM     11  C   UNL     1       3.953   1.136  -2.640  0.00  0.00    +0.020 A 
ATOM     12  C   UNL     1       5.246   1.102  -3.138  0.00  0.00    +0.008 A 
ENDBRANCH   3   7
TORSDOF 1
ENDMDL
MODEL 4
REMARK VINA RESULT:     0.000      1.379      4.422
REMARK INTER + INTRA:          -0.256
REMARK INTER:                   0.000
REMARK INTRA:                  -0.256
REMARK UNBOUND:                -0.256
REMARK  Name = Nicotine.pdb
REMARK  2 active torsions:
REMARK  status: ('A' for Active; 'I' for Inactive)
REMARK    1  A    between atoms: C_3  and  C_6
REMARK    2  A    between atoms: N_4  and  C_12
REMARK                            x       y       z     vdW  Elec       q    Type
REMARK                         _______ _______ _______ _____ _____    ______ ____
ROOT
ATOM      1  C   UNL     1       1.705   2.952   2.560  0.00  0.00    +0.017 C 
ATOM      2  C   UNL     1       0.572   2.895   1.502  0.00  0.00    +0.025 C 
ATOM      3  C   UNL     1      -0.554   3.726   2.154  0.00  0.00    +0.088 C 
ATOM      4  N   UNL     1      -0.308   3.731   3.607  0.00  0.00    -0.298 NA
ATOM      5  C   UNL     1       0.899   2.923   3.883  0.00  0.00    +0.085 C 
ATOM      6  C   UNL     1      -0.152   5.102   4.110  0.00  0.00    +0.105 C 
ENDROOT
BRANCH   3   7
ATOM      7  C   UNL     1      -1.891   3.095   1.861  0.00  0.00    -0.012 A 
ATOM      8  C   UNL     1      -3.049   3.845   1.940  0.00  0.00    +0.115 A 
ATOM      9  N   UNL     1      -4.224   3.301   1.686  0.00  0.00    -0.263 NA
ATOM     10  C   UNL     1      -4.341   2.032   1.348  0.00  0.00    +0.111 A 
ATOM     11  C   UNL     1      -3.227   1.220   1.248  0.00  0.00    +0.020 A 
ATOM     12  C   UNL     1      -1.975   1.758   1.503  0.00  0.00    +0.008 A 
ENDBRANCH   3   7
TORSDOF 1
ENDMDL
MODEL 5
REMARK VINA RESULT:     0.000      5.736      7.942
REMARK INTER + INTRA:          -0.256
REMARK INTER:                   0.000
REMARK INTRA:                  -0.256
REMARK UNBOUND:                -0.256
REMARK  Name = Nicotine.pdb
REMARK  2 active torsions:
REMARK  status: ('A' for Active; 'I' for Inactive)
REMARK    1  A    between atoms: C_3  and  C_6
REMARK    2  A    between atoms: N_4  and  C_12
REMARK                            x       y       z     vdW  Elec       q    Type
REMARK                         _______ _______ _______ _____ _____    ______ ____
ROOT
ATOM      1  C   UNL     1      -0.523   6.238  -5.841  0.00  0.00    +0.017 C 
ATOM      2  C   UNL     1      -0.642   4.823  -5.216  0.00  0.00    +0.025 C 
ATOM      3  C   UNL     1      -2.141   4.494  -5.385  0.00  0.00    +0.088 C 
ATOM      4  N   UNL     1      -2.856   5.774  -5.529  0.00  0.00    -0.298 NA
ATOM      5  C   UNL     1      -1.875   6.876  -5.431  0.00  0.00    +0.085 C 
ATOM      6  C   UNL     1      -3.585   5.830  -6.803  0.00  0.00    +0.105 C 
ENDROOT
BRANCH   3   7
ATOM      7  C   UNL     1      -2.644   3.757  -4.171  0.00  0.00    -0.012 A 
ATOM      8  C   UNL     1      -3.785   2.982  -4.248  0.00  0.00    +0.115 A 
ATOM      9  N   UNL     1      -4.233   2.333  -3.190  0.00  0.00    -0.263 NA
ATOM     10  C   UNL     1      -3.617   2.398  -2.026  0.00  0.00    +0.111 A 
ATOM     11  C   UNL     1      -2.469   3.153  -1.874  0.00  0.00    +0.020 A 
ATOM     12  C   UNL     1      -1.966   3.844  -2.965  0.00  0.00    +0.008 A 
ENDBRANCH   3   7
TORSDOF 1
ENDMDL
MODEL 6
REMARK VINA RESULT:     0.000     10.828     11.665
REMARK INTER + INTRA:          -0.256
REMARK INTER:                   0.000
REMARK INTRA:                  -0.256
REMARK UNBOUND:                -0.256
REMARK  Name = Nicotine.pdb
REMARK  2 active torsions:
REMARK  status: ('A' for Active; 'I' for Inactive)
REMARK    1  A    between atoms: C_3  and  C_6
REMARK    2  A    between atoms: N_4  and  C_12
REMARK                            x       y       z     vdW  Elec       q    Type
REMARK                         _______ _______ _______ _____ _____    ______ ____
ROOT
ATOM      1  C   UNL     1       2.744  -4.689  -3.153  0.00  0.00    +0.017 C 
ATOM      2  C   UNL     1       3.029  -3.177  -2.955  0.00  0.00    +0.025 C 
ATOM      3  C   UNL     1       3.383  -2.702  -4.380  0.00  0.00    +0.088 C 
ATOM      4  N   UNL     1       3.821  -3.887  -5.140  0.00  0.00    -0.298 NA
ATOM      5  C   UNL     1       3.777  -5.062  -4.245  0.00  0.00    +0.085 C 
ATOM      6  C   UNL     1       2.979  -4.094  -6.325  0.00  0.00    +0.105 C 
ENDROOT
BRANCH   3   7
ATOM      7  C   UNL     1       4.497  -1.689  -4.320  0.00  0.00    -0.012 A 
ATOM      8  C   UNL     1       4.697  -0.806  -5.365  0.00  0.00    +0.115 A 
ATOM      9  N   UNL     1       5.669   0.084  -5.320  0.00  0.00    -0.263 NA
ATOM     10  C   UNL     1       6.485   0.167  -4.288  0.00  0.00    +0.111 A 
ATOM     11  C   UNL     1       6.347  -0.682  -3.206  0.00  0.00    +0.020 A 
ATOM     12  C   UNL     1       5.332  -1.627  -3.215  0.00  0.00    +0.008 A 
ENDBRANCH   3   7
TORSDOF 1
ENDMDL
MODEL 7
REMARK VINA RESULT:     0.000      8.753     10.347
REMARK INTER + INTRA:          -0.256
REMARK INTER:                   0.000
REMARK INTRA:                  -0.256
REMARK UNBOUND:                -0.256
REMARK  Name = Nicotine.pdb
REMARK  2 active torsions:
REMARK  status: ('A' for Active; 'I' for Inactive)
REMARK    1  A    between atoms: C_3  and  C_6
REMARK    2  A    between atoms: N_4  and  C_12
REMARK                            x       y       z     vdW  Elec       q    Type
REMARK                         _______ _______ _______ _____ _____    ______ ____
ROOT
ATOM      1  C   UNL     1       2.036  -5.525  -1.407  0.00  0.00    +0.017 C 
ATOM      2  C   UNL     1       1.158  -4.771  -2.440  0.00  0.00    +0.025 C 
ATOM      3  C   UNL     1       2.168  -3.833  -3.134  0.00  0.00    +0.088 C 
ATOM      4  N   UNL     1       3.305  -3.656  -2.213  0.00  0.00    -0.298 NA
ATOM      5  C   UNL     1       3.032  -4.420  -0.977  0.00  0.00    +0.085 C 
ATOM      6  C   UNL     1       4.561  -4.094  -2.836  0.00  0.00    +0.105 C 
ENDROOT
BRANCH   3   7
ATOM      7  C   UNL     1       1.522  -2.501  -3.414  0.00  0.00    -0.012 A 
ATOM      8  C   UNL     1       2.035  -1.665  -4.388  0.00  0.00    +0.115 A 
ATOM      9  N   UNL     1       1.475  -0.498  -4.639  0.00  0.00    -0.263 NA
ATOM     10  C   UNL     1       0.413  -0.082  -3.978  0.00  0.00    +0.111 A 
ATOM     11  C   UNL     1      -0.157  -0.864  -2.990  0.00  0.00    +0.020 A 
ATOM     12  C   UNL     1       0.401  -2.100  -2.702  0.00  0.00    +0.008 A 
ENDBRANCH   3   7
TORSDOF 1
ENDMDL
MODEL 8
REMARK VINA RESULT:     0.000      6.901      8.433
REMARK INTER + INTRA:          -0.256
REMARK INTER:                   0.000
REMARK INTRA:                  -0.256
REMARK UNBOUND:                -0.256
REMARK  Name = Nicotine.pdb
REMARK  2 active torsions:
REMARK  status: ('A' for Active; 'I' for Inactive)
REMARK    1  A    between atoms: C_3  and  C_6
REMARK    2  A    between atoms: N_4  and  C_12
REMARK                            x       y       z     vdW  Elec       q    Type
REMARK                         _______ _______ _______ _____ _____    ______ ____
ROOT
ATOM      1  C   UNL     1       1.589  -4.880  -0.009  0.00  0.00    +0.017 C 
ATOM      2  C   UNL     1       0.535  -3.997  -0.727  0.00  0.00    +0.025 C 
ATOM      3  C   UNL     1       1.393  -2.887  -1.371  0.00  0.00    +0.088 C 
ATOM      4  N   UNL     1       2.659  -2.822  -0.620  0.00  0.00    -0.298 NA
ATOM      5  C   UNL     1       2.612  -3.819   0.471  0.00  0.00    +0.085 C 
ATOM      6  C   UNL     1       3.809  -3.060  -1.502  0.00  0.00    +0.105 C 
ENDROOT
BRANCH   3   7
ATOM      7  C   UNL     1       0.674  -1.567  -1.283  0.00  0.00    -0.012 A 
ATOM      8  C   UNL     1       0.999  -0.534  -2.141  0.00  0.00    +0.115 A 
ATOM      9  N   UNL     1       0.374   0.625  -2.070  0.00  0.00    -0.263 NA
ATOM     10  C   UNL     1      -0.578   0.846  -1.186  0.00  0.00    +0.111 A 
ATOM     11  C   UNL     1      -0.958  -0.140  -0.294  0.00  0.00    +0.020 A 
ATOM     12  C   UNL     1      -0.327  -1.373  -0.342  0.00  0.00    +0.008 A 
ENDBRANCH   3   7
TORSDOF 1
ENDMDL
MODEL 9
REMARK VINA RESULT:     0.000      3.140      4.014
REMARK INTER + INTRA:          -0.256
REMARK INTER:                   0.000
REMARK INTRA:                  -0.256
REMARK UNBOUND:                -0.256
REMARK  Name = Nicotine.pdb
REMARK  2 active torsions:
REMARK  status: ('A' for Active; 'I' for Inactive)
REMARK    1  A    between atoms: C_3  and  C_6
REMARK    2  A    between atoms: N_4  and  C_12
REMARK                            x       y       z     vdW  Elec       q    Type
REMARK                         _______ _______ _______ _____ _____    ______ ____
ROOT
ATOM      1  C   UNL     1      -2.802   6.043  -0.858  0.00  0.00    +0.017 C 
ATOM      2  C   UNL     1      -1.749   6.494   0.188  0.00  0.00    +0.025 C 
ATOM      3  C   UNL     1      -0.470   5.760  -0.268  0.00  0.00    +0.088 C 
ATOM      4  N   UNL     1      -0.896   4.605  -1.079  0.00  0.00    -0.298 NA
ATOM      5  C   UNL     1      -2.373   4.579  -1.123  0.00  0.00    +0.085 C 
ATOM      6  C   UNL     1      -0.329   4.674  -2.432  0.00  0.00    +0.105 C 
ENDROOT
BRANCH   3   7
ATOM      7  C   UNL     1       0.305   5.286   0.934  0.00  0.00    -0.012 A 
ATOM      8  C   UNL     1       1.655   5.006   0.829  0.00  0.00    +0.115 A 
ATOM      9  N   UNL     1       2.341   4.591   1.876  0.00  0.00    -0.263 NA
ATOM     10  C   UNL     1       1.775   4.427   3.055  0.00  0.00    +0.111 A 
ATOM     11  C   UNL     1       0.429   4.688   3.237  0.00  0.00    +0.020 A 
ATOM     12  C   UNL     1      -0.324   5.131   2.160  0.00  0.00    +0.008 A 
ENDBRANCH   3   7
TORSDOF 1
ENDMDL
MODEL 10
REMARK VINA RESULT:     0.000      8.078      9.500
REMARK INTER + INTRA:          -0.256
REMARK INTER:                   0.000
REMARK INTRA:                  -0.256
REMARK UNBOUND:                -0.256
REMARK  Name = Nicotine.pdb
REMARK  2 active torsions:
REMARK  status: ('A' for Active; 'I' for Inactive)
REMARK    1  A    between atoms: C_3  and  C_6
REMARK    2  A    between atoms: N_4  and  C_12
REMARK                            x       y       z     vdW  Elec       q    Type
REMARK                         _______ _______ _______ _____ _____    ______ ____
ROOT
ATOM      1  C   UNL     1       3.164  -2.966   4.069  0.00  0.00    +0.017 C 
ATOM      2  C   UNL     1       4.652  -2.702   3.718  0.00  0.00    +0.025 C 
ATOM      3  C   UNL     1       4.570  -1.525   2.722  0.00  0.00    +0.088 C 
ATOM      4  N   UNL     1       3.214  -1.535   2.144  0.00  0.00    -0.298 NA
ATOM      5  C   UNL     1       2.467  -2.676   2.716  0.00  0.00    +0.085 C 
ATOM      6  C   UNL     1       2.521  -0.267   2.404  0.00  0.00    +0.105 C 
ENDROOT
BRANCH   3   7
ATOM      7  C   UNL     1       5.595  -1.703   1.633  0.00  0.00    -0.012 A 
ATOM      8  C   UNL     1       6.025  -0.618   0.893  0.00  0.00    +0.115 A 
ATOM      9  N   UNL     1       6.922  -0.765  -0.063  0.00  0.00    -0.263 NA
ATOM     10  C   UNL     1       7.441  -1.942  -0.350  0.00  0.00    +0.111 A 
ATOM     11  C   UNL     1       7.061  -3.073   0.348  0.00  0.00    +0.020 A 
ATOM     12  C   UNL     1       6.124  -2.956   1.363  0.00  0.00    +0.008 A 
ENDBRANCH   3   7
TORSDOF 1
ENDMDL
