MODEL 1
REMARK VINA RESULT:     0.000      0.000      0.000
REMARK INTER + INTRA:          -0.256
REMARK INTER:                   0.000
REMARK INTRA:                  -0.256
REMARK UNBOUND:                -0.256
REMARK  Name = Nicotine.pdb
REMARK  2 active torsions:
REMARK  status: ('A' for Active; 'I' for Inactive)
REMARK    1  A    between atoms: C_3  and  C_6
REMARK    2  A    between atoms: N_4  and  C_12
REMARK                            x       y       z     vdW  Elec       q    Type
REMARK                         _______ _______ _______ _____ _____    ______ ____
ROOT
ATOM      1  C   UNL     1      -0.823   1.156  -2.029  0.00  0.00    +0.017 C 
ATOM      2  C   UNL     1       0.340   1.778  -1.212  0.00  0.00    +0.025 C 
ATOM      3  C   UNL     1       1.269   2.345  -2.306  0.00  0.00    +0.088 C 
ATOM      4  N   UNL     1       0.972   1.617  -3.552  0.00  0.00    -0.298 NA
ATOM      5  C   UNL     1      -0.076   0.612  -3.272  0.00  0.00    +0.085 C 
ATOM      6  C   UNL     1       0.547   2.539  -4.614  0.00  0.00    +0.105 C 
ENDROOT
BRANCH   3   7
ATOM      7  C   UNL     1       2.709   2.133  -1.917  0.00  0.00    -0.012 A 
ATOM      8  C   UNL     1       3.706   2.911  -2.476  0.00  0.00    +0.115 A 
ATOM      9  N   UNL     1       4.969   2.731  -2.142  0.00  0.00    -0.263 NA
ATOM     10  C   UNL     1       5.330   1.813  -1.268  0.00  0.00    +0.111 A 
ATOM     11  C   UNL     1       4.389   0.998  -0.667  0.00  0.00    +0.020 A 
ATOM     12  C   UNL     1       3.051   1.160  -0.990  0.00  0.00    +0.008 A 
ENDBRANCH   3   7
TORSDOF 1
ENDMDL
MODEL 2
REMARK VINA RESULT:     0.000      4.309      5.955
REMARK INTER + INTRA:          -0.256
REMARK INTER:                   0.000
REMARK INTRA:                  -0.256
REMARK UNBOUND:                -0.256
REMARK  Name = Nicotine.pdb
REMARK  2 active torsions:
REMARK  status: ('A' for Active; 'I' for Inactive)
REMARK    1  A    between atoms: C_3  and  C_6
REMARK    2  A    between atoms: N_4  and  C_12
REMARK                            x       y       z     vdW  Elec       q    Type
REMARK                         _______ _______ _______ _____ _____    ______ ____
ROOT
ATOM      1  C   UNL     1       2.171  -2.189   0.888  0.00  0.00    +0.017 C 
ATOM      2  C   UNL     1       1.371  -1.624  -0.315  0.00  0.00    +0.025 C 
ATOM      3  C   UNL     1       1.208  -2.855  -1.232  0.00  0.00    +0.088 C 
ATOM      4  N   UNL     1       2.277  -3.806  -0.879  0.00  0.00    -0.298 NA
ATOM      5  C   UNL     1       3.104  -3.211   0.192  0.00  0.00    +0.085 C 
ATOM      6  C   UNL     1       1.715  -5.096  -0.456  0.00  0.00    +0.105 C 
ENDROOT
BRANCH   3   7
ATOM      7  C   UNL     1       1.344  -2.441  -2.674  0.00  0.00    -0.012 A 
ATOM      8  C   UNL     1       0.818  -3.229  -3.680  0.00  0.00    +0.115 A 
ATOM      9  N   UNL     1       0.933  -2.874  -4.945  0.00  0.00    -0.263 NA
ATOM     10  C   UNL     1       1.547  -1.763  -5.300  0.00  0.00    +0.111 A 
ATOM     11  C   UNL     1       2.097  -0.924  -4.350  0.00  0.00    +0.020 A 
ATOM     12  C   UNL     1       1.992  -1.262  -3.009  0.00  0.00    +0.008 A 
ENDBRANCH   3   7
TORSDOF 1
ENDMDL
MODEL 3
REMARK VINA RESULT:     0.000      3.258      4.677
REMARK INTER + INTRA:          -0.256
REMARK INTER:                   0.000
REMARK INTRA:                  -0.256
REMARK UNBOUND:                -0.256
REMARK  Name = Nicotine.pdb
REMARK  2 active torsions:
REMARK  status: ('A' for Active; 'I' for Inactive)
REMARK    1  A    between atoms: C_3  and  C_6
REMARK    2  A    between atoms: N_4  and  C_12
REMARK                            x       y       z     vdW  Elec       q    Type
REMARK                         _______ _______ _______ _____ _____    ______ ____
ROOT
ATOM      1  C   UNL     1       3.009  -0.747   0.445  0.00  0.00    +0.017 C 
ATOM      2  C   UNL     1       2.655  -0.307  -1.000  0.00  0.00    +0.025 C 
ATOM      3  C   UNL     1       3.599  -1.167  -1.867  0.00  0.00    +0.088 C 
ATOM      4  N   UNL     1       4.727  -1.574  -1.010  0.00  0.00    -0.298 NA
ATOM      5  C   UNL     1       4.536  -0.987   0.333  0.00  0.00    +0.085 C 
ATOM      6  C   UNL     1       4.830  -3.038  -0.935  0.00  0.00    +0.105 C 
ENDROOT
BRANCH   3   7
ATOM      7  C   UNL     1       4.105  -0.357  -3.032  0.00  0.00    -0.012 A 
ATOM      8  C   UNL     1       4.589  -0.986  -4.163  0.00  0.00    +0.115 A 
ATOM      9  N   UNL     1       5.034  -0.285  -5.188  0.00  0.00    -0.263 NA
ATOM     10  C   UNL     1       5.036   1.033  -5.176  0.00  0.00    +0.111 A 
ATOM     11  C   UNL     1       4.566   1.732  -4.080  0.00  0.00    +0.020 A 
ATOM     12  C   UNL     1       4.086   1.029  -2.986  0.00  0.00    +0.008 A 
ENDBRANCH   3   7
TORSDOF 1
ENDMDL
MODEL 4
REMARK VINA RESULT:     0.000      8.094      8.905
REMARK INTER + INTRA:          -0.256
REMARK INTER:                   0.000
REMARK INTRA:                  -0.256
REMARK UNBOUND:                -0.256
REMARK  Name = Nicotine.pdb
REMARK  2 active torsions:
REMARK  status: ('A' for Active; 'I' for Inactive)
REMARK    1  A    between atoms: C_3  and  C_6
REMARK    2  A    between atoms: N_4  and  C_12
REMARK                            x       y       z     vdW  Elec       q    Type
REMARK                         _______ _______ _______ _____ _____    ______ ____
ROOT
ATOM      1  C   UNL     1       8.576  -4.277   2.014  0.00  0.00    +0.017 C 
ATOM      2  C   UNL     1       9.578  -3.123   1.747  0.00  0.00    +0.025 C 
ATOM      3  C   UNL     1       9.004  -1.963   2.587  0.00  0.00    +0.088 C 
ATOM      4  N   UNL     1       7.573  -2.245   2.802  0.00  0.00    -0.298 NA
ATOM      5  C   UNL     1       7.234  -3.509   2.114  0.00  0.00    +0.085 C 
ATOM      6  C   UNL     1       7.261  -2.325   4.235  0.00  0.00    +0.105 C 
ENDROOT
BRANCH   3   7
ATOM      7  C   UNL     1       9.166  -0.662   1.844  0.00  0.00    -0.012 A 
ATOM      8  C   UNL     1       9.146   0.540   2.525  0.00  0.00    +0.115 A 
ATOM      9  N   UNL     1       9.287   1.683   1.882  0.00  0.00    -0.263 NA
ATOM     10  C   UNL     1       9.450   1.726   0.574  0.00  0.00    +0.111 A 
ATOM     11  C   UNL     1       9.480   0.564  -0.174  0.00  0.00    +0.020 A 
ATOM     12  C   UNL     1       9.341  -0.656   0.468  0.00  0.00    +0.008 A 
ENDBRANCH   3   7
TORSDOF 1
ENDMDL
MODEL 5
REMARK VINA RESULT:     0.000      4.896      5.847
REMARK INTER + INTRA:          -0.256
REMARK INTER:                   0.000
REMARK INTRA:                  -0.256
REMARK UNBOUND:                -0.256
REMARK  Name = Nicotine.pdb
REMARK  2 active torsions:
REMARK  status: ('A' for Active; 'I' for Inactive)
REMARK    1  A    between atoms: C_3  and  C_6
REMARK    2  A    between atoms: N_4  and  C_12
REMARK                            x       y       z     vdW  Elec       q    Type
REMARK                         _______ _______ _______ _____ _____    ______ ____
ROOT
ATOM      1  C   UNL     1       2.046  -2.441  -1.305  0.00  0.00    +0.017 C 
ATOM      2  C   UNL     1       3.217  -1.881  -0.455  0.00  0.00    +0.025 C 
ATOM      3  C   UNL     1       4.463  -2.289  -1.271  0.00  0.00    +0.088 C 
ATOM      4  N   UNL     1       4.073  -3.426  -2.125  0.00  0.00    -0.298 NA
ATOM      5  C   UNL     1       2.657  -3.754  -1.855  0.00  0.00    +0.085 C 
ATOM      6  C   UNL     1       4.281  -3.115  -3.545  0.00  0.00    +0.105 C 
ENDROOT
BRANCH   3   7
ATOM      7  C   UNL     1       5.573  -2.702  -0.340  0.00  0.00    -0.012 A 
ATOM      8  C   UNL     1       6.887  -2.685  -0.768  0.00  0.00    +0.115 A 
ATOM      9  N   UNL     1       7.865  -3.044   0.040  0.00  0.00    -0.263 NA
ATOM     10  C   UNL     1       7.633  -3.431   1.279  0.00  0.00    +0.111 A 
ATOM     11  C   UNL     1       6.344  -3.474   1.777  0.00  0.00    +0.020 A 
ATOM     12  C   UNL     1       5.291  -3.098   0.958  0.00  0.00    +0.008 A 
ENDBRANCH   3   7
TORSDOF 1
ENDMDL
MODEL 6
REMARK VINA RESULT:     0.000      2.584      3.937
REMARK INTER + INTRA:          -0.256
REMARK INTER:                   0.000
REMARK INTRA:                  -0.256
REMARK UNBOUND:                -0.256
REMARK  Name = Nicotine.pdb
REMARK  2 active torsions:
REMARK  status: ('A' for Active; 'I' for Inactive)
REMARK    1  A    between atoms: C_3  and  C_6
REMARK    2  A    between atoms: N_4  and  C_12
REMARK                            x       y       z     vdW  Elec       q    Type
REMARK                         _______ _______ _______ _____ _____    ______ ____
ROOT
ATOM      1  C   UNL     1       2.805  -0.336  -5.768  0.00  0.00    +0.017 C 
ATOM      2  C   UNL     1       2.561  -0.478  -4.243  0.00  0.00    +0.025 C 
ATOM      3  C   UNL     1       1.055  -0.170  -4.102  0.00  0.00    +0.088 C 
ATOM      4  N   UNL     1       0.658   0.617  -5.284  0.00  0.00    -0.298 NA
ATOM      5  C   UNL     1       1.851   0.829  -6.131  0.00  0.00    +0.085 C 
ATOM      6  C   UNL     1      -0.408  -0.059  -6.034  0.00  0.00    +0.105 C 
ENDROOT
BRANCH   3   7
ATOM      7  C   UNL     1       0.810   0.628  -2.848  0.00  0.00    -0.012 A 
ATOM      8  C   UNL     1      -0.445   0.653  -2.269  0.00  0.00    +0.115 A 
ATOM      9  N   UNL     1      -0.668   1.348  -1.171  0.00  0.00    -0.263 NA
ATOM     10  C   UNL     1       0.287   2.042  -0.584  0.00  0.00    +0.111 A 
ATOM     11  C   UNL     1       1.568   2.064  -1.105  0.00  0.00    +0.020 A 
ATOM     12  C   UNL     1       1.841   1.341  -2.255  0.00  0.00    +0.008 A 
ENDBRANCH   3   7
TORSDOF 1
ENDMDL
MODEL 7
REMARK VINA RESULT:     0.000      3.804      5.292
REMARK INTER + INTRA:          -0.256
REMARK INTER:                   0.000
REMARK INTRA:                  -0.256
REMARK UNBOUND:                -0.256
REMARK  Name = Nicotine.pdb
REMARK  2 active torsions:
REMARK  status: ('A' for Active; 'I' for Inactive)
REMARK    1  A    between atoms: C_3  and  C_6
REMARK    2  A    between atoms: N_4  and  C_12
REMARK                            x       y       z     vdW  Elec       q    Type
REMARK                         _______ _______ _______ _____ _____    ______ ____
ROOT
ATOM      1  C   UNL     1       3.947   1.395  -0.609  0.00  0.00    +0.017 C 
ATOM      2  C   UNL     1       3.326   2.788  -0.330  0.00  0.00    +0.025 C 
ATOM      3  C   UNL     1       4.536   3.739  -0.451  0.00  0.00    +0.088 C 
ATOM      4  N   UNL     1       5.749   2.932  -0.228  0.00  0.00    -0.298 NA
ATOM      5  C   UNL     1       5.343   1.537   0.049  0.00  0.00    +0.085 C 
ATOM      6  C   UNL     1       6.647   2.999  -1.388  0.00  0.00    +0.105 C 
ENDROOT
BRANCH   3   7
ATOM      7  C   UNL     1       4.442   4.823   0.591  0.00  0.00    -0.012 A 
ATOM      8  C   UNL     1       5.126   6.013   0.425  0.00  0.00    +0.115 A 
ATOM      9  N   UNL     1       5.049   6.967   1.332  0.00  0.00    -0.263 NA
ATOM     10  C   UNL     1       4.323   6.829   2.424  0.00  0.00    +0.111 A 
ATOM     11  C   UNL     1       3.610   5.668   2.657  0.00  0.00    +0.020 A 
ATOM     12  C   UNL     1       3.663   4.644   1.724  0.00  0.00    +0.008 A 
ENDBRANCH   3   7
TORSDOF 1
ENDMDL
MODEL 8
REMARK VINA RESULT:     0.000      6.528      7.958
REMARK INTER + INTRA:          -0.256
REMARK INTER:                   0.000
REMARK INTRA:                  -0.256
REMARK UNBOUND:                -0.256
REMARK  Name = Nicotine.pdb
REMARK  2 active torsions:
REMARK  status: ('A' for Active; 'I' for Inactive)
REMARK    1  A    between atoms: C_3  and  C_6
REMARK    2  A    between atoms: N_4  and  C_12
REMARK                            x       y       z     vdW  Elec       q    Type
REMARK                         _______ _______ _______ _____ _____    ______ ____
ROOT
ATOM      1  C   UNL     1       8.342  -1.311   0.706  0.00  0.00    +0.017 C 
ATOM      2  C   UNL     1       7.752  -2.070   1.923  0.00  0.00    +0.025 C 
ATOM      3  C   UNL     1       6.645  -2.938   1.288  0.00  0.00    +0.088 C 
ATOM      4  N   UNL     1       6.273  -2.305   0.010  0.00  0.00    -0.298 NA
ATOM      5  C   UNL     1       7.078  -1.077  -0.160  0.00  0.00    +0.085 C 
ATOM      6  C   UNL     1       6.476  -3.228  -1.114  0.00  0.00    +0.105 C 
ENDROOT
BRANCH   3   7
ATOM      7  C   UNL     1       5.448  -2.993   2.202  0.00  0.00    -0.012 A 
ATOM      8  C   UNL     1       4.530  -4.020   2.090  0.00  0.00    +0.115 A 
ATOM      9  N   UNL     1       3.480  -4.075   2.886  0.00  0.00    -0.263 NA
ATOM     10  C   UNL     1       3.264  -3.163   3.813  0.00  0.00    +0.111 A 
ATOM     11  C   UNL     1       4.139  -2.107   3.984  0.00  0.00    +0.020 A 
ATOM     12  C   UNL     1       5.257  -2.018   3.169  0.00  0.00    +0.008 A 
ENDBRANCH   3   7
TORSDOF 1
ENDMDL
MODEL 9
REMARK VINA RESULT:     0.000      3.371      3.951
REMARK INTER + INTRA:          -0.256
REMARK INTER:                   0.000
REMARK INTRA:                  -0.256
REMARK UNBOUND:                -0.256
REMARK  Name = Nicotine.pdb
REMARK  2 active torsions:
REMARK  status: ('A' for Active; 'I' for Inactive)
REMARK    1  A    between atoms: C_3  and  C_6
REMARK    2  A    between atoms: N_4  and  C_12
REMARK                            x       y       z     vdW  Elec       q    Type
REMARK                         _______ _______ _______ _____ _____    ______ ____
ROOT
ATOM      1  C   UNL     1      -1.322   1.564   0.103  0.00  0.00    +0.017 C 
ATOM      2  C   UNL     1      -0.047   1.323  -0.747  0.00  0.00    +0.025 C 
ATOM      3  C   UNL     1      -0.541   1.560  -2.189  0.00  0.00    +0.088 C 
ATOM      4  N   UNL     1      -2.002   1.364  -2.188  0.00  0.00    -0.298 NA
ATOM      5  C   UNL     1      -2.427   0.993  -0.821  0.00  0.00    +0.085 C 
ATOM      6  C   UNL     1      -2.697   2.574  -2.646  0.00  0.00    +0.105 C 
ENDROOT
BRANCH   3   7
ATOM      7  C   UNL     1       0.109   0.572  -3.123  0.00  0.00    -0.012 A 
ATOM      8  C   UNL     1       0.186   0.836  -4.477  0.00  0.00    +0.115 A 
ATOM      9  N   UNL     1       0.753  -0.024  -5.301  0.00  0.00    -0.263 NA
ATOM     10  C   UNL     1       1.266  -1.160  -4.872  0.00  0.00    +0.111 A 
ATOM     11  C   UNL     1       1.227  -1.492  -3.531  0.00  0.00    +0.020 A 
ATOM     12  C   UNL     1       0.643  -0.611  -2.634  0.00  0.00    +0.008 A 
ENDBRANCH   3   7
TORSDOF 1
ENDMDL
MODEL 10
REMARK VINA RESULT:     0.000      3.197      5.374
REMARK INTER + INTRA:          -0.256
REMARK INTER:                   0.000
REMARK INTRA:                  -0.256
REMARK UNBOUND:                -0.256
REMARK  Name = Nicotine.pdb
REMARK  2 active torsions:
REMARK  status: ('A' for Active; 'I' for Inactive)
REMARK    1  A    between atoms: C_3  and  C_6
REMARK    2  A    between atoms: N_4  and  C_12
REMARK                            x       y       z     vdW  Elec       q    Type
REMARK                         _______ _______ _______ _____ _____    ______ ____
ROOT
ATOM      1  C   UNL     1       3.703   4.806   2.264  0.00  0.00    +0.017 C 
ATOM      2  C   UNL     1       2.370   4.266   1.683  0.00  0.00    +0.025 C 
ATOM      3  C   UNL     1       2.775   3.784   0.274  0.00  0.00    +0.088 C 
ATOM      4  N   UNL     1       4.008   4.502  -0.096  0.00  0.00    -0.298 NA
ATOM      5  C   UNL     1       4.366   5.421   1.006  0.00  0.00    +0.085 C 
ATOM      6  C   UNL     1       5.101   3.563  -0.376  0.00  0.00    +0.105 C 
ENDROOT
BRANCH   3   7
ATOM      7  C   UNL     1       1.680   4.102  -0.711  0.00  0.00    -0.012 A 
ATOM      8  C   UNL     1       1.590   3.411  -1.904  0.00  0.00    +0.115 A 
ATOM      9  N   UNL     1       0.635   3.682  -2.772  0.00  0.00    -0.263 NA
ATOM     10  C   UNL     1      -0.266   4.616  -2.540  0.00  0.00    +0.111 A 
ATOM     11  C   UNL     1      -0.241   5.349  -1.368  0.00  0.00    +0.020 A 
ATOM     12  C   UNL     1       0.746   5.088  -0.430  0.00  0.00    +0.008 A 
ENDBRANCH   3   7
TORSDOF 1
ENDMDL
