MODEL 1
REMARK VINA RESULT:    -4.130      0.000      0.000
REMARK INTER + INTRA:          -4.570
REMARK INTER:                  -4.371
REMARK INTRA:                  -0.199
REMARK UNBOUND:                -0.199
REMARK  Name = Nicotine.pdb
REMARK  2 active torsions:
REMARK  status: ('A' for Active; 'I' for Inactive)
REMARK    1  A    between atoms: C_3  and  C_6
REMARK    2  A    between atoms: N_4  and  C_12
REMARK                            x       y       z     vdW  Elec       q    Type
REMARK                         _______ _______ _______ _____ _____    ______ ____
ROOT
ATOM      1  C   UNL     1       4.835   2.473   1.188  0.00  0.00    +0.017 C 
ATOM      2  C   UNL     1       5.853   1.554   1.914  0.00  0.00    +0.025 C 
ATOM      3  C   UNL     1       5.499   0.151   1.376  0.00  0.00    +0.088 C 
ATOM      4  N   UNL     1       4.107   0.207   0.894  0.00  0.00    -0.298 NA
ATOM      5  C   UNL     1       3.580   1.568   1.132  0.00  0.00    +0.085 C 
ATOM      6  C   UNL     1       4.028  -0.147  -0.529  0.00  0.00    +0.105 C 
ENDROOT
BRANCH   3   7
ATOM      7  C   UNL     1       5.620  -0.867   2.480  0.00  0.00    -0.012 A 
ATOM      8  C   UNL     1       6.065  -0.490   3.733  0.00  0.00    +0.115 A 
ATOM      9  N   UNL     1       6.174  -1.374   4.705  0.00  0.00    -0.263 NA
ATOM     10  C   UNL     1       5.866  -2.643   4.524  0.00  0.00    +0.111 A 
ATOM     11  C   UNL     1       5.414  -3.094   3.298  0.00  0.00    +0.020 A 
ATOM     12  C   UNL     1       5.281  -2.192   2.254  0.00  0.00    +0.008 A 
ENDBRANCH   3   7
TORSDOF 1
ENDMDL
MODEL 2
REMARK VINA RESULT:    -4.059      1.103      4.473
REMARK INTER + INTRA:          -4.495
REMARK INTER:                  -4.273
REMARK INTRA:                  -0.222
REMARK UNBOUND:                -0.199
REMARK  Name = Nicotine.pdb
REMARK  2 active torsions:
REMARK  status: ('A' for Active; 'I' for Inactive)
REMARK    1  A    between atoms: C_3  and  C_6
REMARK    2  A    between atoms: N_4  and  C_12
REMARK                            x       y       z     vdW  Elec       q    Type
REMARK                         _______ _______ _______ _____ _____    ______ ____
ROOT
ATOM      1  C   UNL     1       5.549  -2.851   4.277  0.00  0.00    +0.017 C 
ATOM      2  C   UNL     1       5.296  -2.640   2.761  0.00  0.00    +0.025 C 
ATOM      3  C   UNL     1       6.132  -1.382   2.441  0.00  0.00    +0.088 C 
ATOM      4  N   UNL     1       6.329  -0.655   3.707  0.00  0.00    -0.298 NA
ATOM      5  C   UNL     1       5.634  -1.390   4.786  0.00  0.00    +0.085 C 
ATOM      6  C   UNL     1       7.758  -0.502   4.010  0.00  0.00    +0.105 C 
ENDROOT
BRANCH   3   7
ATOM      7  C   UNL     1       5.394  -0.512   1.458  0.00  0.00    -0.012 A 
ATOM      8  C   UNL     1       5.231   0.838   1.704  0.00  0.00    +0.115 A 
ATOM      9  N   UNL     1       4.586   1.607   0.848  0.00  0.00    -0.263 NA
ATOM     10  C   UNL     1       4.074   1.125  -0.267  0.00  0.00    +0.111 A 
ATOM     11  C   UNL     1       4.197  -0.215  -0.581  0.00  0.00    +0.020 A 
ATOM     12  C   UNL     1       4.873  -1.053   0.292  0.00  0.00    +0.008 A 
ENDBRANCH   3   7
TORSDOF 1
ENDMDL
MODEL 3
REMARK VINA RESULT:    -4.021      1.102      1.955
REMARK INTER + INTRA:          -4.455
REMARK INTER:                  -4.231
REMARK INTRA:                  -0.224
REMARK UNBOUND:                -0.199
REMARK  Name = Nicotine.pdb
REMARK  2 active torsions:
REMARK  status: ('A' for Active; 'I' for Inactive)
REMARK    1  A    between atoms: C_3  and  C_6
REMARK    2  A    between atoms: N_4  and  C_12
REMARK                            x       y       z     vdW  Elec       q    Type
REMARK                         _______ _______ _______ _____ _____    ______ ____
ROOT
ATOM      1  C   UNL     1       4.953   0.064  -1.409  0.00  0.00    +0.017 C 
ATOM      2  C   UNL     1       4.917  -1.121  -0.408  0.00  0.00    +0.025 C 
ATOM      3  C   UNL     1       4.555  -0.437   0.927  0.00  0.00    +0.088 C 
ATOM      4  N   UNL     1       4.932   0.983   0.807  0.00  0.00    -0.298 NA
ATOM      5  C   UNL     1       5.531   1.200  -0.528  0.00  0.00    +0.085 C 
ATOM      6  C   UNL     1       3.769   1.857   1.011  0.00  0.00    +0.105 C 
ENDROOT
BRANCH   3   7
ATOM      7  C   UNL     1       5.321  -1.078   2.056  0.00  0.00    -0.012 A 
ATOM      8  C   UNL     1       6.142  -0.316   2.865  0.00  0.00    +0.115 A 
ATOM      9  N   UNL     1       6.816  -0.869   3.855  0.00  0.00    -0.263 NA
ATOM     10  C   UNL     1       6.735  -2.159   4.112  0.00  0.00    +0.111 A 
ATOM     11  C   UNL     1       5.933  -2.985   3.346  0.00  0.00    +0.020 A 
ATOM     12  C   UNL     1       5.206  -2.438   2.300  0.00  0.00    +0.008 A 
ENDBRANCH   3   7
TORSDOF 1
ENDMDL
MODEL 4
REMARK VINA RESULT:    -3.890      2.401      4.111
REMARK INTER + INTRA:          -4.316
REMARK INTER:                  -4.061
REMARK INTRA:                  -0.256
REMARK UNBOUND:                -0.199
REMARK  Name = Nicotine.pdb
REMARK  2 active torsions:
REMARK  status: ('A' for Active; 'I' for Inactive)
REMARK    1  A    between atoms: C_3  and  C_6
REMARK    2  A    between atoms: N_4  and  C_12
REMARK                            x       y       z     vdW  Elec       q    Type
REMARK                         _______ _______ _______ _____ _____    ______ ____
ROOT
ATOM      1  C   UNL     1       5.323  -1.343   2.049  0.00  0.00    +0.017 C 
ATOM      2  C   UNL     1       5.370  -2.654   2.878  0.00  0.00    +0.025 C 
ATOM      3  C   UNL     1       6.174  -2.243   4.130  0.00  0.00    +0.088 C 
ATOM      4  N   UNL     1       6.970  -1.057   3.769  0.00  0.00    -0.298 NA
ATOM      5  C   UNL     1       6.714  -0.733   2.349  0.00  0.00    +0.085 C 
ATOM      6  C   UNL     1       6.643   0.082   4.636  0.00  0.00    +0.105 C 
ENDROOT
BRANCH   3   7
ATOM      7  C   UNL     1       7.087  -3.368   4.544  0.00  0.00    -0.012 A 
ATOM      8  C   UNL     1       7.507  -3.480   5.856  0.00  0.00    +0.115 A 
ATOM      9  N   UNL     1       8.306  -4.462   6.227  0.00  0.00    -0.263 NA
ATOM     10  C   UNL     1       8.734  -5.368   5.371  0.00  0.00    +0.111 A 
ATOM     11  C   UNL     1       8.355  -5.321   4.042  0.00  0.00    +0.020 A 
ATOM     12  C   UNL     1       7.512  -4.307   3.616  0.00  0.00    +0.008 A 
ENDBRANCH   3   7
TORSDOF 1
ENDMDL
MODEL 5
REMARK VINA RESULT:    -3.607      1.399      4.626
REMARK INTER + INTRA:          -4.017
REMARK INTER:                  -3.847
REMARK INTRA:                  -0.170
REMARK UNBOUND:                -0.199
REMARK  Name = Nicotine.pdb
REMARK  2 active torsions:
REMARK  status: ('A' for Active; 'I' for Inactive)
REMARK    1  A    between atoms: C_3  and  C_6
REMARK    2  A    between atoms: N_4  and  C_12
REMARK                            x       y       z     vdW  Elec       q    Type
REMARK                         _______ _______ _______ _____ _____    ______ ____
ROOT
ATOM      1  C   UNL     1       7.899  -2.653   3.440  0.00  0.00    +0.017 C 
ATOM      2  C   UNL     1       7.557  -1.317   2.730  0.00  0.00    +0.025 C 
ATOM      3  C   UNL     1       6.063  -1.118   3.065  0.00  0.00    +0.088 C 
ATOM      4  N   UNL     1       5.510  -2.443   3.396  0.00  0.00    -0.298 NA
ATOM      5  C   UNL     1       6.583  -3.450   3.257  0.00  0.00    +0.085 C 
ATOM      6  C   UNL     1       4.948  -2.455   4.753  0.00  0.00    +0.105 C 
ENDROOT
BRANCH   3   7
ATOM      7  C   UNL     1       5.343  -0.543   1.873  0.00  0.00    -0.012 A 
ATOM      8  C   UNL     1       4.953  -1.362   0.830  0.00  0.00    +0.115 A 
ATOM      9  N   UNL     1       4.322  -0.867  -0.217  0.00  0.00    -0.263 NA
ATOM     10  C   UNL     1       4.040   0.418  -0.313  0.00  0.00    +0.111 A 
ATOM     11  C   UNL     1       4.399   1.298   0.691  0.00  0.00    +0.020 A 
ATOM     12  C   UNL     1       5.059   0.813   1.810  0.00  0.00    +0.008 A 
ENDBRANCH   3   7
TORSDOF 1
ENDMDL
MODEL 6
REMARK VINA RESULT:    -3.458      3.323      5.335
REMARK INTER + INTRA:          -3.859
REMARK INTER:                  -3.636
REMARK INTRA:                  -0.223
REMARK UNBOUND:                -0.199
REMARK  Name = Nicotine.pdb
REMARK  2 active torsions:
REMARK  status: ('A' for Active; 'I' for Inactive)
REMARK    1  A    between atoms: C_3  and  C_6
REMARK    2  A    between atoms: N_4  and  C_12
REMARK                            x       y       z     vdW  Elec       q    Type
REMARK                         _______ _______ _______ _____ _____    ______ ____
ROOT
ATOM      1  C   UNL     1       3.735   1.135   0.954  0.00  0.00    +0.017 C 
ATOM      2  C   UNL     1       4.188   0.071  -0.081  0.00  0.00    +0.025 C 
ATOM      3  C   UNL     1       5.676   0.415  -0.304  0.00  0.00    +0.088 C 
ATOM      4  N   UNL     1       5.862   1.824   0.084  0.00  0.00    -0.298 NA
ATOM      5  C   UNL     1       4.556   2.372   0.510  0.00  0.00    +0.085 C 
ATOM      6  C   UNL     1       6.860   1.950   1.154  0.00  0.00    +0.105 C 
ENDROOT
BRANCH   3   7
ATOM      7  C   UNL     1       6.033   0.229  -1.755  0.00  0.00    -0.012 A 
ATOM      8  C   UNL     1       6.655   1.245  -2.458  0.00  0.00    +0.115 A 
ATOM      9  N   UNL     1       6.971   1.091  -3.729  0.00  0.00    -0.263 NA
ATOM     10  C   UNL     1       6.710  -0.027  -4.377  0.00  0.00    +0.111 A 
ATOM     11  C   UNL     1       6.091  -1.086  -3.741  0.00  0.00    +0.020 A 
ATOM     12  C   UNL     1       5.748  -0.963  -2.403  0.00  0.00    +0.008 A 
ENDBRANCH   3   7
TORSDOF 1
ENDMDL
MODEL 7
REMARK VINA RESULT:    -3.437      3.223      5.191
REMARK INTER + INTRA:          -3.837
REMARK INTER:                  -3.583
REMARK INTRA:                  -0.254
REMARK UNBOUND:                -0.199
REMARK  Name = Nicotine.pdb
REMARK  2 active torsions:
REMARK  status: ('A' for Active; 'I' for Inactive)
REMARK    1  A    between atoms: C_3  and  C_6
REMARK    2  A    between atoms: N_4  and  C_12
REMARK                            x       y       z     vdW  Elec       q    Type
REMARK                         _______ _______ _______ _____ _____    ______ ____
ROOT
ATOM      1  C   UNL     1       7.188  -1.844  -3.725  0.00  0.00    +0.017 C 
ATOM      2  C   UNL     1       5.813  -1.660  -3.030  0.00  0.00    +0.025 C 
ATOM      3  C   UNL     1       5.748  -0.137  -2.788  0.00  0.00    +0.088 C 
ATOM      4  N   UNL     1       7.133   0.367  -2.795  0.00  0.00    -0.298 NA
ATOM      5  C   UNL     1       8.048  -0.776  -3.004  0.00  0.00    +0.085 C 
ATOM      6  C   UNL     1       7.318   1.387  -3.835  0.00  0.00    +0.105 C 
ENDROOT
BRANCH   3   7
ATOM      7  C   UNL     1       5.106   0.143  -1.454  0.00  0.00    -0.012 A 
ATOM      8  C   UNL     1       4.693   1.422  -1.132  0.00  0.00    +0.115 A 
ATOM      9  N   UNL     1       4.130   1.676   0.034  0.00  0.00    -0.263 NA
ATOM     10  C   UNL     1       3.940   0.730   0.932  0.00  0.00    +0.111 A 
ATOM     11  C   UNL     1       4.327  -0.573   0.681  0.00  0.00    +0.020 A 
ATOM     12  C   UNL     1       4.918  -0.879  -0.536  0.00  0.00    +0.008 A 
ENDBRANCH   3   7
TORSDOF 1
ENDMDL
MODEL 8
REMARK VINA RESULT:    -3.375      1.934      3.133
REMARK INTER + INTRA:          -3.771
REMARK INTER:                  -3.556
REMARK INTRA:                  -0.215
REMARK UNBOUND:                -0.199
REMARK  Name = Nicotine.pdb
REMARK  2 active torsions:
REMARK  status: ('A' for Active; 'I' for Inactive)
REMARK    1  A    between atoms: C_3  and  C_6
REMARK    2  A    between atoms: N_4  and  C_12
REMARK                            x       y       z     vdW  Elec       q    Type
REMARK                         _______ _______ _______ _____ _____    ______ ____
ROOT
ATOM      1  C   UNL     1       4.929   3.966  -0.891  0.00  0.00    +0.017 C 
ATOM      2  C   UNL     1       4.315   2.595  -0.505  0.00  0.00    +0.025 C 
ATOM      3  C   UNL     1       4.596   2.504   1.010  0.00  0.00    +0.088 C 
ATOM      4  N   UNL     1       5.725   3.405   1.301  0.00  0.00    -0.298 NA
ATOM      5  C   UNL     1       6.170   4.026   0.035  0.00  0.00    +0.085 C 
ATOM      6  C   UNL     1       5.345   4.427   2.284  0.00  0.00    +0.105 C 
ENDROOT
BRANCH   3   7
ATOM      7  C   UNL     1       4.958   1.089   1.381  0.00  0.00    -0.012 A 
ATOM      8  C   UNL     1       5.801   0.840   2.448  0.00  0.00    +0.115 A 
ATOM      9  N   UNL     1       6.123  -0.396   2.778  0.00  0.00    -0.263 NA
ATOM     10  C   UNL     1       5.660  -1.435   2.112  0.00  0.00    +0.111 A 
ATOM     11  C   UNL     1       4.812  -1.263   1.034  0.00  0.00    +0.020 A 
ATOM     12  C   UNL     1       4.447   0.021   0.660  0.00  0.00    +0.008 A 
ENDBRANCH   3   7
TORSDOF 1
ENDMDL
MODEL 9
REMARK VINA RESULT:    -3.324      3.080      6.194
REMARK INTER + INTRA:          -3.718
REMARK INTER:                  -3.521
REMARK INTRA:                  -0.197
REMARK UNBOUND:                -0.199
REMARK  Name = Nicotine.pdb
REMARK  2 active torsions:
REMARK  status: ('A' for Active; 'I' for Inactive)
REMARK    1  A    between atoms: C_3  and  C_6
REMARK    2  A    between atoms: N_4  and  C_12
REMARK                            x       y       z     vdW  Elec       q    Type
REMARK                         _______ _______ _______ _____ _____    ______ ____
ROOT
ATOM      1  C   UNL     1       4.020  -0.117  -0.072  0.00  0.00    +0.017 C 
ATOM      2  C   UNL     1       4.806   0.604  -1.198  0.00  0.00    +0.025 C 
ATOM      3  C   UNL     1       5.669   1.622  -0.423  0.00  0.00    +0.088 C 
ATOM      4  N   UNL     1       5.015   1.848   0.878  0.00  0.00    -0.298 NA
ATOM      5  C   UNL     1       3.779   1.040   0.931  0.00  0.00    +0.085 C 
ATOM      6  C   UNL     1       5.915   1.508   1.987  0.00  0.00    +0.105 C 
ENDROOT
BRANCH   3   7
ATOM      7  C   UNL     1       5.750   2.916  -1.190  0.00  0.00    -0.012 A 
ATOM      8  C   UNL     1       6.695   3.082  -2.185  0.00  0.00    +0.115 A 
ATOM      9  N   UNL     1       6.771   4.212  -2.861  0.00  0.00    -0.263 NA
ATOM     10  C   UNL     1       5.958   5.221  -2.619  0.00  0.00    +0.111 A 
ATOM     11  C   UNL     1       4.988   5.128  -1.640  0.00  0.00    +0.020 A 
ATOM     12  C   UNL     1       4.873   3.954  -0.912  0.00  0.00    +0.008 A 
ENDBRANCH   3   7
TORSDOF 1
ENDMDL
MODEL 10
REMARK VINA RESULT:    -3.227      3.446      4.927
REMARK INTER + INTRA:          -3.614
REMARK INTER:                  -3.370
REMARK INTRA:                  -0.244
REMARK UNBOUND:                -0.199
REMARK  Name = Nicotine.pdb
REMARK  2 active torsions:
REMARK  status: ('A' for Active; 'I' for Inactive)
REMARK    1  A    between atoms: C_3  and  C_6
REMARK    2  A    between atoms: N_4  and  C_12
REMARK                            x       y       z     vdW  Elec       q    Type
REMARK                         _______ _______ _______ _____ _____    ______ ____
ROOT
ATOM      1  C   UNL     1       5.478   6.021   0.040  0.00  0.00    +0.017 C 
ATOM      2  C   UNL     1       5.640   4.616   0.679  0.00  0.00    +0.025 C 
ATOM      3  C   UNL     1       5.925   3.711  -0.539  0.00  0.00    +0.088 C 
ATOM      4  N   UNL     1       5.400   4.403  -1.730  0.00  0.00    -0.298 NA
ATOM      5  C   UNL     1       4.783   5.676  -1.301  0.00  0.00    +0.085 C 
ATOM      6  C   UNL     1       6.464   4.638  -2.715  0.00  0.00    +0.105 C 
ENDROOT
BRANCH   3   7
ATOM      7  C   UNL     1       5.231   2.385  -0.366  0.00  0.00    -0.012 A 
ATOM      8  C   UNL     1       5.404   1.379  -1.298  0.00  0.00    +0.115 A 
ATOM      9  N   UNL     1       4.801   0.216  -1.154  0.00  0.00    -0.263 NA
ATOM     10  C   UNL     1       4.014  -0.035  -0.127  0.00  0.00    +0.111 A 
ATOM     11  C   UNL     1       3.794   0.923   0.846  0.00  0.00    +0.020 A 
ATOM     12  C   UNL     1       4.416   2.156   0.731  0.00  0.00    +0.008 A 
ENDBRANCH   3   7
TORSDOF 1
ENDMDL
