MODEL 1
REMARK VINA RESULT:    -2.103      0.000      0.000
REMARK INTER + INTRA:          -2.480
REMARK INTER:                  -2.225
REMARK INTRA:                  -0.254
REMARK UNBOUND:                -0.254
REMARK  Name = Nicotine.pdb
REMARK  2 active torsions:
REMARK  status: ('A' for Active; 'I' for Inactive)
REMARK    1  A    between atoms: C_3  and  C_6
REMARK    2  A    between atoms: N_4  and  C_12
REMARK                            x       y       z     vdW  Elec       q    Type
REMARK                         _______ _______ _______ _____ _____    ______ ____
ROOT
ATOM      1  C   UNL     1       8.596  -1.033  -6.690  0.00  0.00    +0.017 C 
ATOM      2  C   UNL     1       7.773   0.260  -6.455  0.00  0.00    +0.025 C 
ATOM      3  C   UNL     1       6.938  -0.083  -5.203  0.00  0.00    +0.088 C 
ATOM      4  N   UNL     1       6.860  -1.552  -5.119  0.00  0.00    -0.298 NA
ATOM      5  C   UNL     1       7.584  -2.129  -6.272  0.00  0.00    +0.085 C 
ATOM      6  C   UNL     1       7.416  -2.038  -3.850  0.00  0.00    +0.105 C 
ENDROOT
BRANCH   3   7
ATOM      7  C   UNL     1       5.554   0.499  -5.334  0.00  0.00    -0.012 A 
ATOM      8  C   UNL     1       4.863   0.920  -4.213  0.00  0.00    +0.115 A 
ATOM      9  N   UNL     1       3.652   1.430  -4.320  0.00  0.00    -0.263 NA
ATOM     10  C   UNL     1       3.054   1.559  -5.488  0.00  0.00    +0.111 A 
ATOM     11  C   UNL     1       3.683   1.161  -6.652  0.00  0.00    +0.020 A 
ATOM     12  C   UNL     1       4.960   0.624  -6.581  0.00  0.00    +0.008 A 
ENDBRANCH   3   7
TORSDOF 1
ENDMDL
MODEL 2
REMARK VINA RESULT:    -2.092      3.775      6.400
REMARK INTER + INTRA:          -2.468
REMARK INTER:                  -2.220
REMARK INTRA:                  -0.248
REMARK UNBOUND:                -0.254
REMARK  Name = Nicotine.pdb
REMARK  2 active torsions:
REMARK  status: ('A' for Active; 'I' for Inactive)
REMARK    1  A    between atoms: C_3  and  C_6
REMARK    2  A    between atoms: N_4  and  C_12
REMARK                            x       y       z     vdW  Elec       q    Type
REMARK                         _______ _______ _______ _____ _____    ______ ____
ROOT
ATOM      1  C   UNL     1       7.215   0.345  -1.424  0.00  0.00    +0.017 C 
ATOM      2  C   UNL     1       7.299  -0.850  -0.439  0.00  0.00    +0.025 C 
ATOM      3  C   UNL     1       7.758  -2.014  -1.343  0.00  0.00    +0.088 C 
ATOM      4  N   UNL     1       7.396  -1.660  -2.727  0.00  0.00    -0.298 NA
ATOM      5  C   UNL     1       6.714  -0.348  -2.715  0.00  0.00    +0.085 C 
ATOM      6  C   UNL     1       8.583  -1.629  -3.591  0.00  0.00    +0.105 C 
ENDROOT
BRANCH   3   7
ATOM      7  C   UNL     1       7.058  -3.285  -0.938  0.00  0.00    -0.012 A 
ATOM      8  C   UNL     1       7.405  -4.490  -1.519  0.00  0.00    +0.115 A 
ATOM      9  N   UNL     1       6.797  -5.607  -1.170  0.00  0.00    -0.263 NA
ATOM     10  C   UNL     1       5.843  -5.622  -0.261  0.00  0.00    +0.111 A 
ATOM     11  C   UNL     1       5.443  -4.456   0.365  0.00  0.00    +0.020 A 
ATOM     12  C   UNL     1       6.062  -3.262   0.027  0.00  0.00    +0.008 A 
ENDBRANCH   3   7
TORSDOF 1
ENDMDL
MODEL 3
REMARK VINA RESULT:    -2.091      1.618      2.439
REMARK INTER + INTRA:          -2.468
REMARK INTER:                  -2.263
REMARK INTRA:                  -0.205
REMARK UNBOUND:                -0.254
REMARK  Name = Nicotine.pdb
REMARK  2 active torsions:
REMARK  status: ('A' for Active; 'I' for Inactive)
REMARK    1  A    between atoms: C_3  and  C_6
REMARK    2  A    between atoms: N_4  and  C_12
REMARK                            x       y       z     vdW  Elec       q    Type
REMARK                         _______ _______ _______ _____ _____    ______ ____
ROOT
ATOM      1  C   UNL     1       6.809  -0.493  -6.539  0.00  0.00    +0.017 C 
ATOM      2  C   UNL     1       5.880   0.719  -6.815  0.00  0.00    +0.025 C 
ATOM      3  C   UNL     1       5.238   0.984  -5.436  0.00  0.00    +0.088 C 
ATOM      4  N   UNL     1       5.332  -0.267  -4.662  0.00  0.00    -0.298 NA
ATOM      5  C   UNL     1       5.979  -1.295  -5.506  0.00  0.00    +0.085 C 
ATOM      6  C   UNL     1       6.082  -0.060  -3.416  0.00  0.00    +0.105 C 
ENDROOT
BRANCH   3   7
ATOM      7  C   UNL     1       3.792   1.372  -5.611  0.00  0.00    -0.012 A 
ATOM      8  C   UNL     1       3.221   1.392  -6.869  0.00  0.00    +0.115 A 
ATOM      9  N   UNL     1       1.956   1.731  -7.031  0.00  0.00    -0.263 NA
ATOM     10  C   UNL     1       1.192   2.062  -6.009  0.00  0.00    +0.111 A 
ATOM     11  C   UNL     1       1.694   2.064  -4.721  0.00  0.00    +0.020 A 
ATOM     12  C   UNL     1       3.017   1.708  -4.512  0.00  0.00    +0.008 A 
ENDBRANCH   3   7
TORSDOF 1
ENDMDL
MODEL 4
REMARK VINA RESULT:    -2.079      2.811      5.653
REMARK INTER + INTRA:          -2.454
REMARK INTER:                  -2.208
REMARK INTRA:                  -0.246
REMARK UNBOUND:                -0.254
REMARK  Name = Nicotine.pdb
REMARK  2 active torsions:
REMARK  status: ('A' for Active; 'I' for Inactive)
REMARK    1  A    between atoms: C_3  and  C_6
REMARK    2  A    between atoms: N_4  and  C_12
REMARK                            x       y       z     vdW  Elec       q    Type
REMARK                         _______ _______ _______ _____ _____    ______ ____
ROOT
ATOM      1  C   UNL     1       6.563   1.146  -2.825  0.00  0.00    +0.017 C 
ATOM      2  C   UNL     1       7.233   0.170  -1.822  0.00  0.00    +0.025 C 
ATOM      3  C   UNL     1       7.600  -1.040  -2.709  0.00  0.00    +0.088 C 
ATOM      4  N   UNL     1       6.723  -0.996  -3.892  0.00  0.00    -0.298 NA
ATOM      5  C   UNL     1       5.818   0.166  -3.765  0.00  0.00    +0.085 C 
ATOM      6  C   UNL     1       7.510  -0.918  -5.129  0.00  0.00    +0.105 C 
ENDROOT
BRANCH   3   7
ATOM      7  C   UNL     1       7.373  -2.320  -1.948  0.00  0.00    -0.012 A 
ATOM      8  C   UNL     1       7.727  -3.535  -2.503  0.00  0.00    +0.115 A 
ATOM      9  N   UNL     1       7.532  -4.661  -1.844  0.00  0.00    -0.263 NA
ATOM     10  C   UNL     1       6.996  -4.675  -0.639  0.00  0.00    +0.111 A 
ATOM     11  C   UNL     1       6.617  -3.498  -0.020  0.00  0.00    +0.020 A 
ATOM     12  C   UNL     1       6.811  -2.295  -0.680  0.00  0.00    +0.008 A 
ENDBRANCH   3   7
TORSDOF 1
ENDMDL
MODEL 5
REMARK VINA RESULT:    -2.060      1.594      2.208
REMARK INTER + INTRA:          -2.434
REMARK INTER:                  -2.231
REMARK INTRA:                  -0.203
REMARK UNBOUND:                -0.254
REMARK  Name = Nicotine.pdb
REMARK  2 active torsions:
REMARK  status: ('A' for Active; 'I' for Inactive)
REMARK    1  A    between atoms: C_3  and  C_6
REMARK    2  A    between atoms: N_4  and  C_12
REMARK                            x       y       z     vdW  Elec       q    Type
REMARK                         _______ _______ _______ _____ _____    ______ ____
ROOT
ATOM      1  C   UNL     1       7.165  -1.514  -3.904  0.00  0.00    +0.017 C 
ATOM      2  C   UNL     1       6.267  -1.093  -5.096  0.00  0.00    +0.025 C 
ATOM      3  C   UNL     1       6.189   0.442  -4.946  0.00  0.00    +0.088 C 
ATOM      4  N   UNL     1       6.494   0.759  -3.540  0.00  0.00    -0.298 NA
ATOM      5  C   UNL     1       6.730  -0.506  -2.812  0.00  0.00    +0.085 C 
ATOM      6  C   UNL     1       7.658   1.650  -3.440  0.00  0.00    +0.105 C 
ENDROOT
BRANCH   3   7
ATOM      7  C   UNL     1       4.804   0.921  -5.294  0.00  0.00    -0.012 A 
ATOM      8  C   UNL     1       3.936   1.329  -4.299  0.00  0.00    +0.115 A 
ATOM      9  N   UNL     1       2.721   1.750  -4.594  0.00  0.00    -0.263 NA
ATOM     10  C   UNL     1       2.288   1.799  -5.838  0.00  0.00    +0.111 A 
ATOM     11  C   UNL     1       3.100   1.408  -6.886  0.00  0.00    +0.020 A 
ATOM     12  C   UNL     1       4.385   0.964  -6.615  0.00  0.00    +0.008 A 
ENDBRANCH   3   7
TORSDOF 1
ENDMDL
MODEL 6
REMARK VINA RESULT:    -2.049      1.631      4.781
REMARK INTER + INTRA:          -2.423
REMARK INTER:                  -2.221
REMARK INTRA:                  -0.201
REMARK UNBOUND:                -0.254
REMARK  Name = Nicotine.pdb
REMARK  2 active torsions:
REMARK  status: ('A' for Active; 'I' for Inactive)
REMARK    1  A    between atoms: C_3  and  C_6
REMARK    2  A    between atoms: N_4  and  C_12
REMARK                            x       y       z     vdW  Elec       q    Type
REMARK                         _______ _______ _______ _____ _____    ______ ____
ROOT
ATOM      1  C   UNL     1       3.949   3.785  -4.127  0.00  0.00    +0.017 C 
ATOM      2  C   UNL     1       4.903   3.051  -5.106  0.00  0.00    +0.025 C 
ATOM      3  C   UNL     1       4.056   1.853  -5.584  0.00  0.00    +0.088 C 
ATOM      4  N   UNL     1       3.016   1.619  -4.566  0.00  0.00    -0.298 NA
ATOM      5  C   UNL     1       3.198   2.598  -3.473  0.00  0.00    +0.085 C 
ATOM      6  C   UNL     1       1.673   1.725  -5.151  0.00  0.00    +0.105 C 
ENDROOT
BRANCH   3   7
ATOM      7  C   UNL     1       4.927   0.631  -5.720  0.00  0.00    -0.012 A 
ATOM      8  C   UNL     1       5.219   0.116  -6.969  0.00  0.00    +0.115 A 
ATOM      9  N   UNL     1       5.981  -0.953  -7.097  0.00  0.00    -0.263 NA
ATOM     10  C   UNL     1       6.490  -1.570  -6.049  0.00  0.00    +0.111 A 
ATOM     11  C   UNL     1       6.241  -1.113  -4.768  0.00  0.00    +0.020 A 
ATOM     12  C   UNL     1       5.450   0.012  -4.595  0.00  0.00    +0.008 A 
ENDBRANCH   3   7
TORSDOF 1
ENDMDL
MODEL 7
REMARK VINA RESULT:    -2.029      5.233      7.271
REMARK INTER + INTRA:          -2.402
REMARK INTER:                  -2.146
REMARK INTRA:                  -0.256
REMARK UNBOUND:                -0.254
REMARK  Name = Nicotine.pdb
REMARK  2 active torsions:
REMARK  status: ('A' for Active; 'I' for Inactive)
REMARK    1  A    between atoms: C_3  and  C_6
REMARK    2  A    between atoms: N_4  and  C_12
REMARK                            x       y       z     vdW  Elec       q    Type
REMARK                         _______ _______ _______ _____ _____    ______ ____
ROOT
ATOM      1  C   UNL     1       0.637   2.038  -6.373  0.00  0.00    +0.017 C 
ATOM      2  C   UNL     1      -0.650   1.515  -5.682  0.00  0.00    +0.025 C 
ATOM      3  C   UNL     1      -0.394   1.825  -4.192  0.00  0.00    +0.088 C 
ATOM      4  N   UNL     1       1.064   1.945  -4.015  0.00  0.00    -0.298 NA
ATOM      5  C   UNL     1       1.719   1.699  -5.318  0.00  0.00    +0.085 C 
ATOM      6  C   UNL     1       1.424   3.267  -3.486  0.00  0.00    +0.105 C 
ENDROOT
BRANCH   3   7
ATOM      7  C   UNL     1      -0.925   0.704  -3.336  0.00  0.00    -0.012 A 
ATOM      8  C   UNL     1      -1.241   0.927  -2.009  0.00  0.00    +0.115 A 
ATOM      9  N   UNL     1      -1.707  -0.048  -1.254  0.00  0.00    -0.263 NA
ATOM     10  C   UNL     1      -1.888  -1.265  -1.727  0.00  0.00    +0.111 A 
ATOM     11  C   UNL     1      -1.595  -1.563  -3.045  0.00  0.00    +0.020 A 
ATOM     12  C   UNL     1      -1.108  -0.562  -3.871  0.00  0.00    +0.008 A 
ENDBRANCH   3   7
TORSDOF 1
ENDMDL
MODEL 8
REMARK VINA RESULT:    -2.016      1.373      1.678
REMARK INTER + INTRA:          -2.388
REMARK INTER:                  -2.133
REMARK INTRA:                  -0.255
REMARK UNBOUND:                -0.254
REMARK  Name = Nicotine.pdb
REMARK  2 active torsions:
REMARK  status: ('A' for Active; 'I' for Inactive)
REMARK    1  A    between atoms: C_3  and  C_6
REMARK    2  A    between atoms: N_4  and  C_12
REMARK                            x       y       z     vdW  Elec       q    Type
REMARK                         _______ _______ _______ _____ _____    ______ ____
ROOT
ATOM      1  C   UNL     1       9.856  -2.118  -5.345  0.00  0.00    +0.017 C 
ATOM      2  C   UNL     1       9.095  -0.769  -5.258  0.00  0.00    +0.025 C 
ATOM      3  C   UNL     1       7.939  -1.085  -4.284  0.00  0.00    +0.088 C 
ATOM      4  N   UNL     1       7.737  -2.545  -4.305  0.00  0.00    -0.298 NA
ATOM      5  C   UNL     1       8.694  -3.139  -5.262  0.00  0.00    +0.085 C 
ATOM      6  C   UNL     1       7.907  -3.120  -2.964  0.00  0.00    +0.105 C 
ENDROOT
BRANCH   3   7
ATOM      7  C   UNL     1       6.683  -0.385  -4.735  0.00  0.00    -0.012 A 
ATOM      8  C   UNL     1       5.721  -0.014  -3.814  0.00  0.00    +0.115 A 
ATOM      9  N   UNL     1       4.619   0.599  -4.200  0.00  0.00    -0.263 NA
ATOM     10  C   UNL     1       4.390   0.880  -5.468  0.00  0.00    +0.111 A 
ATOM     11  C   UNL     1       5.307   0.540  -6.445  0.00  0.00    +0.020 A 
ATOM     12  C   UNL     1       6.480  -0.100  -6.076  0.00  0.00    +0.008 A 
ENDBRANCH   3   7
TORSDOF 1
ENDMDL
MODEL 9
REMARK VINA RESULT:    -2.012      7.719      8.557
REMARK INTER + INTRA:          -2.384
REMARK INTER:                  -2.163
REMARK INTRA:                  -0.220
REMARK UNBOUND:                -0.254
REMARK  Name = Nicotine.pdb
REMARK  2 active torsions:
REMARK  status: ('A' for Active; 'I' for Inactive)
REMARK    1  A    between atoms: C_3  and  C_6
REMARK    2  A    between atoms: N_4  and  C_12
REMARK                            x       y       z     vdW  Elec       q    Type
REMARK                         _______ _______ _______ _____ _____    ______ ____
ROOT
ATOM      1  C   UNL     1      -2.945  -3.922  -5.216  0.00  0.00    +0.017 C 
ATOM      2  C   UNL     1      -2.200  -2.561  -5.225  0.00  0.00    +0.025 C 
ATOM      3  C   UNL     1      -1.378  -2.606  -3.920  0.00  0.00    +0.088 C 
ATOM      4  N   UNL     1      -2.032  -3.576  -3.024  0.00  0.00    -0.298 NA
ATOM      5  C   UNL     1      -3.231  -4.111  -3.705  0.00  0.00    +0.085 C 
ATOM      6  C   UNL     1      -1.110  -4.657  -2.654  0.00  0.00    +0.105 C 
ENDROOT
BRANCH   3   7
ATOM      7  C   UNL     1      -1.361  -1.243  -3.277  0.00  0.00    -0.012 A 
ATOM      8  C   UNL     1      -1.628  -1.103  -1.929  0.00  0.00    +0.115 A 
ATOM      9  N   UNL     1      -1.615   0.086  -1.358  0.00  0.00    -0.263 NA
ATOM     10  C   UNL     1      -1.351   1.181  -2.044  0.00  0.00    +0.111 A 
ATOM     11  C   UNL     1      -1.074   1.119  -3.397  0.00  0.00    +0.020 A 
ATOM     12  C   UNL     1      -1.073  -0.115  -4.030  0.00  0.00    +0.008 A 
ENDBRANCH   3   7
TORSDOF 1
ENDMDL
MODEL 10
REMARK VINA RESULT:    -1.959      1.903      3.118
REMARK INTER + INTRA:          -2.327
REMARK INTER:                  -2.112
REMARK INTRA:                  -0.216
REMARK UNBOUND:                -0.254
REMARK  Name = Nicotine.pdb
REMARK  2 active torsions:
REMARK  status: ('A' for Active; 'I' for Inactive)
REMARK    1  A    between atoms: C_3  and  C_6
REMARK    2  A    between atoms: N_4  and  C_12
REMARK                            x       y       z     vdW  Elec       q    Type
REMARK                         _______ _______ _______ _____ _____    ______ ____
ROOT
ATOM      1  C   UNL     1       8.539  -0.393  -1.412  0.00  0.00    +0.017 C 
ATOM      2  C   UNL     1       7.192   0.130  -1.977  0.00  0.00    +0.025 C 
ATOM      3  C   UNL     1       6.730  -1.021  -2.895  0.00  0.00    +0.088 C 
ATOM      4  N   UNL     1       7.929  -1.799  -3.257  0.00  0.00    -0.298 NA
ATOM      5  C   UNL     1       9.108  -1.168  -2.626  0.00  0.00    +0.085 C 
ATOM      6  C   UNL     1       7.794  -3.200  -2.837  0.00  0.00    +0.105 C 
ENDROOT
BRANCH   3   7
ATOM      7  C   UNL     1       6.088  -0.460  -4.137  0.00  0.00    -0.012 A 
ATOM      8  C   UNL     1       6.272  -1.078  -5.360  0.00  0.00    +0.115 A 
ATOM      9  N   UNL     1       5.714  -0.594  -6.452  0.00  0.00    -0.263 NA
ATOM     10  C   UNL     1       4.963   0.490  -6.424  0.00  0.00    +0.111 A 
ATOM     11  C   UNL     1       4.733   1.161  -5.238  0.00  0.00    +0.020 A 
ATOM     12  C   UNL     1       5.300   0.678  -4.068  0.00  0.00    +0.008 A 
ENDBRANCH   3   7
TORSDOF 1
ENDMDL
