MODEL 1
REMARK VINA RESULT:    -4.852      0.000      0.000
REMARK INTER + INTRA:          -5.344
REMARK INTER:                  -5.136
REMARK INTRA:                  -0.208
REMARK UNBOUND:                -0.208
REMARK  Name = Nicotine.pdb
REMARK  2 active torsions:
REMARK  status: ('A' for Active; 'I' for Inactive)
REMARK    1  A    between atoms: C_3  and  C_6
REMARK    2  A    between atoms: N_4  and  C_12
REMARK                            x       y       z     vdW  Elec       q    Type
REMARK                         _______ _______ _______ _____ _____    ______ ____
ROOT
ATOM      1  C   UNL     1       1.536  -0.457   2.495  0.00  0.00    +0.017 C 
ATOM      2  C   UNL     1       2.803   0.279   3.003  0.00  0.00    +0.025 C 
ATOM      3  C   UNL     1       2.563   0.373   4.525  0.00  0.00    +0.088 C 
ATOM      4  N   UNL     1       1.110   0.253   4.746  0.00  0.00    -0.298 NA
ATOM      5  C   UNL     1       0.444   0.115   3.434  0.00  0.00    +0.085 C 
ATOM      6  C   UNL     1       0.803  -0.890   5.616  0.00  0.00    +0.105 C 
ENDROOT
BRANCH   3   7
ATOM      7  C   UNL     1       3.053   1.702   5.040  0.00  0.00    -0.012 A 
ATOM      8  C   UNL     1       4.341   2.124   4.771  0.00  0.00    +0.115 A 
ATOM      9  N   UNL     1       4.777   3.285   5.218  0.00  0.00    -0.263 NA
ATOM     10  C   UNL     1       4.012   4.085   5.934  0.00  0.00    +0.111 A 
ATOM     11  C   UNL     1       2.712   3.729   6.243  0.00  0.00    +0.020 A 
ATOM     12  C   UNL     1       2.216   2.518   5.786  0.00  0.00    +0.008 A 
ENDBRANCH   3   7
TORSDOF 1
ENDMDL
MODEL 2
REMARK VINA RESULT:    -4.030      1.362      2.202
REMARK INTER + INTRA:          -4.473
REMARK INTER:                  -4.274
REMARK INTRA:                  -0.200
REMARK UNBOUND:                -0.208
REMARK  Name = Nicotine.pdb
REMARK  2 active torsions:
REMARK  status: ('A' for Active; 'I' for Inactive)
REMARK    1  A    between atoms: C_3  and  C_6
REMARK    2  A    between atoms: N_4  and  C_12
REMARK                            x       y       z     vdW  Elec       q    Type
REMARK                         _______ _______ _______ _____ _____    ______ ____
ROOT
ATOM      1  C   UNL     1       0.081  -2.020   4.196  0.00  0.00    +0.017 C 
ATOM      2  C   UNL     1       0.661  -1.078   5.283  0.00  0.00    +0.025 C 
ATOM      3  C   UNL     1       0.721   0.286   4.564  0.00  0.00    +0.088 C 
ATOM      4  N   UNL     1       0.745   0.016   3.115  0.00  0.00    -0.298 NA
ATOM      5  C   UNL     1       0.727  -1.448   2.909  0.00  0.00    +0.085 C 
ATOM      6  C   UNL     1      -0.392   0.656   2.441  0.00  0.00    +0.105 C 
ENDROOT
BRANCH   3   7
ATOM      7  C   UNL     1       1.970   1.025   4.969  0.00  0.00    -0.012 A 
ATOM      8  C   UNL     1       3.190   0.374   4.995  0.00  0.00    +0.115 A 
ATOM      9  N   UNL     1       4.288   1.013   5.348  0.00  0.00    -0.263 NA
ATOM     10  C   UNL     1       4.269   2.287   5.690  0.00  0.00    +0.111 A 
ATOM     11  C   UNL     1       3.087   3.003   5.687  0.00  0.00    +0.020 A 
ATOM     12  C   UNL     1       1.913   2.366   5.316  0.00  0.00    +0.008 A 
ENDBRANCH   3   7
TORSDOF 1
ENDMDL
MODEL 3
REMARK VINA RESULT:    -3.698      1.775      4.877
REMARK INTER + INTRA:          -4.122
REMARK INTER:                  -3.922
REMARK INTRA:                  -0.200
REMARK UNBOUND:                -0.208
REMARK  Name = Nicotine.pdb
REMARK  2 active torsions:
REMARK  status: ('A' for Active; 'I' for Inactive)
REMARK    1  A    between atoms: C_3  and  C_6
REMARK    2  A    between atoms: N_4  and  C_12
REMARK                            x       y       z     vdW  Elec       q    Type
REMARK                         _______ _______ _______ _____ _____    ______ ____
ROOT
ATOM      1  C   UNL     1       3.819   1.030   3.743  0.00  0.00    +0.017 C 
ATOM      2  C   UNL     1       2.552   0.284   3.248  0.00  0.00    +0.025 C 
ATOM      3  C   UNL     1       1.571   0.443   4.430  0.00  0.00    +0.088 C 
ATOM      4  N   UNL     1       2.378   0.711   5.634  0.00  0.00    -0.298 NA
ATOM      5  C   UNL     1       3.807   0.698   5.256  0.00  0.00    +0.085 C 
ATOM      6  C   UNL     1       2.005   1.994   6.244  0.00  0.00    +0.105 C 
ENDROOT
BRANCH   3   7
ATOM      7  C   UNL     1       0.778  -0.825   4.613  0.00  0.00    -0.012 A 
ATOM      8  C   UNL     1       0.209  -1.456   3.523  0.00  0.00    +0.115 A 
ATOM      9  N   UNL     1      -0.487  -2.566   3.675  0.00  0.00    -0.263 NA
ATOM     10  C   UNL     1      -0.667  -3.115   4.860  0.00  0.00    +0.111 A 
ATOM     11  C   UNL     1      -0.126  -2.541   5.995  0.00  0.00    +0.020 A 
ATOM     12  C   UNL     1       0.615  -1.376   5.874  0.00  0.00    +0.008 A 
ENDBRANCH   3   7
TORSDOF 1
ENDMDL
MODEL 4
REMARK VINA RESULT:    -2.869      2.184      3.574
REMARK INTER + INTRA:          -3.245
REMARK INTER:                  -3.045
REMARK INTRA:                  -0.200
REMARK UNBOUND:                -0.208
REMARK  Name = Nicotine.pdb
REMARK  2 active torsions:
REMARK  status: ('A' for Active; 'I' for Inactive)
REMARK    1  A    between atoms: C_3  and  C_6
REMARK    2  A    between atoms: N_4  and  C_12
REMARK                            x       y       z     vdW  Elec       q    Type
REMARK                         _______ _______ _______ _____ _____    ______ ____
ROOT
ATOM      1  C   UNL     1       1.936   2.718   5.856  0.00  0.00    +0.017 C 
ATOM      2  C   UNL     1       3.242   3.458   5.462  0.00  0.00    +0.025 C 
ATOM      3  C   UNL     1       4.029   2.382   4.684  0.00  0.00    +0.088 C 
ATOM      4  N   UNL     1       3.508   1.069   5.106  0.00  0.00    -0.298 NA
ATOM      5  C   UNL     1       2.457   1.284   6.123  0.00  0.00    +0.085 C 
ATOM      6  C   UNL     1       2.985   0.317   3.958  0.00  0.00    +0.105 C 
ENDROOT
BRANCH   3   7
ATOM      7  C   UNL     1       5.496   2.483   5.013  0.00  0.00    -0.012 A 
ATOM      8  C   UNL     1       6.297   3.401   4.362  0.00  0.00    +0.115 A 
ATOM      9  N   UNL     1       7.582   3.496   4.643  0.00  0.00    -0.263 NA
ATOM     10  C   UNL     1       8.151   2.725   5.549  0.00  0.00    +0.111 A 
ATOM     11  C   UNL     1       7.413   1.784   6.242  0.00  0.00    +0.020 A 
ATOM     12  C   UNL     1       6.059   1.659   5.977  0.00  0.00    +0.008 A 
ENDBRANCH   3   7
TORSDOF 1
ENDMDL
MODEL 5
REMARK VINA RESULT:    -2.451      1.397      4.553
REMARK INTER + INTRA:          -2.802
REMARK INTER:                  -2.548
REMARK INTRA:                  -0.254
REMARK UNBOUND:                -0.208
REMARK  Name = Nicotine.pdb
REMARK  2 active torsions:
REMARK  status: ('A' for Active; 'I' for Inactive)
REMARK    1  A    between atoms: C_3  and  C_6
REMARK    2  A    between atoms: N_4  and  C_12
REMARK                            x       y       z     vdW  Elec       q    Type
REMARK                         _______ _______ _______ _____ _____    ______ ____
ROOT
ATOM      1  C   UNL     1       5.976   2.622   6.244  0.00  0.00    +0.017 C 
ATOM      2  C   UNL     1       5.200   1.281   6.159  0.00  0.00    +0.025 C 
ATOM      3  C   UNL     1       4.603   1.315   4.736  0.00  0.00    +0.088 C 
ATOM      4  N   UNL     1       4.550   2.727   4.318  0.00  0.00    -0.298 NA
ATOM      5  C   UNL     1       5.062   3.566   5.424  0.00  0.00    +0.085 C 
ATOM      6  C   UNL     1       5.327   2.943   3.091  0.00  0.00    +0.105 C 
ENDROOT
BRANCH   3   7
ATOM      7  C   UNL     1       3.215   0.730   4.749  0.00  0.00    -0.012 A 
ATOM      8  C   UNL     1       2.585   0.401   3.564  0.00  0.00    +0.115 A 
ATOM      9  N   UNL     1       1.369  -0.112   3.566  0.00  0.00    -0.263 NA
ATOM     10  C   UNL     1       0.711  -0.329   4.687  0.00  0.00    +0.111 A 
ATOM     11  C   UNL     1       1.277  -0.025   5.911  0.00  0.00    +0.020 A 
ATOM     12  C   UNL     1       2.556   0.510   5.949  0.00  0.00    +0.008 A 
ENDBRANCH   3   7
TORSDOF 1
ENDMDL
