MODEL 1
REMARK VINA RESULT:    -4.813      0.000      0.000
REMARK INTER + INTRA:          -5.310
REMARK INTER:                  -5.094
REMARK INTRA:                  -0.216
REMARK UNBOUND:                -0.216
REMARK  Name = Nicotine.pdb
REMARK  2 active torsions:
REMARK  status: ('A' for Active; 'I' for Inactive)
REMARK    1  A    between atoms: C_3  and  C_6
REMARK    2  A    between atoms: N_4  and  C_12
REMARK                            x       y       z     vdW  Elec       q    Type
REMARK                         _______ _______ _______ _____ _____    ______ ____
ROOT
ATOM      1  C   UNL     1       0.755  -4.588   3.507  0.00  0.00    +0.017 C 
ATOM      2  C   UNL     1       1.098  -3.730   2.260  0.00  0.00    +0.025 C 
ATOM      3  C   UNL     1      -0.283  -3.213   1.804  0.00  0.00    +0.088 C 
ATOM      4  N   UNL     1      -1.297  -4.135   2.348  0.00  0.00    -0.298 NA
ATOM      5  C   UNL     1      -0.605  -5.207   3.096  0.00  0.00    +0.085 C 
ATOM      6  C   UNL     1      -2.249  -3.422   3.209  0.00  0.00    +0.105 C 
ENDROOT
BRANCH   3   7
ATOM      7  C   UNL     1      -0.355  -3.203   0.299  0.00  0.00    -0.012 A 
ATOM      8  C   UNL     1      -0.589  -2.022  -0.382  0.00  0.00    +0.115 A 
ATOM      9  N   UNL     1      -0.652  -2.004  -1.699  0.00  0.00    -0.263 NA
ATOM     10  C   UNL     1      -0.498  -3.100  -2.415  0.00  0.00    +0.111 A 
ATOM     11  C   UNL     1      -0.260  -4.317  -1.805  0.00  0.00    +0.020 A 
ATOM     12  C   UNL     1      -0.181  -4.374  -0.422  0.00  0.00    +0.008 A 
ENDBRANCH   3   7
TORSDOF 1
ENDMDL
MODEL 2
REMARK VINA RESULT:    -4.771      0.936      1.438
REMARK INTER + INTRA:          -5.266
REMARK INTER:                  -5.085
REMARK INTRA:                  -0.181
REMARK UNBOUND:                -0.216
REMARK  Name = Nicotine.pdb
REMARK  2 active torsions:
REMARK  status: ('A' for Active; 'I' for Inactive)
REMARK    1  A    between atoms: C_3  and  C_6
REMARK    2  A    between atoms: N_4  and  C_12
REMARK                            x       y       z     vdW  Elec       q    Type
REMARK                         _______ _______ _______ _____ _____    ______ ____
ROOT
ATOM      1  C   UNL     1       0.280  -5.006   3.814  0.00  0.00    +0.017 C 
ATOM      2  C   UNL     1       0.832  -4.217   2.598  0.00  0.00    +0.025 C 
ATOM      3  C   UNL     1      -0.412  -3.465   2.079  0.00  0.00    +0.088 C 
ATOM      4  N   UNL     1      -1.597  -4.197   2.560  0.00  0.00    -0.298 NA
ATOM      5  C   UNL     1      -1.143  -5.376   3.327  0.00  0.00    +0.085 C 
ATOM      6  C   UNL     1      -2.454  -3.332   3.381  0.00  0.00    +0.105 C 
ENDROOT
BRANCH   3   7
ATOM      7  C   UNL     1      -0.401  -3.435   0.573  0.00  0.00    -0.012 A 
ATOM      8  C   UNL     1      -0.392  -4.613  -0.150  0.00  0.00    +0.115 A 
ATOM      9  N   UNL     1      -0.383  -4.596  -1.468  0.00  0.00    -0.263 NA
ATOM     10  C   UNL     1      -0.382  -3.466  -2.147  0.00  0.00    +0.111 A 
ATOM     11  C   UNL     1      -0.392  -2.248  -1.493  0.00  0.00    +0.020 A 
ATOM     12  C   UNL     1      -0.407  -2.226  -0.107  0.00  0.00    +0.008 A 
ENDBRANCH   3   7
TORSDOF 1
ENDMDL
MODEL 3
REMARK VINA RESULT:    -3.618      1.402      4.602
REMARK INTER + INTRA:          -4.045
REMARK INTER:                  -3.834
REMARK INTRA:                  -0.211
REMARK UNBOUND:                -0.216
REMARK  Name = Nicotine.pdb
REMARK  2 active torsions:
REMARK  status: ('A' for Active; 'I' for Inactive)
REMARK    1  A    between atoms: C_3  and  C_6
REMARK    2  A    between atoms: N_4  and  C_12
REMARK                            x       y       z     vdW  Elec       q    Type
REMARK                         _______ _______ _______ _____ _____    ______ ____
ROOT
ATOM      1  C   UNL     1       0.457  -4.222  -2.410  0.00  0.00    +0.017 C 
ATOM      2  C   UNL     1      -0.168  -5.046  -1.253  0.00  0.00    +0.025 C 
ATOM      3  C   UNL     1      -0.551  -3.962  -0.223  0.00  0.00    +0.088 C 
ATOM      4  N   UNL     1       0.285  -2.780  -0.501  0.00  0.00    -0.298 NA
ATOM      5  C   UNL     1       1.181  -3.093  -1.635  0.00  0.00    +0.085 C 
ATOM      6  C   UNL     1      -0.544  -1.604  -0.794  0.00  0.00    +0.105 C 
ENDROOT
BRANCH   3   7
ATOM      7  C   UNL     1      -0.285  -4.463   1.172  0.00  0.00    -0.012 A 
ATOM      8  C   UNL     1      -0.855  -5.643   1.611  0.00  0.00    +0.115 A 
ATOM      9  N   UNL     1      -0.627  -6.090   2.831  0.00  0.00    -0.263 NA
ATOM     10  C   UNL     1       0.147  -5.436   3.675  0.00  0.00    +0.111 A 
ATOM     11  C   UNL     1       0.751  -4.249   3.306  0.00  0.00    +0.020 A 
ATOM     12  C   UNL     1       0.539  -3.751   2.030  0.00  0.00    +0.008 A 
ENDBRANCH   3   7
TORSDOF 1
ENDMDL
MODEL 4
REMARK VINA RESULT:    -3.039      1.420      4.307
REMARK INTER + INTRA:          -3.433
REMARK INTER:                  -3.219
REMARK INTRA:                  -0.214
REMARK UNBOUND:                -0.216
REMARK  Name = Nicotine.pdb
REMARK  2 active torsions:
REMARK  status: ('A' for Active; 'I' for Inactive)
REMARK    1  A    between atoms: C_3  and  C_6
REMARK    2  A    between atoms: N_4  and  C_12
REMARK                            x       y       z     vdW  Elec       q    Type
REMARK                         _______ _______ _______ _____ _____    ______ ____
ROOT
ATOM      1  C   UNL     1       0.564  -2.360  -1.749  0.00  0.00    +0.017 C 
ATOM      2  C   UNL     1       0.603  -2.299  -0.200  0.00  0.00    +0.025 C 
ATOM      3  C   UNL     1       0.247  -3.743   0.214  0.00  0.00    +0.088 C 
ATOM      4  N   UNL     1      -0.475  -4.355  -0.916  0.00  0.00    -0.298 NA
ATOM      5  C   UNL     1      -0.602  -3.351  -1.994  0.00  0.00    +0.085 C 
ATOM      6  C   UNL     1       0.218  -5.558  -1.395  0.00  0.00    +0.105 C 
ENDROOT
BRANCH   3   7
ATOM      7  C   UNL     1      -0.634  -3.723   1.436  0.00  0.00    -0.012 A 
ATOM      8  C   UNL     1      -1.215  -2.543   1.860  0.00  0.00    +0.115 A 
ATOM      9  N   UNL     1      -1.987  -2.517   2.929  0.00  0.00    -0.263 NA
ATOM     10  C   UNL     1      -2.234  -3.605   3.632  0.00  0.00    +0.111 A 
ATOM     11  C   UNL     1      -1.689  -4.822   3.268  0.00  0.00    +0.020 A 
ATOM     12  C   UNL     1      -0.876  -4.889   2.147  0.00  0.00    +0.008 A 
ENDBRANCH   3   7
TORSDOF 1
ENDMDL
MODEL 5
REMARK VINA RESULT:    -2.325      1.513      4.545
REMARK INTER + INTRA:          -2.677
REMARK INTER:                  -2.474
REMARK INTRA:                  -0.204
REMARK UNBOUND:                -0.216
REMARK  Name = Nicotine.pdb
REMARK  2 active torsions:
REMARK  status: ('A' for Active; 'I' for Inactive)
REMARK    1  A    between atoms: C_3  and  C_6
REMARK    2  A    between atoms: N_4  and  C_12
REMARK                            x       y       z     vdW  Elec       q    Type
REMARK                         _______ _______ _______ _____ _____    ______ ____
ROOT
ATOM      1  C   UNL     1       0.526  -3.932  -2.989  0.00  0.00    +0.017 C 
ATOM      2  C   UNL     1       0.938  -4.524  -1.616  0.00  0.00    +0.025 C 
ATOM      3  C   UNL     1      -0.369  -5.171  -1.111  0.00  0.00    +0.088 C 
ATOM      4  N   UNL     1      -1.483  -4.512  -1.816  0.00  0.00    -0.298 NA
ATOM      5  C   UNL     1      -0.927  -3.475  -2.710  0.00  0.00    +0.085 C 
ATOM      6  C   UNL     1      -2.280  -5.488  -2.571  0.00  0.00    +0.105 C 
ENDROOT
BRANCH   3   7
ATOM      7  C   UNL     1      -0.504  -4.961   0.375  0.00  0.00    -0.012 A 
ATOM      8  C   UNL     1      -0.214  -3.733   0.937  0.00  0.00    +0.115 A 
ATOM      9  N   UNL     1      -0.330  -3.540   2.236  0.00  0.00    -0.263 NA
ATOM     10  C   UNL     1      -0.724  -4.502   3.047  0.00  0.00    +0.111 A 
ATOM     11  C   UNL     1      -1.032  -5.758   2.557  0.00  0.00    +0.020 A 
ATOM     12  C   UNL     1      -0.927  -5.996   1.195  0.00  0.00    +0.008 A 
ENDBRANCH   3   7
TORSDOF 1
ENDMDL
MODEL 6
REMARK VINA RESULT:    -1.893      1.474      4.487
REMARK INTER + INTRA:          -2.219
REMARK INTER:                  -1.967
REMARK INTRA:                  -0.252
REMARK UNBOUND:                -0.216
REMARK  Name = Nicotine.pdb
REMARK  2 active torsions:
REMARK  status: ('A' for Active; 'I' for Inactive)
REMARK    1  A    between atoms: C_3  and  C_6
REMARK    2  A    between atoms: N_4  and  C_12
REMARK                            x       y       z     vdW  Elec       q    Type
REMARK                         _______ _______ _______ _____ _____    ______ ____
ROOT
ATOM      1  C   UNL     1       0.955  -2.954  -2.091  0.00  0.00    +0.017 C 
ATOM      2  C   UNL     1       0.947  -2.736  -0.555  0.00  0.00    +0.025 C 
ATOM      3  C   UNL     1       0.508  -4.112  -0.012  0.00  0.00    +0.088 C 
ATOM      4  N   UNL     1      -0.205  -4.805  -1.101  0.00  0.00    -0.298 NA
ATOM      5  C   UNL     1      -0.248  -3.912  -2.278  0.00  0.00    +0.085 C 
ATOM      6  C   UNL     1       0.445  -6.079  -1.430  0.00  0.00    +0.105 C 
ENDROOT
BRANCH   3   7
ATOM      7  C   UNL     1      -0.410  -3.928   1.168  0.00  0.00    -0.012 A 
ATOM      8  C   UNL     1      -0.761  -5.009   1.956  0.00  0.00    +0.115 A 
ATOM      9  N   UNL     1      -1.564  -4.856   2.991  0.00  0.00    -0.263 NA
ATOM     10  C   UNL     1      -2.062  -3.679   3.315  0.00  0.00    +0.111 A 
ATOM     11  C   UNL     1      -1.755  -2.553   2.574  0.00  0.00    +0.020 A 
ATOM     12  C   UNL     1      -0.909  -2.673   1.482  0.00  0.00    +0.008 A 
ENDBRANCH   3   7
TORSDOF 1
ENDMDL
