MODEL 1
REMARK VINA RESULT:    -3.509      0.000      0.000
REMARK INTER + INTRA:          -3.962
REMARK INTER:                  -3.714
REMARK INTRA:                  -0.248
REMARK UNBOUND:                -0.248
REMARK  Name = Nicotine.pdb
REMARK  2 active torsions:
REMARK  status: ('A' for Active; 'I' for Inactive)
REMARK    1  A    between atoms: C_3  and  C_6
REMARK    2  A    between atoms: N_4  and  C_12
REMARK                            x       y       z     vdW  Elec       q    Type
REMARK                         _______ _______ _______ _____ _____    ______ ____
ROOT
ATOM      1  C   UNL     1       5.560   4.925  -4.995  0.00  0.00    +0.017 C 
ATOM      2  C   UNL     1       6.846   4.747  -4.146  0.00  0.00    +0.025 C 
ATOM      3  C   UNL     1       6.649   3.355  -3.507  0.00  0.00    +0.088 C 
ATOM      4  N   UNL     1       5.203   3.070  -3.517  0.00  0.00    -0.298 NA
ATOM      5  C   UNL     1       4.499   4.229  -4.107  0.00  0.00    +0.085 C 
ATOM      6  C   UNL     1       4.913   1.840  -4.265  0.00  0.00    +0.105 C 
ENDROOT
BRANCH   3   7
ATOM      7  C   UNL     1       7.161   3.365  -2.090  0.00  0.00    -0.012 A 
ATOM      8  C   UNL     1       7.213   2.194  -1.357  0.00  0.00    +0.115 A 
ATOM      9  N   UNL     1       7.660   2.194  -0.116  0.00  0.00    -0.263 NA
ATOM     10  C   UNL     1       8.072   3.299   0.472  0.00  0.00    +0.111 A 
ATOM     11  C   UNL     1       8.051   4.508  -0.198  0.00  0.00    +0.020 A 
ATOM     12  C   UNL     1       7.592   4.547  -1.506  0.00  0.00    +0.008 A 
ENDBRANCH   3   7
TORSDOF 1
ENDMDL
MODEL 2
REMARK VINA RESULT:    -3.508      1.464      1.871
REMARK INTER + INTRA:          -3.961
REMARK INTER:                  -3.742
REMARK INTRA:                  -0.219
REMARK UNBOUND:                -0.248
REMARK  Name = Nicotine.pdb
REMARK  2 active torsions:
REMARK  status: ('A' for Active; 'I' for Inactive)
REMARK    1  A    between atoms: C_3  and  C_6
REMARK    2  A    between atoms: N_4  and  C_12
REMARK                            x       y       z     vdW  Elec       q    Type
REMARK                         _______ _______ _______ _____ _____    ______ ____
ROOT
ATOM      1  C   UNL     1       6.456   4.418  -3.936  0.00  0.00    +0.017 C 
ATOM      2  C   UNL     1       7.332   3.789  -2.820  0.00  0.00    +0.025 C 
ATOM      3  C   UNL     1       6.801   2.342  -2.736  0.00  0.00    +0.088 C 
ATOM      4  N   UNL     1       5.435   2.345  -3.291  0.00  0.00    -0.298 NA
ATOM      5  C   UNL     1       5.091   3.727  -3.689  0.00  0.00    +0.085 C 
ATOM      6  C   UNL     1       5.327   1.426  -4.431  0.00  0.00    +0.105 C 
ENDROOT
BRANCH   3   7
ATOM      7  C   UNL     1       6.771   1.890  -1.299  0.00  0.00    -0.012 A 
ATOM      8  C   UNL     1       6.003   0.804  -0.924  0.00  0.00    +0.115 A 
ATOM      9  N   UNL     1       5.972   0.401   0.332  0.00  0.00    -0.263 NA
ATOM     10  C   UNL     1       6.663   1.013   1.273  0.00  0.00    +0.111 A 
ATOM     11  C   UNL     1       7.454   2.107   0.973  0.00  0.00    +0.020 A 
ATOM     12  C   UNL     1       7.516   2.555  -0.337  0.00  0.00    +0.008 A 
ENDBRANCH   3   7
TORSDOF 1
ENDMDL
MODEL 3
REMARK VINA RESULT:    -3.441      1.457      4.657
REMARK INTER + INTRA:          -3.890
REMARK INTER:                  -3.699
REMARK INTRA:                  -0.192
REMARK UNBOUND:                -0.248
REMARK  Name = Nicotine.pdb
REMARK  2 active torsions:
REMARK  status: ('A' for Active; 'I' for Inactive)
REMARK    1  A    between atoms: C_3  and  C_6
REMARK    2  A    between atoms: N_4  and  C_12
REMARK                            x       y       z     vdW  Elec       q    Type
REMARK                         _______ _______ _______ _____ _____    ______ ____
ROOT
ATOM      1  C   UNL     1       6.989   0.712   0.381  0.00  0.00    +0.017 C 
ATOM      2  C   UNL     1       6.084   0.646  -0.877  0.00  0.00    +0.025 C 
ATOM      3  C   UNL     1       6.880   1.457  -1.921  0.00  0.00    +0.088 C 
ATOM      4  N   UNL     1       7.792   2.347  -1.181  0.00  0.00    -0.298 NA
ATOM      5  C   UNL     1       7.577   2.141   0.268  0.00  0.00    +0.085 C 
ATOM      6  C   UNL     1       9.191   2.091  -1.548  0.00  0.00    +0.105 C 
ENDROOT
BRANCH   3   7
ATOM      7  C   UNL     1       5.936   2.274  -2.764  0.00  0.00    -0.012 A 
ATOM      8  C   UNL     1       4.712   1.757  -3.145  0.00  0.00    +0.115 A 
ATOM      9  N   UNL     1       3.880   2.466  -3.883  0.00  0.00    -0.263 NA
ATOM     10  C   UNL     1       4.177   3.686  -4.284  0.00  0.00    +0.111 A 
ATOM     11  C   UNL     1       5.383   4.270  -3.941  0.00  0.00    +0.020 A 
ATOM     12  C   UNL     1       6.281   3.557  -3.162  0.00  0.00    +0.008 A 
ENDBRANCH   3   7
TORSDOF 1
ENDMDL
MODEL 4
REMARK VINA RESULT:    -3.332      2.174      5.008
REMARK INTER + INTRA:          -3.774
REMARK INTER:                  -3.548
REMARK INTRA:                  -0.226
REMARK UNBOUND:                -0.248
REMARK  Name = Nicotine.pdb
REMARK  2 active torsions:
REMARK  status: ('A' for Active; 'I' for Inactive)
REMARK    1  A    between atoms: C_3  and  C_6
REMARK    2  A    between atoms: N_4  and  C_12
REMARK                            x       y       z     vdW  Elec       q    Type
REMARK                         _______ _______ _______ _____ _____    ______ ____
ROOT
ATOM      1  C   UNL     1       7.570   0.308   2.107  0.00  0.00    +0.017 C 
ATOM      2  C   UNL     1       6.603   1.085   1.175  0.00  0.00    +0.025 C 
ATOM      3  C   UNL     1       7.090   0.694  -0.236  0.00  0.00    +0.088 C 
ATOM      4  N   UNL     1       8.491   0.252  -0.108  0.00  0.00    -0.298 NA
ATOM      5  C   UNL     1       8.896   0.377   1.309  0.00  0.00    +0.085 C 
ATOM      6  C   UNL     1       8.654  -1.128  -0.583  0.00  0.00    +0.105 C 
ENDROOT
BRANCH   3   7
ATOM      7  C   UNL     1       7.009   1.885  -1.155  0.00  0.00    -0.012 A 
ATOM      8  C   UNL     1       6.310   1.803  -2.345  0.00  0.00    +0.115 A 
ATOM      9  N   UNL     1       6.234   2.841  -3.155  0.00  0.00    -0.263 NA
ATOM     10  C   UNL     1       6.815   3.988  -2.868  0.00  0.00    +0.111 A 
ATOM     11  C   UNL     1       7.531   4.145  -1.695  0.00  0.00    +0.020 A 
ATOM     12  C   UNL     1       7.628   3.078  -0.816  0.00  0.00    +0.008 A 
ENDBRANCH   3   7
TORSDOF 1
ENDMDL
MODEL 5
REMARK VINA RESULT:    -3.327      1.391      4.930
REMARK INTER + INTRA:          -3.770
REMARK INTER:                  -3.555
REMARK INTRA:                  -0.215
REMARK UNBOUND:                -0.248
REMARK  Name = Nicotine.pdb
REMARK  2 active torsions:
REMARK  status: ('A' for Active; 'I' for Inactive)
REMARK    1  A    between atoms: C_3  and  C_6
REMARK    2  A    between atoms: N_4  and  C_12
REMARK                            x       y       z     vdW  Elec       q    Type
REMARK                         _______ _______ _______ _____ _____    ______ ____
ROOT
ATOM      1  C   UNL     1       7.210   1.165   1.343  0.00  0.00    +0.017 C 
ATOM      2  C   UNL     1       6.568   0.823  -0.028  0.00  0.00    +0.025 C 
ATOM      3  C   UNL     1       7.393   1.671  -1.019  0.00  0.00    +0.088 C 
ATOM      4  N   UNL     1       7.997   2.775  -0.252  0.00  0.00    -0.298 NA
ATOM      5  C   UNL     1       7.564   2.661   1.157  0.00  0.00    +0.085 C 
ATOM      6  C   UNL     1       9.462   2.749  -0.357  0.00  0.00    +0.105 C 
ENDROOT
BRANCH   3   7
ATOM      7  C   UNL     1       6.492   2.224  -2.093  0.00  0.00    -0.012 A 
ATOM      8  C   UNL     1       6.768   3.446  -2.675  0.00  0.00    +0.115 A 
ATOM      9  N   UNL     1       5.986   3.938  -3.616  0.00  0.00    -0.263 NA
ATOM     10  C   UNL     1       4.917   3.290  -4.037  0.00  0.00    +0.111 A 
ATOM     11  C   UNL     1       4.578   2.062  -3.501  0.00  0.00    +0.020 A 
ATOM     12  C   UNL     1       5.380   1.511  -2.514  0.00  0.00    +0.008 A 
ENDBRANCH   3   7
TORSDOF 1
ENDMDL
MODEL 6
REMARK VINA RESULT:    -3.254      2.203      3.982
REMARK INTER + INTRA:          -3.693
REMARK INTER:                  -3.474
REMARK INTRA:                  -0.219
REMARK UNBOUND:                -0.248
REMARK  Name = Nicotine.pdb
REMARK  2 active torsions:
REMARK  status: ('A' for Active; 'I' for Inactive)
REMARK    1  A    between atoms: C_3  and  C_6
REMARK    2  A    between atoms: N_4  and  C_12
REMARK                            x       y       z     vdW  Elec       q    Type
REMARK                         _______ _______ _______ _____ _____    ______ ____
ROOT
ATOM      1  C   UNL     1       9.604   4.989  -1.103  0.00  0.00    +0.017 C 
ATOM      2  C   UNL     1       9.905   3.585  -0.515  0.00  0.00    +0.025 C 
ATOM      3  C   UNL     1       8.632   2.784  -0.862  0.00  0.00    +0.088 C 
ATOM      4  N   UNL     1       7.546   3.758  -1.071  0.00  0.00    -0.298 NA
ATOM      5  C   UNL     1       8.082   5.117  -0.845  0.00  0.00    +0.085 C 
ATOM      6  C   UNL     1       6.978   3.633  -2.420  0.00  0.00    +0.105 C 
ENDROOT
BRANCH   3   7
ATOM      7  C   UNL     1       8.282   1.860   0.275  0.00  0.00    -0.012 A 
ATOM      8  C   UNL     1       6.979   1.768   0.726  0.00  0.00    +0.115 A 
ATOM      9  N   UNL     1       6.664   0.962   1.720  0.00  0.00    -0.263 NA
ATOM     10  C   UNL     1       7.570   0.216   2.322  0.00  0.00    +0.111 A 
ATOM     11  C   UNL     1       8.894   0.254   1.925  0.00  0.00    +0.020 A 
ATOM     12  C   UNL     1       9.261   1.086   0.879  0.00  0.00    +0.008 A 
ENDBRANCH   3   7
TORSDOF 1
ENDMDL
MODEL 7
REMARK VINA RESULT:    -3.183      2.294      3.638
REMARK INTER + INTRA:          -3.617
REMARK INTER:                  -3.367
REMARK INTRA:                  -0.251
REMARK UNBOUND:                -0.248
REMARK  Name = Nicotine.pdb
REMARK  2 active torsions:
REMARK  status: ('A' for Active; 'I' for Inactive)
REMARK    1  A    between atoms: C_3  and  C_6
REMARK    2  A    between atoms: N_4  and  C_12
REMARK                            x       y       z     vdW  Elec       q    Type
REMARK                         _______ _______ _______ _____ _____    ______ ____
ROOT
ATOM      1  C   UNL     1       8.108   4.562  -3.584  0.00  0.00    +0.017 C 
ATOM      2  C   UNL     1       7.072   4.162  -2.500  0.00  0.00    +0.025 C 
ATOM      3  C   UNL     1       7.944   3.968  -1.241  0.00  0.00    +0.088 C 
ATOM      4  N   UNL     1       9.320   3.707  -1.699  0.00  0.00    -0.298 NA
ATOM      5  C   UNL     1       9.333   3.705  -3.177  0.00  0.00    +0.085 C 
ATOM      6  C   UNL     1      10.253   4.708  -1.166  0.00  0.00    +0.105 C 
ENDROOT
BRANCH   3   7
ATOM      7  C   UNL     1       7.437   2.796  -0.441  0.00  0.00    -0.012 A 
ATOM      8  C   UNL     1       7.434   2.842   0.940  0.00  0.00    +0.115 A 
ATOM      9  N   UNL     1       6.991   1.820   1.648  0.00  0.00    -0.263 NA
ATOM     10  C   UNL     1       6.538   0.724   1.073  0.00  0.00    +0.111 A 
ATOM     11  C   UNL     1       6.510   0.606  -0.304  0.00  0.00    +0.020 A 
ATOM     12  C   UNL     1       6.962   1.662  -1.081  0.00  0.00    +0.008 A 
ENDBRANCH   3   7
TORSDOF 1
ENDMDL
MODEL 8
REMARK VINA RESULT:    -3.077      1.538      4.264
REMARK INTER + INTRA:          -3.504
REMARK INTER:                  -3.248
REMARK INTRA:                  -0.256
REMARK UNBOUND:                -0.248
REMARK  Name = Nicotine.pdb
REMARK  2 active torsions:
REMARK  status: ('A' for Active; 'I' for Inactive)
REMARK    1  A    between atoms: C_3  and  C_6
REMARK    2  A    between atoms: N_4  and  C_12
REMARK                            x       y       z     vdW  Elec       q    Type
REMARK                         _______ _______ _______ _____ _____    ______ ____
ROOT
ATOM      1  C   UNL     1       9.396   4.402  -0.872  0.00  0.00    +0.017 C 
ATOM      2  C   UNL     1       7.855   4.382  -1.052  0.00  0.00    +0.025 C 
ATOM      3  C   UNL     1       7.569   2.913  -1.431  0.00  0.00    +0.088 C 
ATOM      4  N   UNL     1       8.819   2.350  -1.972  0.00  0.00    -0.298 NA
ATOM      5  C   UNL     1       9.852   3.408  -1.969  0.00  0.00    +0.085 C 
ATOM      6  C   UNL     1       9.254   1.185  -1.191  0.00  0.00    +0.105 C 
ENDROOT
BRANCH   3   7
ATOM      7  C   UNL     1       6.484   2.855  -2.474  0.00  0.00    -0.012 A 
ATOM      8  C   UNL     1       5.754   1.696  -2.660  0.00  0.00    +0.115 A 
ATOM      9  N   UNL     1       4.802   1.637  -3.571  0.00  0.00    -0.263 NA
ATOM     10  C   UNL     1       4.510   2.670  -4.336  0.00  0.00    +0.111 A 
ATOM     11  C   UNL     1       5.198   3.862  -4.208  0.00  0.00    +0.020 A 
ATOM     12  C   UNL     1       6.201   3.964  -3.257  0.00  0.00    +0.008 A 
ENDBRANCH   3   7
TORSDOF 1
ENDMDL
MODEL 9
REMARK VINA RESULT:    -3.075      2.726      4.394
REMARK INTER + INTRA:          -3.503
REMARK INTER:                  -3.293
REMARK INTRA:                  -0.210
REMARK UNBOUND:                -0.248
REMARK  Name = Nicotine.pdb
REMARK  2 active torsions:
REMARK  status: ('A' for Active; 'I' for Inactive)
REMARK    1  A    between atoms: C_3  and  C_6
REMARK    2  A    between atoms: N_4  and  C_12
REMARK                            x       y       z     vdW  Elec       q    Type
REMARK                         _______ _______ _______ _____ _____    ______ ____
ROOT
ATOM      1  C   UNL     1       6.345   2.026  -2.480  0.00  0.00    +0.017 C 
ATOM      2  C   UNL     1       6.261   1.023  -1.299  0.00  0.00    +0.025 C 
ATOM      3  C   UNL     1       7.108   1.705  -0.204  0.00  0.00    +0.088 C 
ATOM      4  N   UNL     1       8.020   2.646  -0.879  0.00  0.00    -0.298 NA
ATOM      5  C   UNL     1       7.793   2.557  -2.337  0.00  0.00    +0.085 C 
ATOM      6  C   UNL     1       7.815   4.018  -0.396  0.00  0.00    +0.105 C 
ENDROOT
BRANCH   3   7
ATOM      7  C   UNL     1       7.903   0.670   0.549  0.00  0.00    -0.012 A 
ATOM      8  C   UNL     1       8.461  -0.404  -0.118  0.00  0.00    +0.115 A 
ATOM      9  N   UNL     1       9.157  -1.315   0.534  0.00  0.00    -0.263 NA
ATOM     10  C   UNL     1       9.349  -1.240   1.836  0.00  0.00    +0.111 A 
ATOM     11  C   UNL     1       8.822  -0.194   2.570  0.00  0.00    +0.020 A 
ATOM     12  C   UNL     1       8.088   0.785   1.919  0.00  0.00    +0.008 A 
ENDBRANCH   3   7
TORSDOF 1
ENDMDL
MODEL 10
REMARK VINA RESULT:    -3.004      4.289      6.281
REMARK INTER + INTRA:          -3.428
REMARK INTER:                  -3.209
REMARK INTRA:                  -0.219
REMARK UNBOUND:                -0.248
REMARK  Name = Nicotine.pdb
REMARK  2 active torsions:
REMARK  status: ('A' for Active; 'I' for Inactive)
REMARK    1  A    between atoms: C_3  and  C_6
REMARK    2  A    between atoms: N_4  and  C_12
REMARK                            x       y       z     vdW  Elec       q    Type
REMARK                         _______ _______ _______ _____ _____    ______ ____
ROOT
ATOM      1  C   UNL     1       8.985   2.787   0.345  0.00  0.00    +0.017 C 
ATOM      2  C   UNL     1       9.955   1.671   0.815  0.00  0.00    +0.025 C 
ATOM      3  C   UNL     1       9.023   0.454   0.996  0.00  0.00    +0.088 C 
ATOM      4  N   UNL     1       7.657   0.975   1.185  0.00  0.00    -0.298 NA
ATOM      5  C   UNL     1       7.708   2.452   1.155  0.00  0.00    +0.085 C 
ATOM      6  C   UNL     1       6.748   0.457   0.155  0.00  0.00    +0.105 C 
ENDROOT
BRANCH   3   7
ATOM      7  C   UNL     1       9.443  -0.339   2.206  0.00  0.00    -0.012 A 
ATOM      8  C   UNL     1       9.793  -1.670   2.083  0.00  0.00    +0.115 A 
ATOM      9  N   UNL     1      10.162  -2.371   3.138  0.00  0.00    -0.263 NA
ATOM     10  C   UNL     1      10.213  -1.837   4.342  0.00  0.00    +0.111 A 
ATOM     11  C   UNL     1       9.878  -0.510   4.542  0.00  0.00    +0.020 A 
ATOM     12  C   UNL     1       9.490   0.259   3.456  0.00  0.00    +0.008 A 
ENDBRANCH   3   7
TORSDOF 1
ENDMDL
