MODEL 1
REMARK VINA RESULT:    -3.911      0.000      0.000
REMARK INTER + INTRA:          -4.347
REMARK INTER:                  -4.140
REMARK INTRA:                  -0.207
REMARK UNBOUND:                -0.207
REMARK  Name = Nicotine.pdb
REMARK  2 active torsions:
REMARK  status: ('A' for Active; 'I' for Inactive)
REMARK    1  A    between atoms: C_3  and  C_6
REMARK    2  A    between atoms: N_4  and  C_12
REMARK                            x       y       z     vdW  Elec       q    Type
REMARK                         _______ _______ _______ _____ _____    ______ ____
ROOT
ATOM      1  C   UNL     1      -0.817  -2.424  -0.565  0.00  0.00    +0.017 C 
ATOM      2  C   UNL     1      -0.985  -0.968  -1.072  0.00  0.00    +0.025 C 
ATOM      3  C   UNL     1      -2.469  -0.665  -0.774  0.00  0.00    +0.088 C 
ATOM      4  N   UNL     1      -3.167  -1.960  -0.677  0.00  0.00    -0.298 NA
ATOM      5  C   UNL     1      -2.191  -3.042  -0.925  0.00  0.00    +0.085 C 
ATOM      6  C   UNL     1      -3.805  -2.117   0.637  0.00  0.00    +0.105 C 
ENDROOT
BRANCH   3   7
ATOM      7  C   UNL     1      -3.059   0.154  -1.892  0.00  0.00    -0.012 A 
ATOM      8  C   UNL     1      -2.744  -0.127  -3.208  0.00  0.00    +0.115 A 
ATOM      9  N   UNL     1      -3.257   0.585  -4.192  0.00  0.00    -0.263 NA
ATOM     10  C   UNL     1      -4.083   1.587  -3.965  0.00  0.00    +0.111 A 
ATOM     11  C   UNL     1      -4.445   1.927  -2.674  0.00  0.00    +0.020 A 
ATOM     12  C   UNL     1      -3.930   1.197  -1.614  0.00  0.00    +0.008 A 
ENDBRANCH   3   7
TORSDOF 1
ENDMDL
MODEL 2
REMARK VINA RESULT:    -3.813      0.862      1.335
REMARK INTER + INTRA:          -4.243
REMARK INTER:                  -4.019
REMARK INTRA:                  -0.224
REMARK UNBOUND:                -0.207
REMARK  Name = Nicotine.pdb
REMARK  2 active torsions:
REMARK  status: ('A' for Active; 'I' for Inactive)
REMARK    1  A    between atoms: C_3  and  C_6
REMARK    2  A    between atoms: N_4  and  C_12
REMARK                            x       y       z     vdW  Elec       q    Type
REMARK                         _______ _______ _______ _____ _____    ______ ____
ROOT
ATOM      1  C   UNL     1      -1.063  -0.783   0.837  0.00  0.00    +0.017 C 
ATOM      2  C   UNL     1      -2.172   0.191   0.359  0.00  0.00    +0.025 C 
ATOM      3  C   UNL     1      -2.924  -0.635  -0.706  0.00  0.00    +0.088 C 
ATOM      4  N   UNL     1      -1.999  -1.681  -1.180  0.00  0.00    -0.298 NA
ATOM      5  C   UNL     1      -0.709  -1.523  -0.477  0.00  0.00    +0.085 C 
ATOM      6  C   UNL     1      -2.560  -3.020  -0.958  0.00  0.00    +0.105 C 
ENDROOT
BRANCH   3   7
ATOM      7  C   UNL     1      -3.326   0.253  -1.854  0.00  0.00    -0.012 A 
ATOM      8  C   UNL     1      -2.969  -0.072  -3.149  0.00  0.00    +0.115 A 
ATOM      9  N   UNL     1      -3.318   0.700  -4.160  0.00  0.00    -0.263 NA
ATOM     10  C   UNL     1      -4.014   1.805  -3.979  0.00  0.00    +0.111 A 
ATOM     11  C   UNL     1      -4.408   2.195  -2.713  0.00  0.00    +0.020 A 
ATOM     12  C   UNL     1      -4.064   1.405  -1.626  0.00  0.00    +0.008 A 
ENDBRANCH   3   7
TORSDOF 1
ENDMDL
MODEL 3
REMARK VINA RESULT:    -3.802      1.011      1.657
REMARK INTER + INTRA:          -4.231
REMARK INTER:                  -4.028
REMARK INTRA:                  -0.203
REMARK UNBOUND:                -0.207
REMARK  Name = Nicotine.pdb
REMARK  2 active torsions:
REMARK  status: ('A' for Active; 'I' for Inactive)
REMARK    1  A    between atoms: C_3  and  C_6
REMARK    2  A    between atoms: N_4  and  C_12
REMARK                            x       y       z     vdW  Elec       q    Type
REMARK                         _______ _______ _______ _____ _____    ______ ____
ROOT
ATOM      1  C   UNL     1      -2.881  -3.092  -0.239  0.00  0.00    +0.017 C 
ATOM      2  C   UNL     1      -3.094  -2.452  -1.637  0.00  0.00    +0.025 C 
ATOM      3  C   UNL     1      -2.251  -1.161  -1.560  0.00  0.00    +0.088 C 
ATOM      4  N   UNL     1      -2.087  -0.831  -0.133  0.00  0.00    -0.298 NA
ATOM      5  C   UNL     1      -2.810  -1.840   0.671  0.00  0.00    +0.085 C 
ATOM      6  C   UNL     1      -0.667  -0.781   0.238  0.00  0.00    +0.105 C 
ENDROOT
BRANCH   3   7
ATOM      7  C   UNL     1      -2.964  -0.040  -2.269  0.00  0.00    -0.012 A 
ATOM      8  C   UNL     1      -2.933   0.047  -3.648  0.00  0.00    +0.115 A 
ATOM      9  N   UNL     1      -3.555   1.026  -4.276  0.00  0.00    -0.263 NA
ATOM     10  C   UNL     1      -4.226   1.953  -3.623  0.00  0.00    +0.111 A 
ATOM     11  C   UNL     1      -4.302   1.931  -2.242  0.00  0.00    +0.020 A 
ATOM     12  C   UNL     1      -3.665   0.915  -1.547  0.00  0.00    +0.008 A 
ENDBRANCH   3   7
TORSDOF 1
ENDMDL
MODEL 4
REMARK VINA RESULT:    -3.700      1.368      4.439
REMARK INTER + INTRA:          -4.124
REMARK INTER:                  -3.911
REMARK INTRA:                  -0.212
REMARK UNBOUND:                -0.207
REMARK  Name = Nicotine.pdb
REMARK  2 active torsions:
REMARK  status: ('A' for Active; 'I' for Inactive)
REMARK    1  A    between atoms: C_3  and  C_6
REMARK    2  A    between atoms: N_4  and  C_12
REMARK                            x       y       z     vdW  Elec       q    Type
REMARK                         _______ _______ _______ _____ _____    ______ ____
ROOT
ATOM      1  C   UNL     1      -5.003  -0.197  -4.358  0.00  0.00    +0.017 C 
ATOM      2  C   UNL     1      -4.535  -1.383  -3.475  0.00  0.00    +0.025 C 
ATOM      3  C   UNL     1      -4.175  -0.701  -2.138  0.00  0.00    +0.088 C 
ATOM      4  N   UNL     1      -3.907   0.719  -2.431  0.00  0.00    -0.298 NA
ATOM      5  C   UNL     1      -4.059   0.937  -3.885  0.00  0.00    +0.085 C 
ATOM      6  C   UNL     1      -4.809   1.593  -1.669  0.00  0.00    +0.105 C 
ENDROOT
BRANCH   3   7
ATOM      7  C   UNL     1      -2.948  -1.345  -1.548  0.00  0.00    -0.012 A 
ATOM      8  C   UNL     1      -2.933  -2.699  -1.272  0.00  0.00    +0.115 A 
ATOM      9  N   UNL     1      -1.863  -3.271  -0.755  0.00  0.00    -0.263 NA
ATOM     10  C   UNL     1      -0.773  -2.581  -0.482  0.00  0.00    +0.111 A 
ATOM     11  C   UNL     1      -0.713  -1.223  -0.731  0.00  0.00    +0.020 A 
ATOM     12  C   UNL     1      -1.818  -0.588  -1.279  0.00  0.00    +0.008 A 
ENDBRANCH   3   7
TORSDOF 1
ENDMDL
MODEL 5
REMARK VINA RESULT:    -3.599      1.868      4.076
REMARK INTER + INTRA:          -4.017
REMARK INTER:                  -3.824
REMARK INTRA:                  -0.193
REMARK UNBOUND:                -0.207
REMARK  Name = Nicotine.pdb
REMARK  2 active torsions:
REMARK  status: ('A' for Active; 'I' for Inactive)
REMARK    1  A    between atoms: C_3  and  C_6
REMARK    2  A    between atoms: N_4  and  C_12
REMARK                            x       y       z     vdW  Elec       q    Type
REMARK                         _______ _______ _______ _____ _____    ______ ____
ROOT
ATOM      1  C   UNL     1      -3.871   0.301  -3.880  0.00  0.00    +0.017 C 
ATOM      2  C   UNL     1      -2.519  -0.102  -3.235  0.00  0.00    +0.025 C 
ATOM      3  C   UNL     1      -2.939  -1.135  -2.167  0.00  0.00    +0.088 C 
ATOM      4  N   UNL     1      -4.358  -0.888  -1.855  0.00  0.00    -0.298 NA
ATOM      5  C   UNL     1      -4.824   0.261  -2.660  0.00  0.00    +0.085 C 
ATOM      6  C   UNL     1      -5.171  -2.082  -2.120  0.00  0.00    +0.105 C 
ENDROOT
BRANCH   3   7
ATOM      7  C   UNL     1      -2.102  -0.958  -0.926  0.00  0.00    -0.012 A 
ATOM      8  C   UNL     1      -1.028  -1.793  -0.683  0.00  0.00    +0.115 A 
ATOM      9  N   UNL     1      -0.290  -1.645   0.400  0.00  0.00    -0.263 NA
ATOM     10  C   UNL     1      -0.543  -0.704   1.288  0.00  0.00    +0.111 A 
ATOM     11  C   UNL     1      -1.601   0.168   1.112  0.00  0.00    +0.020 A 
ATOM     12  C   UNL     1      -2.396   0.047  -0.017  0.00  0.00    +0.008 A 
ENDBRANCH   3   7
TORSDOF 1
ENDMDL
MODEL 6
REMARK VINA RESULT:    -3.394      1.746      2.450
REMARK INTER + INTRA:          -3.800
REMARK INTER:                  -3.576
REMARK INTRA:                  -0.223
REMARK UNBOUND:                -0.207
REMARK  Name = Nicotine.pdb
REMARK  2 active torsions:
REMARK  status: ('A' for Active; 'I' for Inactive)
REMARK    1  A    between atoms: C_3  and  C_6
REMARK    2  A    between atoms: N_4  and  C_12
REMARK                            x       y       z     vdW  Elec       q    Type
REMARK                         _______ _______ _______ _____ _____    ______ ____
ROOT
ATOM      1  C   UNL     1      -0.389  -2.842   0.635  0.00  0.00    +0.017 C 
ATOM      2  C   UNL     1      -0.787  -2.342  -0.779  0.00  0.00    +0.025 C 
ATOM      3  C   UNL     1      -1.034  -0.835  -0.558  0.00  0.00    +0.088 C 
ATOM      4  N   UNL     1      -1.321  -0.645   0.876  0.00  0.00    -0.298 NA
ATOM      5  C   UNL     1      -1.288  -1.964   1.541  0.00  0.00    +0.085 C 
ATOM      6  C   UNL     1      -0.358   0.279   1.488  0.00  0.00    +0.105 C 
ENDROOT
BRANCH   3   7
ATOM      7  C   UNL     1      -2.211  -0.382  -1.382  0.00  0.00    -0.012 A 
ATOM      8  C   UNL     1      -3.318   0.178  -0.772  0.00  0.00    +0.115 A 
ATOM      9  N   UNL     1      -4.352   0.577  -1.487  0.00  0.00    -0.263 NA
ATOM     10  C   UNL     1      -4.374   0.461  -2.799  0.00  0.00    +0.111 A 
ATOM     11  C   UNL     1      -3.303  -0.089  -3.479  0.00  0.00    +0.020 A 
ATOM     12  C   UNL     1      -2.196  -0.515  -2.762  0.00  0.00    +0.008 A 
ENDBRANCH   3   7
TORSDOF 1
ENDMDL
MODEL 7
REMARK VINA RESULT:    -3.372      1.296      2.219
REMARK INTER + INTRA:          -3.777
REMARK INTER:                  -3.597
REMARK INTRA:                  -0.180
REMARK UNBOUND:                -0.207
REMARK  Name = Nicotine.pdb
REMARK  2 active torsions:
REMARK  status: ('A' for Active; 'I' for Inactive)
REMARK    1  A    between atoms: C_3  and  C_6
REMARK    2  A    between atoms: N_4  and  C_12
REMARK                            x       y       z     vdW  Elec       q    Type
REMARK                         _______ _______ _______ _____ _____    ______ ____
ROOT
ATOM      1  C   UNL     1      -3.236  -3.185   0.072  0.00  0.00    +0.017 C 
ATOM      2  C   UNL     1      -3.579  -2.516  -1.285  0.00  0.00    +0.025 C 
ATOM      3  C   UNL     1      -2.506  -1.414  -1.411  0.00  0.00    +0.088 C 
ATOM      4  N   UNL     1      -2.019  -1.121  -0.051  0.00  0.00    -0.298 NA
ATOM      5  C   UNL     1      -2.759  -1.970   0.907  0.00  0.00    +0.085 C 
ATOM      6  C   UNL     1      -0.572  -1.348   0.052  0.00  0.00    +0.105 C 
ENDROOT
BRANCH   3   7
ATOM      7  C   UNL     1      -3.112  -0.175  -2.018  0.00  0.00    -0.012 A 
ATOM      8  C   UNL     1      -3.638   0.814  -1.210  0.00  0.00    +0.115 A 
ATOM      9  N   UNL     1      -4.170   1.902  -1.733  0.00  0.00    -0.263 NA
ATOM     10  C   UNL     1      -4.222   2.089  -3.037  0.00  0.00    +0.111 A 
ATOM     11  C   UNL     1      -3.714   1.144  -3.909  0.00  0.00    +0.020 A 
ATOM     12  C   UNL     1      -3.143  -0.010  -3.395  0.00  0.00    +0.008 A 
ENDBRANCH   3   7
TORSDOF 1
ENDMDL
MODEL 8
REMARK VINA RESULT:    -3.364      2.865      6.049
REMARK INTER + INTRA:          -3.768
REMARK INTER:                  -3.531
REMARK INTRA:                  -0.237
REMARK UNBOUND:                -0.207
REMARK  Name = Nicotine.pdb
REMARK  2 active torsions:
REMARK  status: ('A' for Active; 'I' for Inactive)
REMARK    1  A    between atoms: C_3  and  C_6
REMARK    2  A    between atoms: N_4  and  C_12
REMARK                            x       y       z     vdW  Elec       q    Type
REMARK                         _______ _______ _______ _____ _____    ______ ____
ROOT
ATOM      1  C   UNL     1      -3.011  -1.603  -0.702  0.00  0.00    +0.017 C 
ATOM      2  C   UNL     1      -2.608  -2.989  -0.135  0.00  0.00    +0.025 C 
ATOM      3  C   UNL     1      -1.209  -2.726   0.462  0.00  0.00    +0.088 C 
ATOM      4  N   UNL     1      -0.665  -1.532  -0.209  0.00  0.00    -0.298 NA
ATOM      5  C   UNL     1      -1.650  -1.063  -1.207  0.00  0.00    +0.085 C 
ATOM      6  C   UNL     1      -0.356  -0.476   0.763  0.00  0.00    +0.105 C 
ENDROOT
BRANCH   3   7
ATOM      7  C   UNL     1      -0.313  -3.911   0.210  0.00  0.00    -0.012 A 
ATOM      8  C   UNL     1       0.439  -4.450   1.236  0.00  0.00    +0.115 A 
ATOM      9  N   UNL     1       1.226  -5.487   1.024  0.00  0.00    -0.263 NA
ATOM     10  C   UNL     1       1.328  -6.048  -0.165  0.00  0.00    +0.111 A 
ATOM     11  C   UNL     1       0.605  -5.564  -1.240  0.00  0.00    +0.020 A 
ATOM     12  C   UNL     1      -0.236  -4.478  -1.053  0.00  0.00    +0.008 A 
ENDBRANCH   3   7
TORSDOF 1
ENDMDL
MODEL 9
REMARK VINA RESULT:    -3.176     10.241     11.514
REMARK INTER + INTRA:          -3.569
REMARK INTER:                  -3.354
REMARK INTRA:                  -0.215
REMARK UNBOUND:                -0.207
REMARK  Name = Nicotine.pdb
REMARK  2 active torsions:
REMARK  status: ('A' for Active; 'I' for Inactive)
REMARK    1  A    between atoms: C_3  and  C_6
REMARK    2  A    between atoms: N_4  and  C_12
REMARK                            x       y       z     vdW  Elec       q    Type
REMARK                         _______ _______ _______ _____ _____    ______ ____
ROOT
ATOM      1  C   UNL     1       4.292   5.991  -3.850  0.00  0.00    +0.017 C 
ATOM      2  C   UNL     1       4.948   5.843  -2.452  0.00  0.00    +0.025 C 
ATOM      3  C   UNL     1       6.383   5.384  -2.788  0.00  0.00    +0.088 C 
ATOM      4  N   UNL     1       6.346   4.784  -4.134  0.00  0.00    -0.298 NA
ATOM      5  C   UNL     1       4.954   4.828  -4.630  0.00  0.00    +0.085 C 
ATOM      6  C   UNL     1       7.255   5.485  -5.049  0.00  0.00    +0.105 C 
ENDROOT
BRANCH   3   7
ATOM      7  C   UNL     1       6.844   4.362  -1.781  0.00  0.00    -0.012 A 
ATOM      8  C   UNL     1       7.741   3.376  -2.147  0.00  0.00    +0.115 A 
ATOM      9  N   UNL     1       8.149   2.477  -1.272  0.00  0.00    -0.263 NA
ATOM     10  C   UNL     1       7.723   2.481  -0.024  0.00  0.00    +0.111 A 
ATOM     11  C   UNL     1       6.826   3.438   0.414  0.00  0.00    +0.020 A 
ATOM     12  C   UNL     1       6.378   4.402  -0.476  0.00  0.00    +0.008 A 
ENDBRANCH   3   7
TORSDOF 1
ENDMDL
MODEL 10
REMARK VINA RESULT:    -3.174      2.388      4.034
REMARK INTER + INTRA:          -3.567
REMARK INTER:                  -3.353
REMARK INTRA:                  -0.214
REMARK UNBOUND:                -0.207
REMARK  Name = Nicotine.pdb
REMARK  2 active torsions:
REMARK  status: ('A' for Active; 'I' for Inactive)
REMARK    1  A    between atoms: C_3  and  C_6
REMARK    2  A    between atoms: N_4  and  C_12
REMARK                            x       y       z     vdW  Elec       q    Type
REMARK                         _______ _______ _______ _____ _____    ______ ____
ROOT
ATOM      1  C   UNL     1      -3.324  -1.825  -2.426  0.00  0.00    +0.017 C 
ATOM      2  C   UNL     1      -2.572  -0.563  -1.927  0.00  0.00    +0.025 C 
ATOM      3  C   UNL     1      -1.624  -1.128  -0.848  0.00  0.00    +0.088 C 
ATOM      4  N   UNL     1      -2.195  -2.408  -0.392  0.00  0.00    -0.298 NA
ATOM      5  C   UNL     1      -3.460  -2.646  -1.119  0.00  0.00    +0.085 C 
ATOM      6  C   UNL     1      -1.250  -3.512  -0.603  0.00  0.00    +0.105 C 
ENDROOT
BRANCH   3   7
ATOM      7  C   UNL     1      -1.532  -0.165   0.308  0.00  0.00    -0.012 A 
ATOM      8  C   UNL     1      -2.617   0.619   0.652  0.00  0.00    +0.115 A 
ATOM      9  N   UNL     1      -2.545   1.464   1.662  0.00  0.00    -0.263 NA
ATOM     10  C   UNL     1      -1.446   1.595   2.379  0.00  0.00    +0.111 A 
ATOM     11  C   UNL     1      -0.321   0.844   2.094  0.00  0.00    +0.020 A 
ATOM     12  C   UNL     1      -0.361  -0.059   1.042  0.00  0.00    +0.008 A 
ENDBRANCH   3   7
TORSDOF 1
ENDMDL
