MODEL 1
REMARK VINA RESULT:    -4.059      0.000      0.000
REMARK INTER + INTRA:          -4.517
REMARK INTER:                  -4.296
REMARK INTRA:                  -0.221
REMARK UNBOUND:                -0.221
REMARK  Name = Nicotine.pdb
REMARK  2 active torsions:
REMARK  status: ('A' for Active; 'I' for Inactive)
REMARK    1  A    between atoms: C_3  and  C_6
REMARK    2  A    between atoms: N_4  and  C_12
REMARK                            x       y       z     vdW  Elec       q    Type
REMARK                         _______ _______ _______ _____ _____    ______ ____
ROOT
ATOM      1  C   UNL     1       7.776   1.729  -0.720  0.00  0.00    +0.017 C 
ATOM      2  C   UNL     1       7.210   0.380  -0.202  0.00  0.00    +0.025 C 
ATOM      3  C   UNL     1       8.417  -0.574  -0.330  0.00  0.00    +0.088 C 
ATOM      4  N   UNL     1       9.328   0.006  -1.332  0.00  0.00    -0.298 NA
ATOM      5  C   UNL     1       8.730   1.257  -1.846  0.00  0.00    +0.085 C 
ATOM      6  C   UNL     1      10.656   0.255  -0.756  0.00  0.00    +0.105 C 
ENDROOT
BRANCH   3   7
ATOM      7  C   UNL     1       7.950  -1.933  -0.784  0.00  0.00    -0.012 A 
ATOM      8  C   UNL     1       8.220  -3.055  -0.024  0.00  0.00    +0.115 A 
ATOM      9  N   UNL     1       7.816  -4.248  -0.415  0.00  0.00    -0.263 NA
ATOM     10  C   UNL     1       7.143  -4.419  -1.536  0.00  0.00    +0.111 A 
ATOM     11  C   UNL     1       6.836  -3.343  -2.348  0.00  0.00    +0.020 A 
ATOM     12  C   UNL     1       7.240  -2.073  -1.967  0.00  0.00    +0.008 A 
ENDBRANCH   3   7
TORSDOF 1
ENDMDL
MODEL 2
REMARK VINA RESULT:    -4.016      2.682      5.562
REMARK INTER + INTRA:          -4.471
REMARK INTER:                  -4.248
REMARK INTRA:                  -0.223
REMARK UNBOUND:                -0.221
REMARK  Name = Nicotine.pdb
REMARK  2 active torsions:
REMARK  status: ('A' for Active; 'I' for Inactive)
REMARK    1  A    between atoms: C_3  and  C_6
REMARK    2  A    between atoms: N_4  and  C_12
REMARK                            x       y       z     vdW  Elec       q    Type
REMARK                         _______ _______ _______ _____ _____    ______ ____
ROOT
ATOM      1  C   UNL     1       7.687  -1.589   0.637  0.00  0.00    +0.017 C 
ATOM      2  C   UNL     1       7.156  -0.212   0.159  0.00  0.00    +0.025 C 
ATOM      3  C   UNL     1       8.372   0.718   0.359  0.00  0.00    +0.088 C 
ATOM      4  N   UNL     1       9.246   0.083   1.362  0.00  0.00    -0.298 NA
ATOM      5  C   UNL     1       8.615  -1.177   1.807  0.00  0.00    +0.085 C 
ATOM      6  C   UNL     1      10.586  -0.163   0.814  0.00  0.00    +0.105 C 
ENDROOT
BRANCH   3   7
ATOM      7  C   UNL     1       7.912   2.064   0.856  0.00  0.00    -0.012 A 
ATOM      8  C   UNL     1       8.247   3.215   0.168  0.00  0.00    +0.115 A 
ATOM      9  N   UNL     1       7.849   4.397   0.596  0.00  0.00    -0.263 NA
ATOM     10  C   UNL     1       7.121   4.530   1.688  0.00  0.00    +0.111 A 
ATOM     11  C   UNL     1       6.747   3.423   2.428  0.00  0.00    +0.020 A 
ATOM     12  C   UNL     1       7.143   2.164   2.006  0.00  0.00    +0.008 A 
ENDBRANCH   3   7
TORSDOF 1
ENDMDL
MODEL 3
REMARK VINA RESULT:    -3.966      1.436      1.586
REMARK INTER + INTRA:          -4.418
REMARK INTER:                  -4.168
REMARK INTRA:                  -0.251
REMARK UNBOUND:                -0.221
REMARK  Name = Nicotine.pdb
REMARK  2 active torsions:
REMARK  status: ('A' for Active; 'I' for Inactive)
REMARK    1  A    between atoms: C_3  and  C_6
REMARK    2  A    between atoms: N_4  and  C_12
REMARK                            x       y       z     vdW  Elec       q    Type
REMARK                         _______ _______ _______ _____ _____    ______ ____
ROOT
ATOM      1  C   UNL     1       7.800   1.642   0.429  0.00  0.00    +0.017 C 
ATOM      2  C   UNL     1       7.027   0.372  -0.014  0.00  0.00    +0.025 C 
ATOM      3  C   UNL     1       7.764  -0.761   0.732  0.00  0.00    +0.088 C 
ATOM      4  N   UNL     1       9.114  -0.265   1.056  0.00  0.00    -0.298 NA
ATOM      5  C   UNL     1       9.251   1.107   0.524  0.00  0.00    +0.085 C 
ATOM      6  C   UNL     1       9.352  -0.295   2.504  0.00  0.00    +0.105 C 
ENDROOT
BRANCH   3   7
ATOM      7  C   UNL     1       7.862  -1.978  -0.152  0.00  0.00    -0.012 A 
ATOM      8  C   UNL     1       8.320  -3.178   0.359  0.00  0.00    +0.115 A 
ATOM      9  N   UNL     1       8.408  -4.247  -0.408  0.00  0.00    -0.263 NA
ATOM     10  C   UNL     1       8.068  -4.217  -1.681  0.00  0.00    +0.111 A 
ATOM     11  C   UNL     1       7.601  -3.053  -2.262  0.00  0.00    +0.020 A 
ATOM     12  C   UNL     1       7.489  -1.910  -1.486  0.00  0.00    +0.008 A 
ENDBRANCH   3   7
TORSDOF 1
ENDMDL
MODEL 4
REMARK VINA RESULT:    -3.951      1.810      4.802
REMARK INTER + INTRA:          -4.403
REMARK INTER:                  -4.171
REMARK INTRA:                  -0.231
REMARK UNBOUND:                -0.221
REMARK  Name = Nicotine.pdb
REMARK  2 active torsions:
REMARK  status: ('A' for Active; 'I' for Inactive)
REMARK    1  A    between atoms: C_3  and  C_6
REMARK    2  A    between atoms: N_4  and  C_12
REMARK                            x       y       z     vdW  Elec       q    Type
REMARK                         _______ _______ _______ _____ _____    ______ ____
ROOT
ATOM      1  C   UNL     1       8.374  -2.701   0.764  0.00  0.00    +0.017 C 
ATOM      2  C   UNL     1       7.573  -1.394   1.005  0.00  0.00    +0.025 C 
ATOM      3  C   UNL     1       7.593  -0.714  -0.380  0.00  0.00    +0.088 C 
ATOM      4  N   UNL     1       8.744  -1.263  -1.119  0.00  0.00    -0.298 NA
ATOM      5  C   UNL     1       9.447  -2.228  -0.247  0.00  0.00    +0.085 C 
ATOM      6  C   UNL     1       8.313  -1.900  -2.370  0.00  0.00    +0.105 C 
ENDROOT
BRANCH   3   7
ATOM      7  C   UNL     1       7.749   0.775  -0.218  0.00  0.00    -0.012 A 
ATOM      8  C   UNL     1       7.919   1.585  -1.325  0.00  0.00    +0.115 A 
ATOM      9  N   UNL     1       8.056   2.890  -1.192  0.00  0.00    -0.263 NA
ATOM     10  C   UNL     1       8.037   3.472  -0.009  0.00  0.00    +0.111 A 
ATOM     11  C   UNL     1       7.870   2.726   1.144  0.00  0.00    +0.020 A 
ATOM     12  C   UNL     1       7.718   1.352   1.042  0.00  0.00    +0.008 A 
ENDBRANCH   3   7
TORSDOF 1
ENDMDL
MODEL 5
REMARK VINA RESULT:    -3.948      1.746      2.235
REMARK INTER + INTRA:          -4.400
REMARK INTER:                  -4.170
REMARK INTRA:                  -0.230
REMARK UNBOUND:                -0.221
REMARK  Name = Nicotine.pdb
REMARK  2 active torsions:
REMARK  status: ('A' for Active; 'I' for Inactive)
REMARK    1  A    between atoms: C_3  and  C_6
REMARK    2  A    between atoms: N_4  and  C_12
REMARK                            x       y       z     vdW  Elec       q    Type
REMARK                         _______ _______ _______ _____ _____    ______ ____
ROOT
ATOM      1  C   UNL     1       8.365   2.725  -0.626  0.00  0.00    +0.017 C 
ATOM      2  C   UNL     1       7.574   1.417  -0.890  0.00  0.00    +0.025 C 
ATOM      3  C   UNL     1       7.600   0.712   0.483  0.00  0.00    +0.088 C 
ATOM      4  N   UNL     1       8.747   1.257   1.232  0.00  0.00    -0.298 NA
ATOM      5  C   UNL     1       9.442   2.242   0.377  0.00  0.00    +0.085 C 
ATOM      6  C   UNL     1       8.311   1.868   2.494  0.00  0.00    +0.105 C 
ENDROOT
BRANCH   3   7
ATOM      7  C   UNL     1       7.767  -0.773   0.294  0.00  0.00    -0.012 A 
ATOM      8  C   UNL     1       7.970  -1.598   1.384  0.00  0.00    +0.115 A 
ATOM      9  N   UNL     1       8.117  -2.899   1.228  0.00  0.00    -0.263 NA
ATOM     10  C   UNL     1       8.078  -3.462   0.036  0.00  0.00    +0.111 A 
ATOM     11  C   UNL     1       7.877  -2.701  -1.100  0.00  0.00    +0.020 A 
ATOM     12  C   UNL     1       7.713  -1.330  -0.974  0.00  0.00    +0.008 A 
ENDBRANCH   3   7
TORSDOF 1
ENDMDL
MODEL 6
REMARK VINA RESULT:    -3.933      2.864      3.630
REMARK INTER + INTRA:          -4.384
REMARK INTER:                  -4.176
REMARK INTRA:                  -0.208
REMARK UNBOUND:                -0.221
REMARK  Name = Nicotine.pdb
REMARK  2 active torsions:
REMARK  status: ('A' for Active; 'I' for Inactive)
REMARK    1  A    between atoms: C_3  and  C_6
REMARK    2  A    between atoms: N_4  and  C_12
REMARK                            x       y       z     vdW  Elec       q    Type
REMARK                         _______ _______ _______ _____ _____    ______ ____
ROOT
ATOM      1  C   UNL     1       7.220   4.107   1.900  0.00  0.00    +0.017 C 
ATOM      2  C   UNL     1       7.109   2.668   2.469  0.00  0.00    +0.025 C 
ATOM      3  C   UNL     1       8.483   2.053   2.126  0.00  0.00    +0.088 C 
ATOM      4  N   UNL     1       9.042   2.830   1.005  0.00  0.00    -0.298 NA
ATOM      5  C   UNL     1       8.069   3.875   0.625  0.00  0.00    +0.085 C 
ATOM      6  C   UNL     1      10.337   3.421   1.367  0.00  0.00    +0.105 C 
ENDROOT
BRANCH   3   7
ATOM      7  C   UNL     1       8.313   0.612   1.720  0.00  0.00    -0.012 A 
ATOM      8  C   UNL     1       8.864  -0.399   2.483  0.00  0.00    +0.115 A 
ATOM      9  N   UNL     1       8.720  -1.663   2.134  0.00  0.00    -0.263 NA
ATOM     10  C   UNL     1       8.050  -2.011   1.053  0.00  0.00    +0.111 A 
ATOM     11  C   UNL     1       7.470  -1.055   0.241  0.00  0.00    +0.020 A 
ATOM     12  C   UNL     1       7.596   0.284   0.579  0.00  0.00    +0.008 A 
ENDBRANCH   3   7
TORSDOF 1
ENDMDL
MODEL 7
REMARK VINA RESULT:    -3.696      2.152      3.239
REMARK INTER + INTRA:          -4.133
REMARK INTER:                  -3.877
REMARK INTRA:                  -0.256
REMARK UNBOUND:                -0.221
REMARK  Name = Nicotine.pdb
REMARK  2 active torsions:
REMARK  status: ('A' for Active; 'I' for Inactive)
REMARK    1  A    between atoms: C_3  and  C_6
REMARK    2  A    between atoms: N_4  and  C_12
REMARK                            x       y       z     vdW  Elec       q    Type
REMARK                         _______ _______ _______ _____ _____    ______ ____
ROOT
ATOM      1  C   UNL     1       8.047   1.783   1.793  0.00  0.00    +0.017 C 
ATOM      2  C   UNL     1       7.515   1.520   0.360  0.00  0.00    +0.025 C 
ATOM      3  C   UNL     1       7.881   0.040   0.120  0.00  0.00    +0.088 C 
ATOM      4  N   UNL     1       8.985  -0.292   1.039  0.00  0.00    -0.298 NA
ATOM      5  C   UNL     1       9.333   0.918   1.814  0.00  0.00    +0.085 C 
ATOM      6  C   UNL     1       8.614  -1.400   1.930  0.00  0.00    +0.105 C 
ENDROOT
BRANCH   3   7
ATOM      7  C   UNL     1       8.324  -0.155  -1.307  0.00  0.00    -0.012 A 
ATOM      8  C   UNL     1       8.282  -1.408  -1.887  0.00  0.00    +0.115 A 
ATOM      9  N   UNL     1       8.668  -1.587  -3.136  0.00  0.00    -0.263 NA
ATOM     10  C   UNL     1       9.106  -0.587  -3.875  0.00  0.00    +0.111 A 
ATOM     11  C   UNL     1       9.175   0.695  -3.363  0.00  0.00    +0.020 A 
ATOM     12  C   UNL     1       8.773   0.922  -2.056  0.00  0.00    +0.008 A 
ENDBRANCH   3   7
TORSDOF 1
ENDMDL
MODEL 8
REMARK VINA RESULT:    -3.673      1.205      1.805
REMARK INTER + INTRA:          -4.108
REMARK INTER:                  -3.898
REMARK INTRA:                  -0.211
REMARK UNBOUND:                -0.221
REMARK  Name = Nicotine.pdb
REMARK  2 active torsions:
REMARK  status: ('A' for Active; 'I' for Inactive)
REMARK    1  A    between atoms: C_3  and  C_6
REMARK    2  A    between atoms: N_4  and  C_12
REMARK                            x       y       z     vdW  Elec       q    Type
REMARK                         _______ _______ _______ _____ _____    ______ ____
ROOT
ATOM      1  C   UNL     1       9.202   1.000   1.517  0.00  0.00    +0.017 C 
ATOM      2  C   UNL     1       9.561  -0.372   0.888  0.00  0.00    +0.025 C 
ATOM      3  C   UNL     1       8.853  -0.321  -0.483  0.00  0.00    +0.088 C 
ATOM      4  N   UNL     1       7.768   0.670  -0.377  0.00  0.00    -0.298 NA
ATOM      5  C   UNL     1       7.758   1.214   0.998  0.00  0.00    +0.085 C 
ATOM      6  C   UNL     1       7.935   1.743  -1.366  0.00  0.00    +0.105 C 
ENDROOT
BRANCH   3   7
ATOM      7  C   UNL     1       8.281  -1.675  -0.814  0.00  0.00    -0.012 A 
ATOM      8  C   UNL     1       8.286  -2.686   0.128  0.00  0.00    +0.115 A 
ATOM      9  N   UNL     1       7.788  -3.874  -0.154  0.00  0.00    -0.263 NA
ATOM     10  C   UNL     1       7.270  -4.146  -1.335  0.00  0.00    +0.111 A 
ATOM     11  C   UNL     1       7.230  -3.185  -2.328  0.00  0.00    +0.020 A 
ATOM     12  C   UNL     1       7.739  -1.922  -2.066  0.00  0.00    +0.008 A 
ENDBRANCH   3   7
TORSDOF 1
ENDMDL
MODEL 9
REMARK VINA RESULT:    -3.626      1.661      4.109
REMARK INTER + INTRA:          -4.059
REMARK INTER:                  -3.869
REMARK INTRA:                  -0.190
REMARK UNBOUND:                -0.221
REMARK  Name = Nicotine.pdb
REMARK  2 active torsions:
REMARK  status: ('A' for Active; 'I' for Inactive)
REMARK    1  A    between atoms: C_3  and  C_6
REMARK    2  A    between atoms: N_4  and  C_12
REMARK                            x       y       z     vdW  Elec       q    Type
REMARK                         _______ _______ _______ _____ _____    ______ ____
ROOT
ATOM      1  C   UNL     1       7.942  -1.946   1.425  0.00  0.00    +0.017 C 
ATOM      2  C   UNL     1       7.694  -0.789   0.421  0.00  0.00    +0.025 C 
ATOM      3  C   UNL     1       7.670  -1.512  -0.942  0.00  0.00    +0.088 C 
ATOM      4  N   UNL     1       8.397  -2.784  -0.776  0.00  0.00    -0.298 NA
ATOM      5  C   UNL     1       8.890  -2.866   0.616  0.00  0.00    +0.085 C 
ATOM      6  C   UNL     1       7.537  -3.929  -1.099  0.00  0.00    +0.105 C 
ENDROOT
BRANCH   3   7
ATOM      7  C   UNL     1       8.349  -0.664  -1.985  0.00  0.00    -0.012 A 
ATOM      8  C   UNL     1       8.656   0.658  -1.720  0.00  0.00    +0.115 A 
ATOM      9  N   UNL     1       9.251   1.407  -2.628  0.00  0.00    -0.263 NA
ATOM     10  C   UNL     1       9.575   0.933  -3.814  0.00  0.00    +0.111 A 
ATOM     11  C   UNL     1       9.300  -0.380  -4.151  0.00  0.00    +0.020 A 
ATOM     12  C   UNL     1       8.680  -1.199  -3.220  0.00  0.00    +0.008 A 
ENDBRANCH   3   7
TORSDOF 1
ENDMDL
MODEL 10
REMARK VINA RESULT:    -3.484      3.340      4.618
REMARK INTER + INTRA:          -3.909
REMARK INTER:                  -3.724
REMARK INTRA:                  -0.185
REMARK UNBOUND:                -0.221
REMARK  Name = Nicotine.pdb
REMARK  2 active torsions:
REMARK  status: ('A' for Active; 'I' for Inactive)
REMARK    1  A    between atoms: C_3  and  C_6
REMARK    2  A    between atoms: N_4  and  C_12
REMARK                            x       y       z     vdW  Elec       q    Type
REMARK                         _______ _______ _______ _____ _____    ______ ____
ROOT
ATOM      1  C   UNL     1       7.932   2.388  -1.138  0.00  0.00    +0.017 C 
ATOM      2  C   UNL     1       7.828   1.069  -0.327  0.00  0.00    +0.025 C 
ATOM      3  C   UNL     1       7.660   1.567   1.125  0.00  0.00    +0.088 C 
ATOM      4  N   UNL     1       8.199   2.938   1.181  0.00  0.00    -0.298 NA
ATOM      5  C   UNL     1       8.713   3.298  -0.157  0.00  0.00    +0.085 C 
ATOM      6  C   UNL     1       7.173   3.890   1.625  0.00  0.00    +0.105 C 
ENDROOT
BRANCH   3   7
ATOM      7  C   UNL     1       8.427   0.674   2.065  0.00  0.00    -0.012 A 
ATOM      8  C   UNL     1       8.755  -0.616   1.692  0.00  0.00    +0.115 A 
ATOM      9  N   UNL     1       9.426  -1.404   2.509  0.00  0.00    -0.263 NA
ATOM     10  C   UNL     1       9.808  -0.999   3.705  0.00  0.00    +0.111 A 
ATOM     11  C   UNL     1       9.516   0.278   4.146  0.00  0.00    +0.020 A 
ATOM     12  C   UNL     1       8.817   1.137   3.313  0.00  0.00    +0.008 A 
ENDBRANCH   3   7
TORSDOF 1
ENDMDL
