MODEL 1
REMARK VINA RESULT:    -3.424      0.000      0.000
REMARK INTER + INTRA:          -3.869
REMARK INTER:                  -3.624
REMARK INTRA:                  -0.245
REMARK UNBOUND:                -0.245
REMARK  Name = Nicotine.pdb
REMARK  2 active torsions:
REMARK  status: ('A' for Active; 'I' for Inactive)
REMARK    1  A    between atoms: C_3  and  C_6
REMARK    2  A    between atoms: N_4  and  C_12
REMARK                            x       y       z     vdW  Elec       q    Type
REMARK                         _______ _______ _______ _____ _____    ______ ____
ROOT
ATOM      1  C   UNL     1       1.223   3.324  -3.143  0.00  0.00    +0.017 C 
ATOM      2  C   UNL     1      -0.001   2.627  -2.492  0.00  0.00    +0.025 C 
ATOM      3  C   UNL     1      -1.097   2.772  -3.569  0.00  0.00    +0.088 C 
ATOM      4  N   UNL     1      -0.716   3.906  -4.430  0.00  0.00    -0.298 NA
ATOM      5  C   UNL     1       0.547   4.481  -3.921  0.00  0.00    +0.085 C 
ATOM      6  C   UNL     1      -0.575   3.481  -5.829  0.00  0.00    +0.105 C 
ENDROOT
BRANCH   3   7
ATOM      7  C   UNL     1      -2.426   3.047  -2.915  0.00  0.00    -0.012 A 
ATOM      8  C   UNL     1      -3.568   2.405  -3.354  0.00  0.00    +0.115 A 
ATOM      9  N   UNL     1      -4.735   2.640  -2.787  0.00  0.00    -0.263 NA
ATOM     10  C   UNL     1      -4.861   3.489  -1.786  0.00  0.00    +0.111 A 
ATOM     11  C   UNL     1      -3.763   4.169  -1.293  0.00  0.00    +0.020 A 
ATOM     12  C   UNL     1      -2.518   3.943  -1.861  0.00  0.00    +0.008 A 
ENDBRANCH   3   7
TORSDOF 1
ENDMDL
MODEL 2
REMARK VINA RESULT:    -3.284      1.331      4.258
REMARK INTER + INTRA:          -3.721
REMARK INTER:                  -3.532
REMARK INTRA:                  -0.189
REMARK UNBOUND:                -0.245
REMARK  Name = Nicotine.pdb
REMARK  2 active torsions:
REMARK  status: ('A' for Active; 'I' for Inactive)
REMARK    1  A    between atoms: C_3  and  C_6
REMARK    2  A    between atoms: N_4  and  C_12
REMARK                            x       y       z     vdW  Elec       q    Type
REMARK                         _______ _______ _______ _____ _____    ______ ____
ROOT
ATOM      1  C   UNL     1      -3.357   1.911  -0.573  0.00  0.00    +0.017 C 
ATOM      2  C   UNL     1      -1.972   2.277  -1.170  0.00  0.00    +0.025 C 
ATOM      3  C   UNL     1      -2.262   3.581  -1.944  0.00  0.00    +0.088 C 
ATOM      4  N   UNL     1      -3.706   3.604  -2.235  0.00  0.00    -0.298 NA
ATOM      5  C   UNL     1      -4.315   2.367  -1.701  0.00  0.00    +0.085 C 
ATOM      6  C   UNL     1      -4.342   4.796  -1.658  0.00  0.00    +0.105 C 
ENDROOT
BRANCH   3   7
ATOM      7  C   UNL     1      -1.477   3.599  -3.230  0.00  0.00    -0.012 A 
ATOM      8  C   UNL     1      -2.079   3.240  -4.421  0.00  0.00    +0.115 A 
ATOM      9  N   UNL     1      -1.400   3.253  -5.551  0.00  0.00    -0.263 NA
ATOM     10  C   UNL     1      -0.130   3.605  -5.592  0.00  0.00    +0.111 A 
ATOM     11  C   UNL     1       0.539   3.976  -4.441  0.00  0.00    +0.020 A 
ATOM     12  C   UNL     1      -0.144   3.980  -3.235  0.00  0.00    +0.008 A 
ENDBRANCH   3   7
TORSDOF 1
ENDMDL
MODEL 3
REMARK VINA RESULT:    -3.156      1.651      4.679
REMARK INTER + INTRA:          -3.585
REMARK INTER:                  -3.348
REMARK INTRA:                  -0.238
REMARK UNBOUND:                -0.245
REMARK  Name = Nicotine.pdb
REMARK  2 active torsions:
REMARK  status: ('A' for Active; 'I' for Inactive)
REMARK    1  A    between atoms: C_3  and  C_6
REMARK    2  A    between atoms: N_4  and  C_12
REMARK                            x       y       z     vdW  Elec       q    Type
REMARK                         _______ _______ _______ _____ _____    ______ ____
ROOT
ATOM      1  C   UNL     1      -3.856   2.448  -3.613  0.00  0.00    +0.017 C 
ATOM      2  C   UNL     1      -2.378   2.122  -3.955  0.00  0.00    +0.025 C 
ATOM      3  C   UNL     1      -1.655   2.331  -2.607  0.00  0.00    +0.088 C 
ATOM      4  N   UNL     1      -2.500   3.223  -1.793  0.00  0.00    -0.298 NA
ATOM      5  C   UNL     1      -3.693   3.594  -2.583  0.00  0.00    +0.085 C 
ATOM      6  C   UNL     1      -2.883   2.579  -0.530  0.00  0.00    +0.105 C 
ENDROOT
BRANCH   3   7
ATOM      7  C   UNL     1      -0.310   2.967  -2.840  0.00  0.00    -0.012 A 
ATOM      8  C   UNL     1       0.820   2.456  -2.231  0.00  0.00    +0.115 A 
ATOM      9  N   UNL     1       2.002   3.007  -2.429  0.00  0.00    -0.263 NA
ATOM     10  C   UNL     1       2.154   4.059  -3.209  0.00  0.00    +0.111 A 
ATOM     11  C   UNL     1       1.069   4.625  -3.853  0.00  0.00    +0.020 A 
ATOM     12  C   UNL     1      -0.188   4.070  -3.672  0.00  0.00    +0.008 A 
ENDBRANCH   3   7
TORSDOF 1
ENDMDL
MODEL 4
REMARK VINA RESULT:    -3.143      1.705      2.019
REMARK INTER + INTRA:          -3.572
REMARK INTER:                  -3.343
REMARK INTRA:                  -0.229
REMARK UNBOUND:                -0.245
REMARK  Name = Nicotine.pdb
REMARK  2 active torsions:
REMARK  status: ('A' for Active; 'I' for Inactive)
REMARK    1  A    between atoms: C_3  and  C_6
REMARK    2  A    between atoms: N_4  and  C_12
REMARK                            x       y       z     vdW  Elec       q    Type
REMARK                         _______ _______ _______ _____ _____    ______ ____
ROOT
ATOM      1  C   UNL     1       0.445   1.589  -0.904  0.00  0.00    +0.017 C 
ATOM      2  C   UNL     1      -1.023   1.784  -0.443  0.00  0.00    +0.025 C 
ATOM      3  C   UNL     1      -1.800   1.849  -1.775  0.00  0.00    +0.088 C 
ATOM      4  N   UNL     1      -0.839   2.240  -2.822  0.00  0.00    -0.298 NA
ATOM      5  C   UNL     1       0.484   2.444  -2.195  0.00  0.00    +0.085 C 
ATOM      6  C   UNL     1      -0.770   1.224  -3.880  0.00  0.00    +0.105 C 
ENDROOT
BRANCH   3   7
ATOM      7  C   UNL     1      -2.900   2.874  -1.678  0.00  0.00    -0.012 A 
ATOM      8  C   UNL     1      -4.202   2.533  -1.991  0.00  0.00    +0.115 A 
ATOM      9  N   UNL     1      -5.171   3.424  -1.908  0.00  0.00    -0.263 NA
ATOM     10  C   UNL     1      -4.940   4.665  -1.528  0.00  0.00    +0.111 A 
ATOM     11  C   UNL     1      -3.663   5.079  -1.199  0.00  0.00    +0.020 A 
ATOM     12  C   UNL     1      -2.620   4.169  -1.269  0.00  0.00    +0.008 A 
ENDBRANCH   3   7
TORSDOF 1
ENDMDL
MODEL 5
REMARK VINA RESULT:    -2.978      1.294      2.134
REMARK INTER + INTRA:          -3.397
REMARK INTER:                  -3.184
REMARK INTRA:                  -0.213
REMARK UNBOUND:                -0.245
REMARK  Name = Nicotine.pdb
REMARK  2 active torsions:
REMARK  status: ('A' for Active; 'I' for Inactive)
REMARK    1  A    between atoms: C_3  and  C_6
REMARK    2  A    between atoms: N_4  and  C_12
REMARK                            x       y       z     vdW  Elec       q    Type
REMARK                         _______ _______ _______ _____ _____    ______ ____
ROOT
ATOM      1  C   UNL     1       0.838   3.797  -4.704  0.00  0.00    +0.017 C 
ATOM      2  C   UNL     1      -0.204   4.085  -3.591  0.00  0.00    +0.025 C 
ATOM      3  C   UNL     1      -0.678   2.673  -3.186  0.00  0.00    +0.088 C 
ATOM      4  N   UNL     1      -0.392   1.774  -4.318  0.00  0.00    -0.298 NA
ATOM      5  C   UNL     1       0.211   2.569  -5.409  0.00  0.00    +0.085 C 
ATOM      6  C   UNL     1       0.497   0.679  -3.910  0.00  0.00    +0.105 C 
ENDROOT
BRANCH   3   7
ATOM      7  C   UNL     1      -2.159   2.691  -2.904  0.00  0.00    -0.012 A 
ATOM      8  C   UNL     1      -2.655   3.378  -1.813  0.00  0.00    +0.115 A 
ATOM      9  N   UNL     1      -3.949   3.398  -1.559  0.00  0.00    -0.263 NA
ATOM     10  C   UNL     1      -4.815   2.770  -2.328  0.00  0.00    +0.111 A 
ATOM     11  C   UNL     1      -4.393   2.062  -3.438  0.00  0.00    +0.020 A 
ATOM     12  C   UNL     1      -3.041   2.023  -3.739  0.00  0.00    +0.008 A 
ENDBRANCH   3   7
TORSDOF 1
ENDMDL
MODEL 6
REMARK VINA RESULT:    -2.878      3.411      3.904
REMARK INTER + INTRA:          -3.291
REMARK INTER:                  -3.079
REMARK INTRA:                  -0.212
REMARK UNBOUND:                -0.245
REMARK  Name = Nicotine.pdb
REMARK  2 active torsions:
REMARK  status: ('A' for Active; 'I' for Inactive)
REMARK    1  A    between atoms: C_3  and  C_6
REMARK    2  A    between atoms: N_4  and  C_12
REMARK                            x       y       z     vdW  Elec       q    Type
REMARK                         _______ _______ _______ _____ _____    ______ ____
ROOT
ATOM      1  C   UNL     1      -0.548   1.225   1.328  0.00  0.00    +0.017 C 
ATOM      2  C   UNL     1      -1.929   1.931   1.340  0.00  0.00    +0.025 C 
ATOM      3  C   UNL     1      -2.559   1.484   0.004  0.00  0.00    +0.088 C 
ATOM      4  N   UNL     1      -1.455   1.085  -0.888  0.00  0.00    -0.298 NA
ATOM      5  C   UNL     1      -0.176   1.290  -0.175  0.00  0.00    +0.085 C 
ATOM      6  C   UNL     1      -1.602  -0.311  -1.317  0.00  0.00    +0.105 C 
ENDROOT
BRANCH   3   7
ATOM      7  C   UNL     1      -3.328   2.626  -0.608  0.00  0.00    -0.012 A 
ATOM      8  C   UNL     1      -2.881   3.926  -0.464  0.00  0.00    +0.115 A 
ATOM      9  N   UNL     1      -3.548   4.932  -0.996  0.00  0.00    -0.263 NA
ATOM     10  C   UNL     1      -4.658   4.742  -1.682  0.00  0.00    +0.111 A 
ATOM     11  C   UNL     1      -5.165   3.469  -1.870  0.00  0.00    +0.020 A 
ATOM     12  C   UNL     1      -4.488   2.387  -1.329  0.00  0.00    +0.008 A 
ENDBRANCH   3   7
TORSDOF 1
ENDMDL
MODEL 7
REMARK VINA RESULT:    -2.839      1.821      2.754
REMARK INTER + INTRA:          -3.250
REMARK INTER:                  -3.040
REMARK INTRA:                  -0.210
REMARK UNBOUND:                -0.245
REMARK  Name = Nicotine.pdb
REMARK  2 active torsions:
REMARK  status: ('A' for Active; 'I' for Inactive)
REMARK    1  A    between atoms: C_3  and  C_6
REMARK    2  A    between atoms: N_4  and  C_12
REMARK                            x       y       z     vdW  Elec       q    Type
REMARK                         _______ _______ _______ _____ _____    ______ ____
ROOT
ATOM      1  C   UNL     1       1.490   3.025  -6.397  0.00  0.00    +0.017 C 
ATOM      2  C   UNL     1      -0.059   2.947  -6.365  0.00  0.00    +0.025 C 
ATOM      3  C   UNL     1      -0.408   3.550  -4.988  0.00  0.00    +0.088 C 
ATOM      4  N   UNL     1       0.789   3.420  -4.138  0.00  0.00    -0.298 NA
ATOM      5  C   UNL     1       1.848   2.744  -4.916  0.00  0.00    +0.085 C 
ATOM      6  C   UNL     1       1.242   4.733  -3.660  0.00  0.00    +0.105 C 
ENDROOT
BRANCH   3   7
ATOM      7  C   UNL     1      -1.559   2.795  -4.374  0.00  0.00    -0.012 A 
ATOM      8  C   UNL     1      -2.765   3.428  -4.142  0.00  0.00    +0.115 A 
ATOM      9  N   UNL     1      -3.777   2.774  -3.606  0.00  0.00    -0.263 NA
ATOM     10  C   UNL     1      -3.682   1.502  -3.272  0.00  0.00    +0.111 A 
ATOM     11  C   UNL     1      -2.507   0.803  -3.475  0.00  0.00    +0.020 A 
ATOM     12  C   UNL     1      -1.423   1.456  -4.042  0.00  0.00    +0.008 A 
ENDBRANCH   3   7
TORSDOF 1
ENDMDL
MODEL 8
REMARK VINA RESULT:    -2.815      3.254      3.915
REMARK INTER + INTRA:          -3.224
REMARK INTER:                  -2.980
REMARK INTRA:                  -0.245
REMARK UNBOUND:                -0.245
REMARK  Name = Nicotine.pdb
REMARK  2 active torsions:
REMARK  status: ('A' for Active; 'I' for Inactive)
REMARK    1  A    between atoms: C_3  and  C_6
REMARK    2  A    between atoms: N_4  and  C_12
REMARK                            x       y       z     vdW  Elec       q    Type
REMARK                         _______ _______ _______ _____ _____    ______ ____
ROOT
ATOM      1  C   UNL     1      -1.789  -0.649   0.045  0.00  0.00    +0.017 C 
ATOM      2  C   UNL     1      -2.746   0.523   0.390  0.00  0.00    +0.025 C 
ATOM      3  C   UNL     1      -3.518   0.740  -0.929  0.00  0.00    +0.088 C 
ATOM      4  N   UNL     1      -2.692   0.183  -2.016  0.00  0.00    -0.298 NA
ATOM      5  C   UNL     1      -1.439  -0.343  -1.433  0.00  0.00    +0.085 C 
ATOM      6  C   UNL     1      -3.417  -0.868  -2.743  0.00  0.00    +0.105 C 
ENDROOT
BRANCH   3   7
ATOM      7  C   UNL     1      -3.741   2.212  -1.156  0.00  0.00    -0.012 A 
ATOM      8  C   UNL     1      -4.967   2.674  -1.598  0.00  0.00    +0.115 A 
ATOM      9  N   UNL     1      -5.171   3.961  -1.799  0.00  0.00    -0.263 NA
ATOM     10  C   UNL     1      -4.223   4.853  -1.590  0.00  0.00    +0.111 A 
ATOM     11  C   UNL     1      -2.972   4.467  -1.148  0.00  0.00    +0.020 A 
ATOM     12  C   UNL     1      -2.722   3.122  -0.920  0.00  0.00    +0.008 A 
ENDBRANCH   3   7
TORSDOF 1
ENDMDL
MODEL 9
REMARK VINA RESULT:    -2.679      1.997      4.595
REMARK INTER + INTRA:          -3.080
REMARK INTER:                  -2.865
REMARK INTRA:                  -0.215
REMARK UNBOUND:                -0.245
REMARK  Name = Nicotine.pdb
REMARK  2 active torsions:
REMARK  status: ('A' for Active; 'I' for Inactive)
REMARK    1  A    between atoms: C_3  and  C_6
REMARK    2  A    between atoms: N_4  and  C_12
REMARK                            x       y       z     vdW  Elec       q    Type
REMARK                         _______ _______ _______ _____ _____    ______ ____
ROOT
ATOM      1  C   UNL     1      -3.850   2.036  -3.943  0.00  0.00    +0.017 C 
ATOM      2  C   UNL     1      -2.683   1.095  -3.542  0.00  0.00    +0.025 C 
ATOM      3  C   UNL     1      -1.932   1.911  -2.470  0.00  0.00    +0.088 C 
ATOM      4  N   UNL     1      -2.272   3.329  -2.682  0.00  0.00    -0.298 NA
ATOM      5  C   UNL     1      -3.176   3.427  -3.848  0.00  0.00    +0.085 C 
ATOM      6  C   UNL     1      -2.894   3.907  -1.483  0.00  0.00    +0.105 C 
ENDROOT
BRANCH   3   7
ATOM      7  C   UNL     1      -0.446   1.711  -2.621  0.00  0.00    -0.012 A 
ATOM      8  C   UNL     1       0.072   1.170  -3.782  0.00  0.00    +0.115 A 
ATOM      9  N   UNL     1       1.371   0.992  -3.923  0.00  0.00    -0.263 NA
ATOM     10  C   UNL     1       2.222   1.318  -2.970  0.00  0.00    +0.111 A 
ATOM     11  C   UNL     1       1.778   1.865  -1.781  0.00  0.00    +0.020 A 
ATOM     12  C   UNL     1       0.419   2.072  -1.599  0.00  0.00    +0.008 A 
ENDBRANCH   3   7
TORSDOF 1
ENDMDL
MODEL 10
REMARK VINA RESULT:    -2.622      2.446      4.552
REMARK INTER + INTRA:          -3.020
REMARK INTER:                  -2.800
REMARK INTRA:                  -0.220
REMARK UNBOUND:                -0.245
REMARK  Name = Nicotine.pdb
REMARK  2 active torsions:
REMARK  status: ('A' for Active; 'I' for Inactive)
REMARK    1  A    between atoms: C_3  and  C_6
REMARK    2  A    between atoms: N_4  and  C_12
REMARK                            x       y       z     vdW  Elec       q    Type
REMARK                         _______ _______ _______ _____ _____    ______ ____
ROOT
ATOM      1  C   UNL     1      -3.395   0.536   0.593  0.00  0.00    +0.017 C 
ATOM      2  C   UNL     1      -3.027   1.858  -0.132  0.00  0.00    +0.025 C 
ATOM      3  C   UNL     1      -3.627   1.659  -1.541  0.00  0.00    +0.088 C 
ATOM      4  N   UNL     1      -3.772   0.208  -1.753  0.00  0.00    -0.298 NA
ATOM      5  C   UNL     1      -3.267  -0.496  -0.555  0.00  0.00    +0.085 C 
ATOM      6  C   UNL     1      -5.171  -0.148  -2.024  0.00  0.00    +0.105 C 
ENDROOT
BRANCH   3   7
ATOM      7  C   UNL     1      -2.702   2.241  -2.578  0.00  0.00    -0.012 A 
ATOM      8  C   UNL     1      -2.855   1.915  -3.913  0.00  0.00    +0.115 A 
ATOM      9  N   UNL     1      -2.050   2.419  -4.827  0.00  0.00    -0.263 NA
ATOM     10  C   UNL     1      -1.075   3.248  -4.511  0.00  0.00    +0.111 A 
ATOM     11  C   UNL     1      -0.861   3.620  -3.197  0.00  0.00    +0.020 A 
ATOM     12  C   UNL     1      -1.690   3.114  -2.208  0.00  0.00    +0.008 A 
ENDBRANCH   3   7
TORSDOF 1
ENDMDL
