MODEL 1
REMARK VINA RESULT:    -5.169      0.000      0.000
REMARK INTER + INTRA:          -5.727
REMARK INTER:                  -5.471
REMARK INTRA:                  -0.256
REMARK UNBOUND:                -0.256
REMARK  Name = Nicotine.pdb
REMARK  2 active torsions:
REMARK  status: ('A' for Active; 'I' for Inactive)
REMARK    1  A    between atoms: C_3  and  C_6
REMARK    2  A    between atoms: N_4  and  C_12
REMARK                            x       y       z     vdW  Elec       q    Type
REMARK                         _______ _______ _______ _____ _____    ______ ____
ROOT
ATOM      1  C   UNL     1       5.373  -3.816  -3.945  0.00  0.00    +0.017 C 
ATOM      2  C   UNL     1       6.305  -2.965  -3.042  0.00  0.00    +0.025 C 
ATOM      3  C   UNL     1       5.437  -1.732  -2.712  0.00  0.00    +0.088 C 
ATOM      4  N   UNL     1       4.410  -1.626  -3.764  0.00  0.00    -0.298 NA
ATOM      5  C   UNL     1       4.619  -2.719  -4.738  0.00  0.00    +0.085 C 
ATOM      6  C   UNL     1       3.059  -1.684  -3.189  0.00  0.00    +0.105 C 
ENDROOT
BRANCH   3   7
ATOM      7  C   UNL     1       6.292  -0.491  -2.702  0.00  0.00    -0.012 A 
ATOM      8  C   UNL     1       5.895   0.625  -1.989  0.00  0.00    +0.115 A 
ATOM      9  N   UNL     1       6.638   1.715  -1.975  0.00  0.00    -0.263 NA
ATOM     10  C   UNL     1       7.778   1.785  -2.633  0.00  0.00    +0.111 A 
ATOM     11  C   UNL     1       8.239   0.709  -3.368  0.00  0.00    +0.020 A 
ATOM     12  C   UNL     1       7.488  -0.456  -3.402  0.00  0.00    +0.008 A 
ENDBRANCH   3   7
TORSDOF 1
ENDMDL
MODEL 2
REMARK VINA RESULT:    -4.978      1.320      2.060
REMARK INTER + INTRA:          -5.525
REMARK INTER:                  -5.310
REMARK INTRA:                  -0.215
REMARK UNBOUND:                -0.256
REMARK  Name = Nicotine.pdb
REMARK  2 active torsions:
REMARK  status: ('A' for Active; 'I' for Inactive)
REMARK    1  A    between atoms: C_3  and  C_6
REMARK    2  A    between atoms: N_4  and  C_12
REMARK                            x       y       z     vdW  Elec       q    Type
REMARK                         _______ _______ _______ _____ _____    ______ ____
ROOT
ATOM      1  C   UNL     1       4.121  -2.443  -2.938  0.00  0.00    +0.017 C 
ATOM      2  C   UNL     1       4.640  -1.108  -3.533  0.00  0.00    +0.025 C 
ATOM      3  C   UNL     1       6.173  -1.291  -3.509  0.00  0.00    +0.088 C 
ATOM      4  N   UNL     1       6.475  -2.317  -2.496  0.00  0.00    -0.298 NA
ATOM      5  C   UNL     1       5.206  -2.756  -1.877  0.00  0.00    +0.085 C 
ATOM      6  C   UNL     1       7.191  -3.452  -3.092  0.00  0.00    +0.105 C 
ENDROOT
BRANCH   3   7
ATOM      7  C   UNL     1       6.838   0.009  -3.139  0.00  0.00    -0.012 A 
ATOM      8  C   UNL     1       6.143   0.976  -2.437  0.00  0.00    +0.115 A 
ATOM      9  N   UNL     1       6.718   2.116  -2.109  0.00  0.00    -0.263 NA
ATOM     10  C   UNL     1       7.968   2.380  -2.433  0.00  0.00    +0.111 A 
ATOM     11  C   UNL     1       8.727   1.462  -3.134  0.00  0.00    +0.020 A 
ATOM     12  C   UNL     1       8.157   0.249  -3.492  0.00  0.00    +0.008 A 
ENDBRANCH   3   7
TORSDOF 1
ENDMDL
MODEL 3
REMARK VINA RESULT:    -4.740      1.391      4.270
REMARK INTER + INTRA:          -5.274
REMARK INTER:                  -5.018
REMARK INTRA:                  -0.256
REMARK UNBOUND:                -0.256
REMARK  Name = Nicotine.pdb
REMARK  2 active torsions:
REMARK  status: ('A' for Active; 'I' for Inactive)
REMARK    1  A    between atoms: C_3  and  C_6
REMARK    2  A    between atoms: N_4  and  C_12
REMARK                            x       y       z     vdW  Elec       q    Type
REMARK                         _______ _______ _______ _____ _____    ______ ____
ROOT
ATOM      1  C   UNL     1       7.243   1.257  -2.640  0.00  0.00    +0.017 C 
ATOM      2  C   UNL     1       7.480  -0.019  -3.490  0.00  0.00    +0.025 C 
ATOM      3  C   UNL     1       6.048  -0.531  -3.755  0.00  0.00    +0.088 C 
ATOM      4  N   UNL     1       5.181   0.032  -2.704  0.00  0.00    -0.298 NA
ATOM      5  C   UNL     1       6.014   0.844  -1.791  0.00  0.00    +0.085 C 
ATOM      6  C   UNL     1       4.101   0.838  -3.288  0.00  0.00    +0.105 C 
ENDROOT
BRANCH   3   7
ATOM      7  C   UNL     1       6.021  -2.036  -3.692  0.00  0.00    -0.012 A 
ATOM      8  C   UNL     1       4.966  -2.740  -4.240  0.00  0.00    +0.115 A 
ATOM      9  N   UNL     1       4.935  -4.057  -4.189  0.00  0.00    -0.263 NA
ATOM     10  C   UNL     1       5.899  -4.752  -3.618  0.00  0.00    +0.111 A 
ATOM     11  C   UNL     1       6.987  -4.117  -3.049  0.00  0.00    +0.020 A 
ATOM     12  C   UNL     1       7.057  -2.733  -3.088  0.00  0.00    +0.008 A 
ENDBRANCH   3   7
TORSDOF 1
ENDMDL
MODEL 4
REMARK VINA RESULT:    -4.360      1.270      2.269
REMARK INTER + INTRA:          -4.870
REMARK INTER:                  -4.686
REMARK INTRA:                  -0.184
REMARK UNBOUND:                -0.256
REMARK  Name = Nicotine.pdb
REMARK  2 active torsions:
REMARK  status: ('A' for Active; 'I' for Inactive)
REMARK    1  A    between atoms: C_3  and  C_6
REMARK    2  A    between atoms: N_4  and  C_12
REMARK                            x       y       z     vdW  Elec       q    Type
REMARK                         _______ _______ _______ _____ _____    ______ ____
ROOT
ATOM      1  C   UNL     1       2.036  -2.473  -3.131  0.00  0.00    +0.017 C 
ATOM      2  C   UNL     1       2.636  -1.077  -3.447  0.00  0.00    +0.025 C 
ATOM      3  C   UNL     1       4.007  -1.421  -4.065  0.00  0.00    +0.088 C 
ATOM      4  N   UNL     1       4.368  -2.774  -3.604  0.00  0.00    -0.298 NA
ATOM      5  C   UNL     1       3.297  -3.268  -2.712  0.00  0.00    +0.085 C 
ATOM      6  C   UNL     1       4.569  -3.682  -4.740  0.00  0.00    +0.105 C 
ENDROOT
BRANCH   3   7
ATOM      7  C   UNL     1       5.042  -0.427  -3.603  0.00  0.00    -0.012 A 
ATOM      8  C   UNL     1       4.663   0.840  -3.201  0.00  0.00    +0.115 A 
ATOM      9  N   UNL     1       5.562   1.715  -2.795  0.00  0.00    -0.263 NA
ATOM     10  C   UNL     1       6.847   1.422  -2.755  0.00  0.00    +0.111 A 
ATOM     11  C   UNL     1       7.300   0.174  -3.141  0.00  0.00    +0.020 A 
ATOM     12  C   UNL     1       6.384  -0.774  -3.569  0.00  0.00    +0.008 A 
ENDBRANCH   3   7
TORSDOF 1
ENDMDL
MODEL 5
REMARK VINA RESULT:    -4.248      2.745      6.300
REMARK INTER + INTRA:          -4.753
REMARK INTER:                  -4.532
REMARK INTRA:                  -0.220
REMARK UNBOUND:                -0.256
REMARK  Name = Nicotine.pdb
REMARK  2 active torsions:
REMARK  status: ('A' for Active; 'I' for Inactive)
REMARK    1  A    between atoms: C_3  and  C_6
REMARK    2  A    between atoms: N_4  and  C_12
REMARK                            x       y       z     vdW  Elec       q    Type
REMARK                         _______ _______ _______ _____ _____    ______ ____
ROOT
ATOM      1  C   UNL     1      10.589   4.272  -0.464  0.00  0.00    +0.017 C 
ATOM      2  C   UNL     1      10.313   3.114  -1.460  0.00  0.00    +0.025 C 
ATOM      3  C   UNL     1       9.107   3.635  -2.271  0.00  0.00    +0.088 C 
ATOM      4  N   UNL     1       8.437   4.658  -1.450  0.00  0.00    -0.298 NA
ATOM      5  C   UNL     1       9.155   4.774  -0.163  0.00  0.00    +0.085 C 
ATOM      6  C   UNL     1       8.394   5.950  -2.148  0.00  0.00    +0.105 C 
ENDROOT
BRANCH   3   7
ATOM      7  C   UNL     1       8.156   2.503  -2.560  0.00  0.00    -0.012 A 
ATOM      8  C   UNL     1       6.803   2.648  -2.318  0.00  0.00    +0.115 A 
ATOM      9  N   UNL     1       5.963   1.662  -2.568  0.00  0.00    -0.263 NA
ATOM     10  C   UNL     1       6.375   0.508  -3.054  0.00  0.00    +0.111 A 
ATOM     11  C   UNL     1       7.714   0.289  -3.321  0.00  0.00    +0.020 A 
ATOM     12  C   UNL     1       8.625   1.304  -3.076  0.00  0.00    +0.008 A 
ENDBRANCH   3   7
TORSDOF 1
ENDMDL
MODEL 6
REMARK VINA RESULT:    -4.217      1.440      1.941
REMARK INTER + INTRA:          -4.720
REMARK INTER:                  -4.518
REMARK INTRA:                  -0.201
REMARK UNBOUND:                -0.256
REMARK  Name = Nicotine.pdb
REMARK  2 active torsions:
REMARK  status: ('A' for Active; 'I' for Inactive)
REMARK    1  A    between atoms: C_3  and  C_6
REMARK    2  A    between atoms: N_4  and  C_12
REMARK                            x       y       z     vdW  Elec       q    Type
REMARK                         _______ _______ _______ _____ _____    ______ ____
ROOT
ATOM      1  C   UNL     1       4.742  -4.514  -4.919  0.00  0.00    +0.017 C 
ATOM      2  C   UNL     1       5.451  -3.667  -3.830  0.00  0.00    +0.025 C 
ATOM      3  C   UNL     1       4.500  -2.464  -3.651  0.00  0.00    +0.088 C 
ATOM      4  N   UNL     1       3.699  -2.354  -4.884  0.00  0.00    -0.298 NA
ATOM      5  C   UNL     1       4.129  -3.414  -5.821  0.00  0.00    +0.085 C 
ATOM      6  C   UNL     1       2.264  -2.460  -4.590  0.00  0.00    +0.105 C 
ENDROOT
BRANCH   3   7
ATOM      7  C   UNL     1       5.299  -1.204  -3.444  0.00  0.00    -0.012 A 
ATOM      8  C   UNL     1       6.680  -1.250  -3.410  0.00  0.00    +0.115 A 
ATOM      9  N   UNL     1       7.387  -0.152  -3.229  0.00  0.00    -0.263 NA
ATOM     10  C   UNL     1       6.813   1.025  -3.073  0.00  0.00    +0.111 A 
ATOM     11  C   UNL     1       5.436   1.148  -3.096  0.00  0.00    +0.020 A 
ATOM     12  C   UNL     1       4.660   0.016  -3.289  0.00  0.00    +0.008 A 
ENDBRANCH   3   7
TORSDOF 1
ENDMDL
MODEL 7
REMARK VINA RESULT:    -4.132      1.826      4.385
REMARK INTER + INTRA:          -4.630
REMARK INTER:                  -4.374
REMARK INTRA:                  -0.256
REMARK UNBOUND:                -0.256
REMARK  Name = Nicotine.pdb
REMARK  2 active torsions:
REMARK  status: ('A' for Active; 'I' for Inactive)
REMARK    1  A    between atoms: C_3  and  C_6
REMARK    2  A    between atoms: N_4  and  C_12
REMARK                            x       y       z     vdW  Elec       q    Type
REMARK                         _______ _______ _______ _____ _____    ______ ____
ROOT
ATOM      1  C   UNL     1       6.211  -4.044  -3.536  0.00  0.00    +0.017 C 
ATOM      2  C   UNL     1       4.831  -3.654  -4.128  0.00  0.00    +0.025 C 
ATOM      3  C   UNL     1       4.753  -2.137  -3.857  0.00  0.00    +0.088 C 
ATOM      4  N   UNL     1       5.676  -1.844  -2.745  0.00  0.00    -0.298 NA
ATOM      5  C   UNL     1       6.298  -3.110  -2.303  0.00  0.00    +0.085 C 
ATOM      6  C   UNL     1       6.696  -0.869  -3.151  0.00  0.00    +0.105 C 
ENDROOT
BRANCH   3   7
ATOM      7  C   UNL     1       3.347  -1.756  -3.471  0.00  0.00    -0.012 A 
ATOM      8  C   UNL     1       2.939  -0.437  -3.531  0.00  0.00    +0.115 A 
ATOM      9  N   UNL     1       1.710  -0.096  -3.195  0.00  0.00    -0.263 NA
ATOM     10  C   UNL     1       0.828  -0.989  -2.793  0.00  0.00    +0.111 A 
ATOM     11  C   UNL     1       1.164  -2.327  -2.708  0.00  0.00    +0.020 A 
ATOM     12  C   UNL     1       2.445  -2.725  -3.058  0.00  0.00    +0.008 A 
ENDBRANCH   3   7
TORSDOF 1
ENDMDL
MODEL 8
REMARK VINA RESULT:    -4.026      2.503      4.407
REMARK INTER + INTRA:          -4.517
REMARK INTER:                  -4.290
REMARK INTRA:                  -0.227
REMARK UNBOUND:                -0.256
REMARK  Name = Nicotine.pdb
REMARK  2 active torsions:
REMARK  status: ('A' for Active; 'I' for Inactive)
REMARK    1  A    between atoms: C_3  and  C_6
REMARK    2  A    between atoms: N_4  and  C_12
REMARK                            x       y       z     vdW  Elec       q    Type
REMARK                         _______ _______ _______ _____ _____    ______ ____
ROOT
ATOM      1  C   UNL     1       4.038  -0.298  -3.423  0.00  0.00    +0.017 C 
ATOM      2  C   UNL     1       5.382  -1.039  -3.650  0.00  0.00    +0.025 C 
ATOM      3  C   UNL     1       4.949  -2.327  -4.382  0.00  0.00    +0.088 C 
ATOM      4  N   UNL     1       3.527  -2.551  -4.067  0.00  0.00    -0.298 NA
ATOM      5  C   UNL     1       3.071  -1.478  -3.158  0.00  0.00    +0.085 C 
ATOM      6  C   UNL     1       2.715  -2.585  -5.291  0.00  0.00    +0.105 C 
ENDROOT
BRANCH   3   7
ATOM      7  C   UNL     1       5.772  -3.493  -3.898  0.00  0.00    -0.012 A 
ATOM      8  C   UNL     1       5.437  -4.784  -4.261  0.00  0.00    +0.115 A 
ATOM      9  N   UNL     1       6.152  -5.810  -3.843  0.00  0.00    -0.263 NA
ATOM     10  C   UNL     1       7.206  -5.649  -3.067  0.00  0.00    +0.111 A 
ATOM     11  C   UNL     1       7.602  -4.388  -2.663  0.00  0.00    +0.020 A 
ATOM     12  C   UNL     1       6.878  -3.285  -3.088  0.00  0.00    +0.008 A 
ENDBRANCH   3   7
TORSDOF 1
ENDMDL
MODEL 9
REMARK VINA RESULT:    -3.990      1.641      2.406
REMARK INTER + INTRA:          -4.479
REMARK INTER:                  -4.224
REMARK INTRA:                  -0.255
REMARK UNBOUND:                -0.256
REMARK  Name = Nicotine.pdb
REMARK  2 active torsions:
REMARK  status: ('A' for Active; 'I' for Inactive)
REMARK    1  A    between atoms: C_3  and  C_6
REMARK    2  A    between atoms: N_4  and  C_12
REMARK                            x       y       z     vdW  Elec       q    Type
REMARK                         _______ _______ _______ _____ _____    ______ ____
ROOT
ATOM      1  C   UNL     1       2.054  -3.920  -3.517  0.00  0.00    +0.017 C 
ATOM      2  C   UNL     1       3.200  -3.336  -2.650  0.00  0.00    +0.025 C 
ATOM      3  C   UNL     1       3.196  -1.840  -3.030  0.00  0.00    +0.088 C 
ATOM      4  N   UNL     1       2.553  -1.727  -4.352  0.00  0.00    -0.298 NA
ATOM      5  C   UNL     1       2.185  -3.083  -4.814  0.00  0.00    +0.085 C 
ATOM      6  C   UNL     1       1.375  -0.853  -4.292  0.00  0.00    +0.105 C 
ENDROOT
BRANCH   3   7
ATOM      7  C   UNL     1       4.610  -1.325  -3.100  0.00  0.00    -0.012 A 
ATOM      8  C   UNL     1       4.859   0.034  -3.108  0.00  0.00    +0.115 A 
ATOM      9  N   UNL     1       6.094   0.493  -3.169  0.00  0.00    -0.263 NA
ATOM     10  C   UNL     1       7.132  -0.317  -3.225  0.00  0.00    +0.111 A 
ATOM     11  C   UNL     1       6.961  -1.688  -3.221  0.00  0.00    +0.020 A 
ATOM     12  C   UNL     1       5.678  -2.208  -3.153  0.00  0.00    +0.008 A 
ENDBRANCH   3   7
TORSDOF 1
ENDMDL
MODEL 10
REMARK VINA RESULT:    -3.909      1.961      2.951
REMARK INTER + INTRA:          -4.394
REMARK INTER:                  -4.179
REMARK INTRA:                  -0.215
REMARK UNBOUND:                -0.256
REMARK  Name = Nicotine.pdb
REMARK  2 active torsions:
REMARK  status: ('A' for Active; 'I' for Inactive)
REMARK    1  A    between atoms: C_3  and  C_6
REMARK    2  A    between atoms: N_4  and  C_12
REMARK                            x       y       z     vdW  Elec       q    Type
REMARK                         _______ _______ _______ _____ _____    ______ ____
ROOT
ATOM      1  C   UNL     1       4.678  -4.943  -4.199  0.00  0.00    +0.017 C 
ATOM      2  C   UNL     1       4.491  -3.528  -4.807  0.00  0.00    +0.025 C 
ATOM      3  C   UNL     1       5.572  -2.695  -4.086  0.00  0.00    +0.088 C 
ATOM      4  N   UNL     1       5.901  -3.398  -2.832  0.00  0.00    -0.298 NA
ATOM      5  C   UNL     1       5.058  -4.608  -2.735  0.00  0.00    +0.085 C 
ATOM      6  C   UNL     1       7.328  -3.744  -2.781  0.00  0.00    +0.105 C 
ENDROOT
BRANCH   3   7
ATOM      7  C   UNL     1       5.040  -1.319  -3.779  0.00  0.00    -0.012 A 
ATOM      8  C   UNL     1       3.679  -1.103  -3.677  0.00  0.00    +0.115 A 
ATOM      9  N   UNL     1       3.205   0.098  -3.409  0.00  0.00    -0.263 NA
ATOM     10  C   UNL     1       4.001   1.133  -3.229  0.00  0.00    +0.111 A 
ATOM     11  C   UNL     1       5.374   0.994  -3.315  0.00  0.00    +0.020 A 
ATOM     12  C   UNL     1       5.909  -0.255  -3.590  0.00  0.00    +0.008 A 
ENDBRANCH   3   7
TORSDOF 1
ENDMDL
