MODEL 1
REMARK VINA RESULT:    -0.156      0.000      0.000
REMARK INTER + INTRA:          -0.414
REMARK INTER:                  -0.165
REMARK INTRA:                  -0.249
REMARK UNBOUND:                -0.249
REMARK  Name = Nicotine.pdb
REMARK  2 active torsions:
REMARK  status: ('A' for Active; 'I' for Inactive)
REMARK    1  A    between atoms: C_3  and  C_6
REMARK    2  A    between atoms: N_4  and  C_12
REMARK                            x       y       z     vdW  Elec       q    Type
REMARK                         _______ _______ _______ _____ _____    ______ ____
ROOT
ATOM      1  C   UNL     1       8.285  -5.451  -4.073  0.00  0.00    +0.017 C 
ATOM      2  C   UNL     1       8.143  -5.007  -2.593  0.00  0.00    +0.025 C 
ATOM      3  C   UNL     1       9.465  -4.255  -2.328  0.00  0.00    +0.088 C 
ATOM      4  N   UNL     1      10.446  -4.733  -3.319  0.00  0.00    -0.298 NA
ATOM      5  C   UNL     1       9.800  -5.760  -4.163  0.00  0.00    +0.085 C 
ATOM      6  C   UNL     1      10.954  -3.623  -4.135  0.00  0.00    +0.105 C 
ENDROOT
BRANCH   3   7
ATOM      7  C   UNL     1       9.954  -4.553  -0.935  0.00  0.00    -0.012 A 
ATOM      8  C   UNL     1      10.516  -3.554  -0.162  0.00  0.00    +0.115 A 
ATOM      9  N   UNL     1      10.947  -3.807   1.058  0.00  0.00    -0.263 NA
ATOM     10  C   UNL     1      10.862  -5.011   1.588  0.00  0.00    +0.111 A 
ATOM     11  C   UNL     1      10.311  -6.060   0.875  0.00  0.00    +0.020 A 
ATOM     12  C   UNL     1       9.842  -5.831  -0.409  0.00  0.00    +0.008 A 
ENDBRANCH   3   7
TORSDOF 1
ENDMDL
MODEL 2
REMARK VINA RESULT:    -0.010      2.306      4.051
REMARK INTER + INTRA:          -0.260
REMARK INTER:                  -0.047
REMARK INTRA:                  -0.213
REMARK UNBOUND:                -0.249
REMARK  Name = Nicotine.pdb
REMARK  2 active torsions:
REMARK  status: ('A' for Active; 'I' for Inactive)
REMARK    1  A    between atoms: C_3  and  C_6
REMARK    2  A    between atoms: N_4  and  C_12
REMARK                            x       y       z     vdW  Elec       q    Type
REMARK                         _______ _______ _______ _____ _____    ______ ____
ROOT
ATOM      1  C   UNL     1      10.921  -6.084  -1.437  0.00  0.00    +0.017 C 
ATOM      2  C   UNL     1       9.429  -6.033  -1.014  0.00  0.00    +0.025 C 
ATOM      3  C   UNL     1       8.695  -5.826  -2.356  0.00  0.00    +0.088 C 
ATOM      4  N   UNL     1       9.666  -5.242  -3.299  0.00  0.00    -0.298 NA
ATOM      5  C   UNL     1      10.953  -5.057  -2.596  0.00  0.00    +0.085 C 
ATOM      6  C   UNL     1       9.829  -6.097  -4.483  0.00  0.00    +0.105 C 
ENDROOT
BRANCH   3   7
ATOM      7  C   UNL     1       7.534  -4.885  -2.165  0.00  0.00    -0.012 A 
ATOM      8  C   UNL     1       6.449  -5.260  -1.396  0.00  0.00    +0.115 A 
ATOM      9  N   UNL     1       5.429  -4.442  -1.223  0.00  0.00    -0.263 NA
ATOM     10  C   UNL     1       5.401  -3.244  -1.773  0.00  0.00    +0.111 A 
ATOM     11  C   UNL     1       6.450  -2.799  -2.555  0.00  0.00    +0.020 A 
ATOM     12  C   UNL     1       7.543  -3.629  -2.754  0.00  0.00    +0.008 A 
ENDBRANCH   3   7
TORSDOF 1
ENDMDL
MODEL 3
REMARK VINA RESULT:     0.168      2.274      3.573
REMARK INTER + INTRA:          -0.071
REMARK INTER:                   0.168
REMARK INTRA:                  -0.239
REMARK UNBOUND:                -0.249
REMARK  Name = Nicotine.pdb
REMARK  2 active torsions:
REMARK  status: ('A' for Active; 'I' for Inactive)
REMARK    1  A    between atoms: C_3  and  C_6
REMARK    2  A    between atoms: N_4  and  C_12
REMARK                            x       y       z     vdW  Elec       q    Type
REMARK                         _______ _______ _______ _____ _____    ______ ____
ROOT
ATOM      1  C   UNL     1      10.785  -6.094  -3.761  0.00  0.00    +0.017 C 
ATOM      2  C   UNL     1       9.294  -5.712  -3.955  0.00  0.00    +0.025 C 
ATOM      3  C   UNL     1       9.084  -4.591  -2.915  0.00  0.00    +0.088 C 
ATOM      4  N   UNL     1      10.128  -4.748  -1.887  0.00  0.00    -0.298 NA
ATOM      5  C   UNL     1      10.954  -5.926  -2.230  0.00  0.00    +0.085 C 
ATOM      6  C   UNL     1      10.954  -3.538  -1.784  0.00  0.00    +0.105 C 
ENDROOT
BRANCH   3   7
ATOM      7  C   UNL     1       7.721  -4.722  -2.288  0.00  0.00    -0.012 A 
ATOM      8  C   UNL     1       6.905  -3.615  -2.151  0.00  0.00    +0.115 A 
ATOM      9  N   UNL     1       5.710  -3.721  -1.603  0.00  0.00    -0.263 NA
ATOM     10  C   UNL     1       5.248  -4.876  -1.167  0.00  0.00    +0.111 A 
ATOM     11  C   UNL     1       6.007  -6.026  -1.270  0.00  0.00    +0.020 A 
ATOM     12  C   UNL     1       7.266  -5.955  -1.846  0.00  0.00    +0.008 A 
ENDBRANCH   3   7
TORSDOF 1
ENDMDL
MODEL 4
REMARK VINA RESULT:     0.451      3.348      6.728
REMARK INTER + INTRA:           0.228
REMARK INTER:                   0.435
REMARK INTRA:                  -0.208
REMARK UNBOUND:                -0.249
REMARK  Name = Nicotine.pdb
REMARK  2 active torsions:
REMARK  status: ('A' for Active; 'I' for Inactive)
REMARK    1  A    between atoms: C_3  and  C_6
REMARK    2  A    between atoms: N_4  and  C_12
REMARK                            x       y       z     vdW  Elec       q    Type
REMARK                         _______ _______ _______ _____ _____    ______ ____
ROOT
ATOM      1  C   UNL     1       8.120  -3.781   5.868  0.00  0.00    +0.017 C 
ATOM      2  C   UNL     1       8.037  -4.328   4.419  0.00  0.00    +0.025 C 
ATOM      3  C   UNL     1       9.322  -5.173   4.292  0.00  0.00    +0.088 C 
ATOM      4  N   UNL     1      10.272  -4.678   5.305  0.00  0.00    -0.298 NA
ATOM      5  C   UNL     1       9.644  -3.553   6.030  0.00  0.00    +0.085 C 
ATOM      6  C   UNL     1      10.662  -5.750   6.230  0.00  0.00    +0.105 C 
ENDROOT
BRANCH   3   7
ATOM      7  C   UNL     1       9.909  -5.011   2.914  0.00  0.00    -0.012 A 
ATOM      8  C   UNL     1       9.977  -6.090   2.052  0.00  0.00    +0.115 A 
ATOM      9  N   UNL     1      10.490  -5.957   0.844  0.00  0.00    -0.263 NA
ATOM     10  C   UNL     1      10.954  -4.801   0.412  0.00  0.00    +0.111 A 
ATOM     11  C   UNL     1      10.918  -3.678   1.218  0.00  0.00    +0.020 A 
ATOM     12  C   UNL     1      10.382  -3.778   2.492  0.00  0.00    +0.008 A 
ENDBRANCH   3   7
TORSDOF 1
ENDMDL
MODEL 5
REMARK VINA RESULT:     2.005      3.075      4.514
REMARK INTER + INTRA:           1.873
REMARK INTER:                   2.129
REMARK INTRA:                  -0.256
REMARK UNBOUND:                -0.249
REMARK  Name = Nicotine.pdb
REMARK  2 active torsions:
REMARK  status: ('A' for Active; 'I' for Inactive)
REMARK    1  A    between atoms: C_3  and  C_6
REMARK    2  A    between atoms: N_4  and  C_12
REMARK                            x       y       z     vdW  Elec       q    Type
REMARK                         _______ _______ _______ _____ _____    ______ ____
ROOT
ATOM      1  C   UNL     1       5.710  -1.253  -3.380  0.00  0.00    +0.017 C 
ATOM      2  C   UNL     1       6.486  -2.500  -3.880  0.00  0.00    +0.025 C 
ATOM      3  C   UNL     1       6.360  -3.484  -2.698  0.00  0.00    +0.088 C 
ATOM      4  N   UNL     1       6.081  -2.685  -1.491  0.00  0.00    -0.298 NA
ATOM      5  C   UNL     1       6.054  -1.256  -1.870  0.00  0.00    +0.085 C 
ATOM      6  C   UNL     1       4.812  -3.090  -0.872  0.00  0.00    +0.105 C 
ENDROOT
BRANCH   3   7
ATOM      7  C   UNL     1       7.650  -4.244  -2.523  0.00  0.00    -0.012 A 
ATOM      8  C   UNL     1       7.674  -5.426  -1.807  0.00  0.00    +0.115 A 
ATOM      9  N   UNL     1       8.798  -6.097  -1.650  0.00  0.00    -0.263 NA
ATOM     10  C   UNL     1       9.936  -5.673  -2.164  0.00  0.00    +0.111 A 
ATOM     11  C   UNL     1       9.989  -4.500  -2.893  0.00  0.00    +0.020 A 
ATOM     12  C   UNL     1       8.826  -3.770  -3.084  0.00  0.00    +0.008 A 
ENDBRANCH   3   7
TORSDOF 1
ENDMDL
MODEL 6
REMARK VINA RESULT:     2.836      2.817      4.356
REMARK INTER + INTRA:           2.753
REMARK INTER:                   2.922
REMARK INTRA:                  -0.170
REMARK UNBOUND:                -0.249
REMARK  Name = Nicotine.pdb
REMARK  2 active torsions:
REMARK  status: ('A' for Active; 'I' for Inactive)
REMARK    1  A    between atoms: C_3  and  C_6
REMARK    2  A    between atoms: N_4  and  C_12
REMARK                            x       y       z     vdW  Elec       q    Type
REMARK                         _______ _______ _______ _____ _____    ______ ____
ROOT
ATOM      1  C   UNL     1       9.576  -6.095  -3.439  0.00  0.00    +0.017 C 
ATOM      2  C   UNL     1       8.407  -5.212  -3.949  0.00  0.00    +0.025 C 
ATOM      3  C   UNL     1       8.654  -3.865  -3.237  0.00  0.00    +0.088 C 
ATOM      4  N   UNL     1       9.479  -4.144  -2.048  0.00  0.00    -0.298 NA
ATOM      5  C   UNL     1       9.730  -5.599  -1.980  0.00  0.00    +0.085 C 
ATOM      6  C   UNL     1      10.740  -3.393  -2.093  0.00  0.00    +0.105 C 
ENDROOT
BRANCH   3   7
ATOM      7  C   UNL     1       7.340  -3.257  -2.820  0.00  0.00    -0.012 A 
ATOM      8  C   UNL     1       6.698  -3.696  -1.677  0.00  0.00    +0.115 A 
ATOM      9  N   UNL     1       5.548  -3.169  -1.305  0.00  0.00    -0.263 NA
ATOM     10  C   UNL     1       4.967  -2.211  -2.001  0.00  0.00    +0.111 A 
ATOM     11  C   UNL     1       5.550  -1.721  -3.154  0.00  0.00    +0.020 A 
ATOM     12  C   UNL     1       6.762  -2.247  -3.574  0.00  0.00    +0.008 A 
ENDBRANCH   3   7
TORSDOF 1
ENDMDL
