MODEL 1
REMARK VINA RESULT:    -2.666      0.000      0.000
REMARK INTER + INTRA:          -3.062
REMARK INTER:                  -2.822
REMARK INTRA:                  -0.240
REMARK UNBOUND:                -0.240
REMARK  Name = Nicotine.pdb
REMARK  2 active torsions:
REMARK  status: ('A' for Active; 'I' for Inactive)
REMARK    1  A    between atoms: C_3  and  C_6
REMARK    2  A    between atoms: N_4  and  C_12
REMARK                            x       y       z     vdW  Elec       q    Type
REMARK                         _______ _______ _______ _____ _____    ______ ____
ROOT
ATOM      1  C   UNL     1      -5.078   6.869   4.664  0.00  0.00    +0.017 C 
ATOM      2  C   UNL     1      -5.142   7.027   3.121  0.00  0.00    +0.025 C 
ATOM      3  C   UNL     1      -4.990   5.576   2.618  0.00  0.00    +0.088 C 
ATOM      4  N   UNL     1      -4.333   4.808   3.691  0.00  0.00    -0.298 NA
ATOM      5  C   UNL     1      -4.050   5.721   4.819  0.00  0.00    +0.085 C 
ATOM      6  C   UNL     1      -5.171   3.681   4.122  0.00  0.00    +0.105 C 
ENDROOT
BRANCH   3   7
ATOM      7  C   UNL     1      -4.140   5.551   1.374  0.00  0.00    -0.012 A 
ATOM      8  C   UNL     1      -4.533   4.813   0.273  0.00  0.00    +0.115 A 
ATOM      9  N   UNL     1      -3.796   4.786  -0.820  0.00  0.00    -0.263 NA
ATOM     10  C   UNL     1      -2.663   5.455  -0.908  0.00  0.00    +0.111 A 
ATOM     11  C   UNL     1      -2.206   6.216   0.152  0.00  0.00    +0.020 A 
ATOM     12  C   UNL     1      -2.957   6.272   1.316  0.00  0.00    +0.008 A 
ENDBRANCH   3   7
TORSDOF 1
ENDMDL
MODEL 2
REMARK VINA RESULT:    -2.438      8.445      9.707
REMARK INTER + INTRA:          -2.821
REMARK INTER:                  -2.571
REMARK INTRA:                  -0.250
REMARK UNBOUND:                -0.240
REMARK  Name = Nicotine.pdb
REMARK  2 active torsions:
REMARK  status: ('A' for Active; 'I' for Inactive)
REMARK    1  A    between atoms: C_3  and  C_6
REMARK    2  A    between atoms: N_4  and  C_12
REMARK                            x       y       z     vdW  Elec       q    Type
REMARK                         _______ _______ _______ _____ _____    ______ ____
ROOT
ATOM      1  C   UNL     1       0.932   6.018  -5.960  0.00  0.00    +0.017 C 
ATOM      2  C   UNL     1       0.551   4.778  -6.811  0.00  0.00    +0.025 C 
ATOM      3  C   UNL     1      -0.970   4.950  -7.012  0.00  0.00    +0.088 C 
ATOM      4  N   UNL     1      -1.458   5.822  -5.928  0.00  0.00    -0.298 NA
ATOM      5  C   UNL     1      -0.317   6.174  -5.057  0.00  0.00    +0.085 C 
ATOM      6  C   UNL     1      -2.099   7.027  -6.470  0.00  0.00    +0.105 C 
ENDROOT
BRANCH   3   7
ATOM      7  C   UNL     1      -1.651   3.608  -6.938  0.00  0.00    -0.012 A 
ATOM      8  C   UNL     1      -2.991   3.486  -7.256  0.00  0.00    +0.115 A 
ATOM      9  N   UNL     1      -3.595   2.315  -7.194  0.00  0.00    -0.263 NA
ATOM     10  C   UNL     1      -2.953   1.222  -6.830  0.00  0.00    +0.111 A 
ATOM     11  C   UNL     1      -1.612   1.267  -6.498  0.00  0.00    +0.020 A 
ATOM     12  C   UNL     1      -0.942   2.479  -6.557  0.00  0.00    +0.008 A 
ENDBRANCH   3   7
TORSDOF 1
ENDMDL
MODEL 3
REMARK VINA RESULT:    -1.675      8.756     10.017
REMARK INTER + INTRA:          -2.013
REMARK INTER:                  -1.761
REMARK INTRA:                  -0.252
REMARK UNBOUND:                -0.240
REMARK  Name = Nicotine.pdb
REMARK  2 active torsions:
REMARK  status: ('A' for Active; 'I' for Inactive)
REMARK    1  A    between atoms: C_3  and  C_6
REMARK    2  A    between atoms: N_4  and  C_12
REMARK                            x       y       z     vdW  Elec       q    Type
REMARK                         _______ _______ _______ _____ _____    ______ ____
ROOT
ATOM      1  C   UNL     1       0.721   6.463  -5.772  0.00  0.00    +0.017 C 
ATOM      2  C   UNL     1      -0.397   5.502  -5.286  0.00  0.00    +0.025 C 
ATOM      3  C   UNL     1      -0.097   4.201  -6.061  0.00  0.00    +0.088 C 
ATOM      4  N   UNL     1       0.694   4.572  -7.248  0.00  0.00    -0.298 NA
ATOM      5  C   UNL     1       0.874   6.039  -7.255  0.00  0.00    +0.085 C 
ATOM      6  C   UNL     1       1.990   3.882  -7.255  0.00  0.00    +0.105 C 
ENDROOT
BRANCH   3   7
ATOM      7  C   UNL     1      -1.388   3.550  -6.486  0.00  0.00    -0.012 A 
ATOM      8  C   UNL     1      -1.505   2.173  -6.496  0.00  0.00    +0.115 A 
ATOM      9  N   UNL     1      -2.631   1.594  -6.866  0.00  0.00    -0.263 NA
ATOM     10  C   UNL     1      -3.682   2.298  -7.240  0.00  0.00    +0.111 A 
ATOM     11  C   UNL     1      -3.639   3.679  -7.255  0.00  0.00    +0.020 A 
ATOM     12  C   UNL     1      -2.474   4.323  -6.867  0.00  0.00    +0.008 A 
ENDBRANCH   3   7
TORSDOF 1
ENDMDL
MODEL 4
REMARK VINA RESULT:    -0.910      8.830      9.696
REMARK INTER + INTRA:          -1.204
REMARK INTER:                  -0.965
REMARK INTRA:                  -0.239
REMARK UNBOUND:                -0.240
REMARK  Name = Nicotine.pdb
REMARK  2 active torsions:
REMARK  status: ('A' for Active; 'I' for Inactive)
REMARK    1  A    between atoms: C_3  and  C_6
REMARK    2  A    between atoms: N_4  and  C_12
REMARK                            x       y       z     vdW  Elec       q    Type
REMARK                         _______ _______ _______ _____ _____    ______ ____
ROOT
ATOM      1  C   UNL     1      -2.219   1.386  -5.777  0.00  0.00    +0.017 C 
ATOM      2  C   UNL     1      -1.428   2.605  -5.232  0.00  0.00    +0.025 C 
ATOM      3  C   UNL     1      -2.053   3.793  -5.993  0.00  0.00    +0.088 C 
ATOM      4  N   UNL     1      -2.674   3.251  -7.215  0.00  0.00    -0.298 NA
ATOM      5  C   UNL     1      -2.440   1.792  -7.256  0.00  0.00    +0.085 C 
ATOM      6  C   UNL     1      -4.111   3.555  -7.256  0.00  0.00    +0.105 C 
ENDROOT
BRANCH   3   7
ATOM      7  C   UNL     1      -0.983   4.788  -6.359  0.00  0.00    -0.012 A 
ATOM      8  C   UNL     1      -1.176   6.138  -6.131  0.00  0.00    +0.115 A 
ATOM      9  N   UNL     1      -0.244   7.016  -6.448  0.00  0.00    -0.263 NA
ATOM     10  C   UNL     1       0.900   6.647  -6.990  0.00  0.00    +0.111 A 
ATOM     11  C   UNL     1       1.164   5.315  -7.247  0.00  0.00    +0.020 A 
ATOM     12  C   UNL     1       0.210   4.362  -6.922  0.00  0.00    +0.008 A 
ENDBRANCH   3   7
TORSDOF 1
ENDMDL
MODEL 5
REMARK VINA RESULT:    -0.749      1.249      4.553
REMARK INTER + INTRA:          -1.034
REMARK INTER:                  -0.826
REMARK INTRA:                  -0.207
REMARK UNBOUND:                -0.240
REMARK  Name = Nicotine.pdb
REMARK  2 active torsions:
REMARK  status: ('A' for Active; 'I' for Inactive)
REMARK    1  A    between atoms: C_3  and  C_6
REMARK    2  A    between atoms: N_4  and  C_12
REMARK                            x       y       z     vdW  Elec       q    Type
REMARK                         _______ _______ _______ _____ _____    ______ ____
ROOT
ATOM      1  C   UNL     1      -2.553   4.741  -1.108  0.00  0.00    +0.017 C 
ATOM      2  C   UNL     1      -3.106   4.229   0.248  0.00  0.00    +0.025 C 
ATOM      3  C   UNL     1      -4.298   5.172   0.516  0.00  0.00    +0.088 C 
ATOM      4  N   UNL     1      -4.068   6.400  -0.267  0.00  0.00    -0.298 NA
ATOM      5  C   UNL     1      -2.781   6.268  -0.982  0.00  0.00    +0.085 C 
ATOM      6  C   UNL     1      -5.171   6.640  -1.207  0.00  0.00    +0.105 C 
ENDROOT
BRANCH   3   7
ATOM      7  C   UNL     1      -4.370   5.504   1.983  0.00  0.00    -0.012 A 
ATOM      8  C   UNL     1      -4.816   4.563   2.892  0.00  0.00    +0.115 A 
ATOM      9  N   UNL     1      -4.883   4.846   4.178  0.00  0.00    -0.263 NA
ATOM     10  C   UNL     1      -4.530   6.026   4.648  0.00  0.00    +0.111 A 
ATOM     11  C   UNL     1      -4.073   7.017   3.799  0.00  0.00    +0.020 A 
ATOM     12  C   UNL     1      -3.985   6.755   2.441  0.00  0.00    +0.008 A 
ENDBRANCH   3   7
TORSDOF 1
ENDMDL
MODEL 6
REMARK VINA RESULT:    -0.477      8.746      9.642
REMARK INTER + INTRA:          -0.746
REMARK INTER:                  -0.559
REMARK INTRA:                  -0.186
REMARK UNBOUND:                -0.240
REMARK  Name = Nicotine.pdb
REMARK  2 active torsions:
REMARK  status: ('A' for Active; 'I' for Inactive)
REMARK    1  A    between atoms: C_3  and  C_6
REMARK    2  A    between atoms: N_4  and  C_12
REMARK                            x       y       z     vdW  Elec       q    Type
REMARK                         _______ _______ _______ _____ _____    ______ ____
ROOT
ATOM      1  C   UNL     1      -3.365   1.987  -6.991  0.00  0.00    +0.017 C 
ATOM      2  C   UNL     1      -3.006   3.473  -7.256  0.00  0.00    +0.025 C 
ATOM      3  C   UNL     1      -1.463   3.470  -7.218  0.00  0.00    +0.088 C 
ATOM      4  N   UNL     1      -1.048   2.284  -6.448  0.00  0.00    -0.298 NA
ATOM      5  C   UNL     1      -2.259   1.572  -5.989  0.00  0.00    +0.085 C 
ATOM      6  C   UNL     1      -0.193   1.404  -7.256  0.00  0.00    +0.105 C 
ENDROOT
BRANCH   3   7
ATOM      7  C   UNL     1      -0.964   4.721  -6.544  0.00  0.00    -0.012 A 
ATOM      8  C   UNL     1      -1.789   5.823  -6.417  0.00  0.00    +0.115 A 
ATOM      9  N   UNL     1      -1.360   6.923  -5.829  0.00  0.00    -0.263 NA
ATOM     10  C   UNL     1      -0.139   7.016  -5.341  0.00  0.00    +0.111 A 
ATOM     11  C   UNL     1       0.742   5.955  -5.430  0.00  0.00    +0.020 A 
ATOM     12  C   UNL     1       0.325   4.780  -6.037  0.00  0.00    +0.008 A 
ENDBRANCH   3   7
TORSDOF 1
ENDMDL
