MODEL 1
REMARK VINA RESULT:    -2.991      0.000      0.000
REMARK INTER + INTRA:          -3.379
REMARK INTER:                  -3.165
REMARK INTRA:                  -0.213
REMARK UNBOUND:                -0.213
REMARK  Name = Nicotine.pdb
REMARK  2 active torsions:
REMARK  status: ('A' for Active; 'I' for Inactive)
REMARK    1  A    between atoms: C_3  and  C_6
REMARK    2  A    between atoms: N_4  and  C_12
REMARK                            x       y       z     vdW  Elec       q    Type
REMARK                         _______ _______ _______ _____ _____    ______ ____
ROOT
ATOM      1  C   UNL     1       3.937   7.021  -3.043  0.00  0.00    +0.017 C 
ATOM      2  C   UNL     1       4.577   6.599  -1.695  0.00  0.00    +0.025 C 
ATOM      3  C   UNL     1       3.882   5.256  -1.386  0.00  0.00    +0.088 C 
ATOM      4  N   UNL     1       2.614   5.237  -2.137  0.00  0.00    -0.298 NA
ATOM      5  C   UNL     1       2.483   6.513  -2.872  0.00  0.00    +0.085 C 
ATOM      6  C   UNL     1       2.562   4.092  -3.055  0.00  0.00    +0.105 C 
ENDROOT
BRANCH   3   7
ATOM      7  C   UNL     1       3.606   5.149   0.091  0.00  0.00    -0.012 A 
ATOM      8  C   UNL     1       3.318   6.279   0.832  0.00  0.00    +0.115 A 
ATOM      9  N   UNL     1       3.075   6.195   2.126  0.00  0.00    -0.263 NA
ATOM     10  C   UNL     1       3.098   5.040   2.761  0.00  0.00    +0.111 A 
ATOM     11  C   UNL     1       3.378   3.866   2.086  0.00  0.00    +0.020 A 
ATOM     12  C   UNL     1       3.633   3.915   0.724  0.00  0.00    +0.008 A 
ENDBRANCH   3   7
TORSDOF 1
ENDMDL
MODEL 2
REMARK VINA RESULT:    -2.879      2.283      3.802
REMARK INTER + INTRA:          -3.261
REMARK INTER:                  -3.005
REMARK INTRA:                  -0.256
REMARK UNBOUND:                -0.213
REMARK  Name = Nicotine.pdb
REMARK  2 active torsions:
REMARK  status: ('A' for Active; 'I' for Inactive)
REMARK    1  A    between atoms: C_3  and  C_6
REMARK    2  A    between atoms: N_4  and  C_12
REMARK                            x       y       z     vdW  Elec       q    Type
REMARK                         _______ _______ _______ _____ _____    ______ ____
ROOT
ATOM      1  C   UNL     1       3.512   5.448  -0.014  0.00  0.00    +0.017 C 
ATOM      2  C   UNL     1       3.175   4.623   1.256  0.00  0.00    +0.025 C 
ATOM      3  C   UNL     1       1.912   5.324   1.800  0.00  0.00    +0.088 C 
ATOM      4  N   UNL     1       1.904   6.694   1.257  0.00  0.00    -0.298 NA
ATOM      5  C   UNL     1       3.114   6.878   0.426  0.00  0.00    +0.085 C 
ATOM      6  C   UNL     1       0.686   6.945   0.476  0.00  0.00    +0.105 C 
ENDROOT
BRANCH   3   7
ATOM      7  C   UNL     1       1.958   5.368   3.305  0.00  0.00    -0.012 A 
ATOM      8  C   UNL     1       0.800   5.561   4.034  0.00  0.00    +0.115 A 
ATOM      9  N   UNL     1       0.831   5.601   5.352  0.00  0.00    -0.263 NA
ATOM     10  C   UNL     1       1.957   5.460   6.023  0.00  0.00    +0.111 A 
ATOM     11  C   UNL     1       3.155   5.262   5.362  0.00  0.00    +0.020 A 
ATOM     12  C   UNL     1       3.160   5.209   3.977  0.00  0.00    +0.008 A 
ENDBRANCH   3   7
TORSDOF 1
ENDMDL
MODEL 3
REMARK VINA RESULT:    -2.832      1.744      4.334
REMARK INTER + INTRA:          -3.211
REMARK INTER:                  -2.999
REMARK INTRA:                  -0.212
REMARK UNBOUND:                -0.213
REMARK  Name = Nicotine.pdb
REMARK  2 active torsions:
REMARK  status: ('A' for Active; 'I' for Inactive)
REMARK    1  A    between atoms: C_3  and  C_6
REMARK    2  A    between atoms: N_4  and  C_12
REMARK                            x       y       z     vdW  Elec       q    Type
REMARK                         _______ _______ _______ _____ _____    ______ ____
ROOT
ATOM      1  C   UNL     1       2.332   5.375   2.677  0.00  0.00    +0.017 C 
ATOM      2  C   UNL     1       3.420   5.765   1.642  0.00  0.00    +0.025 C 
ATOM      3  C   UNL     1       2.603   6.418   0.507  0.00  0.00    +0.088 C 
ATOM      4  N   UNL     1       1.220   5.919   0.622  0.00  0.00    -0.298 NA
ATOM      5  C   UNL     1       1.154   4.972   1.755  0.00  0.00    +0.085 C 
ATOM      6  C   UNL     1       0.273   7.026   0.804  0.00  0.00    +0.105 C 
ENDROOT
BRANCH   3   7
ATOM      7  C   UNL     1       3.180   6.030  -0.829  0.00  0.00    -0.012 A 
ATOM      8  C   UNL     1       4.428   6.486  -1.210  0.00  0.00    +0.115 A 
ATOM      9  N   UNL     1       4.941   6.152  -2.378  0.00  0.00    -0.263 NA
ATOM     10  C   UNL     1       4.291   5.377  -3.224  0.00  0.00    +0.111 A 
ATOM     11  C   UNL     1       3.039   4.882  -2.911  0.00  0.00    +0.020 A 
ATOM     12  C   UNL     1       2.470   5.208  -1.690  0.00  0.00    +0.008 A 
ENDBRANCH   3   7
TORSDOF 1
ENDMDL
MODEL 4
REMARK VINA RESULT:    -2.780      2.161      4.938
REMARK INTER + INTRA:          -3.155
REMARK INTER:                  -2.948
REMARK INTRA:                  -0.207
REMARK UNBOUND:                -0.213
REMARK  Name = Nicotine.pdb
REMARK  2 active torsions:
REMARK  status: ('A' for Active; 'I' for Inactive)
REMARK    1  A    between atoms: C_3  and  C_6
REMARK    2  A    between atoms: N_4  and  C_12
REMARK                            x       y       z     vdW  Elec       q    Type
REMARK                         _______ _______ _______ _____ _____    ______ ____
ROOT
ATOM      1  C   UNL     1       3.609   1.168   3.454  0.00  0.00    +0.017 C 
ATOM      2  C   UNL     1       2.767   2.148   2.595  0.00  0.00    +0.025 C 
ATOM      3  C   UNL     1       3.753   2.574   1.487  0.00  0.00    +0.088 C 
ATOM      4  N   UNL     1       5.115   2.340   2.000  0.00  0.00    -0.298 NA
ATOM      5  C   UNL     1       5.015   1.815   3.379  0.00  0.00    +0.085 C 
ATOM      6  C   UNL     1       5.852   1.411   1.135  0.00  0.00    +0.105 C 
ENDROOT
BRANCH   3   7
ATOM      7  C   UNL     1       3.567   4.035   1.169  0.00  0.00    -0.012 A 
ATOM      8  C   UNL     1       3.348   4.948   2.182  0.00  0.00    +0.115 A 
ATOM      9  N   UNL     1       3.184   6.229   1.912  0.00  0.00    -0.263 NA
ATOM     10  C   UNL     1       3.222   6.687   0.677  0.00  0.00    +0.111 A 
ATOM     11  C   UNL     1       3.438   5.833  -0.388  0.00  0.00    +0.020 A 
ATOM     12  C   UNL     1       3.620   4.481  -0.143  0.00  0.00    +0.008 A 
ENDBRANCH   3   7
TORSDOF 1
ENDMDL
MODEL 5
REMARK VINA RESULT:    -2.775      1.037      1.604
REMARK INTER + INTRA:          -3.150
REMARK INTER:                  -2.936
REMARK INTRA:                  -0.214
REMARK UNBOUND:                -0.213
REMARK  Name = Nicotine.pdb
REMARK  2 active torsions:
REMARK  status: ('A' for Active; 'I' for Inactive)
REMARK    1  A    between atoms: C_3  and  C_6
REMARK    2  A    between atoms: N_4  and  C_12
REMARK                            x       y       z     vdW  Elec       q    Type
REMARK                         _______ _______ _______ _____ _____    ______ ____
ROOT
ATOM      1  C   UNL     1       1.881   6.555  -3.781  0.00  0.00    +0.017 C 
ATOM      2  C   UNL     1       2.057   7.000  -2.305  0.00  0.00    +0.025 C 
ATOM      3  C   UNL     1       3.441   6.427  -1.932  0.00  0.00    +0.088 C 
ATOM      4  N   UNL     1       3.719   5.317  -2.862  0.00  0.00    -0.298 NA
ATOM      5  C   UNL     1       2.563   5.164  -3.771  0.00  0.00    +0.085 C 
ATOM      6  C   UNL     1       4.955   5.559  -3.616  0.00  0.00    +0.105 C 
ENDROOT
BRANCH   3   7
ATOM      7  C   UNL     1       3.419   5.917  -0.515  0.00  0.00    -0.012 A 
ATOM      8  C   UNL     1       3.219   6.789   0.539  0.00  0.00    +0.115 A 
ATOM      9  N   UNL     1       3.198   6.350   1.783  0.00  0.00    -0.263 NA
ATOM     10  C   UNL     1       3.366   5.075   2.071  0.00  0.00    +0.111 A 
ATOM     11  C   UNL     1       3.571   4.144   1.069  0.00  0.00    +0.020 A 
ATOM     12  C   UNL     1       3.593   4.567  -0.251  0.00  0.00    +0.008 A 
ENDBRANCH   3   7
TORSDOF 1
ENDMDL
MODEL 6
REMARK VINA RESULT:    -2.754      1.705      2.621
REMARK INTER + INTRA:          -3.128
REMARK INTER:                  -2.915
REMARK INTRA:                  -0.213
REMARK UNBOUND:                -0.213
REMARK  Name = Nicotine.pdb
REMARK  2 active torsions:
REMARK  status: ('A' for Active; 'I' for Inactive)
REMARK    1  A    between atoms: C_3  and  C_6
REMARK    2  A    between atoms: N_4  and  C_12
REMARK                            x       y       z     vdW  Elec       q    Type
REMARK                         _______ _______ _______ _____ _____    ______ ____
ROOT
ATOM      1  C   UNL     1       4.105   5.373  -1.373  0.00  0.00    +0.017 C 
ATOM      2  C   UNL     1       3.567   4.602  -0.138  0.00  0.00    +0.025 C 
ATOM      3  C   UNL     1       2.286   5.382   0.227  0.00  0.00    +0.088 C 
ATOM      4  N   UNL     1       2.422   6.736  -0.341  0.00  0.00    -0.298 NA
ATOM      5  C   UNL     1       3.734   6.834  -1.015  0.00  0.00    +0.085 C 
ATOM      6  C   UNL     1       1.326   7.028  -1.274  0.00  0.00    +0.105 C 
ENDROOT
BRANCH   3   7
ATOM      7  C   UNL     1       2.146   5.466   1.725  0.00  0.00    -0.012 A 
ATOM      8  C   UNL     1       3.268   5.555   2.528  0.00  0.00    +0.115 A 
ATOM      9  N   UNL     1       3.154   5.628   3.840  0.00  0.00    -0.263 NA
ATOM     10  C   UNL     1       1.978   5.619   4.435  0.00  0.00    +0.111 A 
ATOM     11  C   UNL     1       0.812   5.533   3.698  0.00  0.00    +0.020 A 
ATOM     12  C   UNL     1       0.892   5.459   2.315  0.00  0.00    +0.008 A 
ENDBRANCH   3   7
TORSDOF 1
ENDMDL
MODEL 7
REMARK VINA RESULT:    -2.713      1.735      4.424
REMARK INTER + INTRA:          -3.085
REMARK INTER:                  -2.869
REMARK INTRA:                  -0.216
REMARK UNBOUND:                -0.213
REMARK  Name = Nicotine.pdb
REMARK  2 active torsions:
REMARK  status: ('A' for Active; 'I' for Inactive)
REMARK    1  A    between atoms: C_3  and  C_6
REMARK    2  A    between atoms: N_4  and  C_12
REMARK                            x       y       z     vdW  Elec       q    Type
REMARK                         _______ _______ _______ _____ _____    ______ ____
ROOT
ATOM      1  C   UNL     1       0.576   4.609   1.042  0.00  0.00    +0.017 C 
ATOM      2  C   UNL     1       1.358   4.015  -0.159  0.00  0.00    +0.025 C 
ATOM      3  C   UNL     1       2.789   4.549   0.061  0.00  0.00    +0.088 C 
ATOM      4  N   UNL     1       2.683   5.747   0.912  0.00  0.00    -0.298 NA
ATOM      5  C   UNL     1       1.254   5.992   1.205  0.00  0.00    +0.085 C 
ATOM      6  C   UNL     1       3.454   5.585   2.151  0.00  0.00    +0.105 C 
ENDROOT
BRANCH   3   7
ATOM      7  C   UNL     1       3.410   4.912  -1.263  0.00  0.00    -0.012 A 
ATOM      8  C   UNL     1       4.412   5.862  -1.328  0.00  0.00    +0.115 A 
ATOM      9  N   UNL     1       4.961   6.186  -2.483  0.00  0.00    -0.263 NA
ATOM     10  C   UNL     1       4.581   5.622  -3.613  0.00  0.00    +0.111 A 
ATOM     11  C   UNL     1       3.586   4.663  -3.626  0.00  0.00    +0.020 A 
ATOM     12  C   UNL     1       2.989   4.293  -2.430  0.00  0.00    +0.008 A 
ENDBRANCH   3   7
TORSDOF 1
ENDMDL
MODEL 8
REMARK VINA RESULT:    -2.701      2.119      2.959
REMARK INTER + INTRA:          -3.072
REMARK INTER:                  -2.819
REMARK INTRA:                  -0.253
REMARK UNBOUND:                -0.213
REMARK  Name = Nicotine.pdb
REMARK  2 active torsions:
REMARK  status: ('A' for Active; 'I' for Inactive)
REMARK    1  A    between atoms: C_3  and  C_6
REMARK    2  A    between atoms: N_4  and  C_12
REMARK                            x       y       z     vdW  Elec       q    Type
REMARK                         _______ _______ _______ _____ _____    ______ ____
ROOT
ATOM      1  C   UNL     1       4.267   5.583  -1.675  0.00  0.00    +0.017 C 
ATOM      2  C   UNL     1       3.720   6.457  -0.516  0.00  0.00    +0.025 C 
ATOM      3  C   UNL     1       3.235   5.411   0.510  0.00  0.00    +0.088 C 
ATOM      4  N   UNL     1       2.992   4.157  -0.227  0.00  0.00    -0.298 NA
ATOM      5  C   UNL     1       3.279   4.389  -1.658  0.00  0.00    +0.085 C 
ATOM      6  C   UNL     1       3.816   3.065   0.306  0.00  0.00    +0.105 C 
ENDROOT
BRANCH   3   7
ATOM      7  C   UNL     1       1.959   5.882   1.158  0.00  0.00    -0.012 A 
ATOM      8  C   UNL     1       1.700   5.589   2.484  0.00  0.00    +0.115 A 
ATOM      9  N   UNL     1       0.586   5.998   3.059  0.00  0.00    -0.263 NA
ATOM     10  C   UNL     1      -0.319   6.695   2.401  0.00  0.00    +0.111 A 
ATOM     11  C   UNL     1      -0.128   7.026   1.072  0.00  0.00    +0.020 A 
ATOM     12  C   UNL     1       1.034   6.619   0.435  0.00  0.00    +0.008 A 
ENDBRANCH   3   7
TORSDOF 1
ENDMDL
MODEL 9
REMARK VINA RESULT:    -2.632      3.483      5.196
REMARK INTER + INTRA:          -2.999
REMARK INTER:                  -2.790
REMARK INTRA:                  -0.210
REMARK UNBOUND:                -0.213
REMARK  Name = Nicotine.pdb
REMARK  2 active torsions:
REMARK  status: ('A' for Active; 'I' for Inactive)
REMARK    1  A    between atoms: C_3  and  C_6
REMARK    2  A    between atoms: N_4  and  C_12
REMARK                            x       y       z     vdW  Elec       q    Type
REMARK                         _______ _______ _______ _____ _____    ______ ____
ROOT
ATOM      1  C   UNL     1       6.893   3.087  -6.239  0.00  0.00    +0.017 C 
ATOM      2  C   UNL     1       5.410   3.249  -5.814  0.00  0.00    +0.025 C 
ATOM      3  C   UNL     1       5.316   4.745  -5.445  0.00  0.00    +0.088 C 
ATOM      4  N   UNL     1       6.681   5.204  -5.132  0.00  0.00    -0.298 NA
ATOM      5  C   UNL     1       7.606   4.058  -5.265  0.00  0.00    +0.085 C 
ATOM      6  C   UNL     1       7.081   6.309  -6.013  0.00  0.00    +0.105 C 
ENDROOT
BRANCH   3   7
ATOM      7  C   UNL     1       4.425   4.923  -4.243  0.00  0.00    -0.012 A 
ATOM      8  C   UNL     1       3.143   4.407  -4.241  0.00  0.00    +0.115 A 
ATOM      9  N   UNL     1       2.357   4.558  -3.193  0.00  0.00    -0.263 NA
ATOM     10  C   UNL     1       2.757   5.200  -2.113  0.00  0.00    +0.111 A 
ATOM     11  C   UNL     1       4.027   5.743  -2.042  0.00  0.00    +0.020 A 
ATOM     12  C   UNL     1       4.883   5.600  -3.123  0.00  0.00    +0.008 A 
ENDBRANCH   3   7
TORSDOF 1
ENDMDL
MODEL 10
REMARK VINA RESULT:    -2.589      2.842      4.650
REMARK INTER + INTRA:          -2.954
REMARK INTER:                  -2.714
REMARK INTRA:                  -0.240
REMARK UNBOUND:                -0.213
REMARK  Name = Nicotine.pdb
REMARK  2 active torsions:
REMARK  status: ('A' for Active; 'I' for Inactive)
REMARK    1  A    between atoms: C_3  and  C_6
REMARK    2  A    between atoms: N_4  and  C_12
REMARK                            x       y       z     vdW  Elec       q    Type
REMARK                         _______ _______ _______ _____ _____    ______ ____
ROOT
ATOM      1  C   UNL     1       3.142   1.982  -6.082  0.00  0.00    +0.017 C 
ATOM      2  C   UNL     1       2.587   3.070  -5.125  0.00  0.00    +0.025 C 
ATOM      3  C   UNL     1       3.692   4.148  -5.148  0.00  0.00    +0.088 C 
ATOM      4  N   UNL     1       4.939   3.486  -5.572  0.00  0.00    -0.298 NA
ATOM      5  C   UNL     1       4.661   2.050  -5.786  0.00  0.00    +0.085 C 
ATOM      6  C   UNL     1       5.477   4.107  -6.789  0.00  0.00    +0.105 C 
ENDROOT
BRANCH   3   7
ATOM      7  C   UNL     1       3.863   4.734  -3.771  0.00  0.00    -0.012 A 
ATOM      8  C   UNL     1       4.803   5.722  -3.544  0.00  0.00    +0.115 A 
ATOM      9  N   UNL     1       4.960   6.241  -2.342  0.00  0.00    -0.263 NA
ATOM     10  C   UNL     1       4.234   5.844  -1.315  0.00  0.00    +0.111 A 
ATOM     11  C   UNL     1       3.274   4.860  -1.466  0.00  0.00    +0.020 A 
ATOM     12  C   UNL     1       3.078   4.295  -2.716  0.00  0.00    +0.008 A 
ENDBRANCH   3   7
TORSDOF 1
ENDMDL
