MODEL 1
REMARK VINA RESULT:    13.223      0.000      0.000
REMARK INTER + INTRA:          13.756
REMARK INTER:                  13.996
REMARK INTRA:                  -0.240
REMARK UNBOUND:                -0.240
REMARK  Name = Nicotine.pdb
REMARK  2 active torsions:
REMARK  status: ('A' for Active; 'I' for Inactive)
REMARK    1  A    between atoms: C_3  and  C_6
REMARK    2  A    between atoms: N_4  and  C_12
REMARK                            x       y       z     vdW  Elec       q    Type
REMARK                         _______ _______ _______ _____ _____    ______ ____
ROOT
ATOM      1  C   UNL     1       8.624  -5.233  -2.007  0.00  0.00    +0.017 C 
ATOM      2  C   UNL     1       7.227  -5.732  -2.463  0.00  0.00    +0.025 C 
ATOM      3  C   UNL     1       6.587  -4.465  -3.068  0.00  0.00    +0.088 C 
ATOM      4  N   UNL     1       7.284  -3.303  -2.487  0.00  0.00    -0.298 NA
ATOM      5  C   UNL     1       8.303  -3.793  -1.535  0.00  0.00    +0.085 C 
ATOM      6  C   UNL     1       7.895  -2.476  -3.536  0.00  0.00    +0.105 C 
ENDROOT
BRANCH   3   7
ATOM      7  C   UNL     1       5.122  -4.413  -2.719  0.00  0.00    -0.012 A 
ATOM      8  C   UNL     1       4.336  -3.363  -3.155  0.00  0.00    +0.115 A 
ATOM      9  N   UNL     1       3.053  -3.311  -2.854  0.00  0.00    -0.263 NA
ATOM     10  C   UNL     1       2.472  -4.248  -2.131  0.00  0.00    +0.111 A 
ATOM     11  C   UNL     1       3.194  -5.328  -1.660  0.00  0.00    +0.020 A 
ATOM     12  C   UNL     1       4.544  -5.420  -1.961  0.00  0.00    +0.008 A 
ENDBRANCH   3   7
TORSDOF 1
ENDMDL
MODEL 2
REMARK VINA RESULT:    13.520      1.205      4.708
REMARK INTER + INTRA:          14.071
REMARK INTER:                  14.323
REMARK INTRA:                  -0.253
REMARK UNBOUND:                -0.240
REMARK  Name = Nicotine.pdb
REMARK  2 active torsions:
REMARK  status: ('A' for Active; 'I' for Inactive)
REMARK    1  A    between atoms: C_3  and  C_6
REMARK    2  A    between atoms: N_4  and  C_12
REMARK                            x       y       z     vdW  Elec       q    Type
REMARK                         _______ _______ _______ _____ _____    ______ ____
ROOT
ATOM      1  C   UNL     1       2.717  -3.457  -3.129  0.00  0.00    +0.017 C 
ATOM      2  C   UNL     1       4.151  -3.583  -3.708  0.00  0.00    +0.025 C 
ATOM      3  C   UNL     1       4.774  -4.703  -2.848  0.00  0.00    +0.088 C 
ATOM      4  N   UNL     1       4.010  -4.765  -1.590  0.00  0.00    -0.298 NA
ATOM      5  C   UNL     1       2.963  -3.722  -1.622  0.00  0.00    +0.085 C 
ATOM      6  C   UNL     1       3.421  -6.097  -1.396  0.00  0.00    +0.105 C 
ENDROOT
BRANCH   3   7
ATOM      7  C   UNL     1       6.218  -4.383  -2.558  0.00  0.00    -0.012 A 
ATOM      8  C   UNL     1       7.048  -5.339  -2.003  0.00  0.00    +0.115 A 
ATOM      9  N   UNL     1       8.312  -5.067  -1.746  0.00  0.00    -0.263 NA
ATOM     10  C   UNL     1       8.833  -3.883  -2.004  0.00  0.00    +0.111 A 
ATOM     11  C   UNL     1       8.064  -2.877  -2.559  0.00  0.00    +0.020 A 
ATOM     12  C   UNL     1       6.731  -3.128  -2.848  0.00  0.00    +0.008 A 
ENDBRANCH   3   7
TORSDOF 1
ENDMDL
MODEL 3
REMARK VINA RESULT:    14.038      1.230      1.600
REMARK INTER + INTRA:          14.618
REMARK INTER:                  14.874
REMARK INTRA:                  -0.255
REMARK UNBOUND:                -0.240
REMARK  Name = Nicotine.pdb
REMARK  2 active torsions:
REMARK  status: ('A' for Active; 'I' for Inactive)
REMARK    1  A    between atoms: C_3  and  C_6
REMARK    2  A    between atoms: N_4  and  C_12
REMARK                            x       y       z     vdW  Elec       q    Type
REMARK                         _______ _______ _______ _____ _____    ______ ____
ROOT
ATOM      1  C   UNL     1       9.663  -3.414  -2.384  0.00  0.00    +0.017 C 
ATOM      2  C   UNL     1       8.537  -4.194  -3.112  0.00  0.00    +0.025 C 
ATOM      3  C   UNL     1       7.319  -3.257  -2.972  0.00  0.00    +0.088 C 
ATOM      4  N   UNL     1       7.576  -2.376  -1.819  0.00  0.00    -0.298 NA
ATOM      5  C   UNL     1       8.881  -2.742  -1.228  0.00  0.00    +0.085 C 
ATOM      6  C   UNL     1       7.556  -0.963  -2.220  0.00  0.00    +0.105 C 
ENDROOT
BRANCH   3   7
ATOM      7  C   UNL     1       6.073  -4.069  -2.730  0.00  0.00    -0.012 A 
ATOM      8  C   UNL     1       4.825  -3.508  -2.923  0.00  0.00    +0.115 A 
ATOM      9  N   UNL     1       3.729  -4.212  -2.714  0.00  0.00    -0.263 NA
ATOM     10  C   UNL     1       3.778  -5.468  -2.316  0.00  0.00    +0.111 A 
ATOM     11  C   UNL     1       4.991  -6.097  -2.104  0.00  0.00    +0.020 A 
ATOM     12  C   UNL     1       6.164  -5.390  -2.318  0.00  0.00    +0.008 A 
ENDBRANCH   3   7
TORSDOF 1
ENDMDL
MODEL 4
REMARK VINA RESULT:    14.156      1.283      2.024
REMARK INTER + INTRA:          14.744
REMARK INTER:                  14.954
REMARK INTRA:                  -0.210
REMARK UNBOUND:                -0.240
REMARK  Name = Nicotine.pdb
REMARK  2 active torsions:
REMARK  status: ('A' for Active; 'I' for Inactive)
REMARK    1  A    between atoms: C_3  and  C_6
REMARK    2  A    between atoms: N_4  and  C_12
REMARK                            x       y       z     vdW  Elec       q    Type
REMARK                         _______ _______ _______ _____ _____    ______ ____
ROOT
ATOM      1  C   UNL     1       9.392  -2.919  -2.225  0.00  0.00    +0.017 C 
ATOM      2  C   UNL     1       8.004  -3.079  -1.549  0.00  0.00    +0.025 C 
ATOM      3  C   UNL     1       7.616  -4.532  -1.892  0.00  0.00    +0.088 C 
ATOM      4  N   UNL     1       8.388  -4.921  -3.086  0.00  0.00    -0.298 NA
ATOM      5  C   UNL     1       9.213  -3.769  -3.508  0.00  0.00    +0.085 C 
ATOM      6  C   UNL     1       9.225  -6.097  -2.813  0.00  0.00    +0.105 C 
ENDROOT
BRANCH   3   7
ATOM      7  C   UNL     1       6.140  -4.613  -2.186  0.00  0.00    -0.012 A 
ATOM      8  C   UNL     1       5.507  -3.592  -2.869  0.00  0.00    +0.115 A 
ATOM      9  N   UNL     1       4.216  -3.654  -3.130  0.00  0.00    -0.263 NA
ATOM     10  C   UNL     1       3.482  -4.683  -2.755  0.00  0.00    +0.111 A 
ATOM     11  C   UNL     1       4.046  -5.742  -2.068  0.00  0.00    +0.020 A 
ATOM     12  C   UNL     1       5.402  -5.714  -1.780  0.00  0.00    +0.008 A 
ENDBRANCH   3   7
TORSDOF 1
ENDMDL
