MODEL 1
REMARK VINA RESULT:     2.508      0.000      0.000
REMARK INTER + INTRA:           2.459
REMARK INTER:                   2.655
REMARK INTRA:                  -0.196
REMARK UNBOUND:                -0.196
REMARK  Name = Nicotine.pdb
REMARK  2 active torsions:
REMARK  status: ('A' for Active; 'I' for Inactive)
REMARK    1  A    between atoms: C_3  and  C_6
REMARK    2  A    between atoms: N_4  and  C_12
REMARK                            x       y       z     vdW  Elec       q    Type
REMARK                         _______ _______ _______ _____ _____    ______ ____
ROOT
ATOM      1  C   UNL     1       4.652  -1.580  -1.740  0.00  0.00    +0.017 C 
ATOM      2  C   UNL     1       3.370  -1.457  -0.876  0.00  0.00    +0.025 C 
ATOM      3  C   UNL     1       2.297  -1.042  -1.904  0.00  0.00    +0.088 C 
ATOM      4  N   UNL     1       3.000  -0.437  -3.050  0.00  0.00    -0.298 NA
ATOM      5  C   UNL     1       4.450  -0.436  -2.765  0.00  0.00    +0.085 C 
ATOM      6  C   UNL     1       2.707  -1.164  -4.292  0.00  0.00    +0.105 C 
ENDROOT
BRANCH   3   7
ATOM      7  C   UNL     1       1.357  -0.038  -1.289  0.00  0.00    -0.012 A 
ATOM      8  C   UNL     1       0.095  -0.422  -0.877  0.00  0.00    +0.115 A 
ATOM      9  N   UNL     1      -0.733   0.451  -0.337  0.00  0.00    -0.263 NA
ATOM     10  C   UNL     1      -0.396   1.714  -0.169  0.00  0.00    +0.111 A 
ATOM     11  C   UNL     1       0.850   2.171  -0.556  0.00  0.00    +0.020 A 
ATOM     12  C   UNL     1       1.750   1.282  -1.122  0.00  0.00    +0.008 A 
ENDBRANCH   3   7
TORSDOF 1
ENDMDL
MODEL 2
REMARK VINA RESULT:     3.513      1.069      1.891
REMARK INTER + INTRA:           3.523
REMARK INTER:                   3.691
REMARK INTRA:                  -0.168
REMARK UNBOUND:                -0.196
REMARK  Name = Nicotine.pdb
REMARK  2 active torsions:
REMARK  status: ('A' for Active; 'I' for Inactive)
REMARK    1  A    between atoms: C_3  and  C_6
REMARK    2  A    between atoms: N_4  and  C_12
REMARK                            x       y       z     vdW  Elec       q    Type
REMARK                         _______ _______ _______ _____ _____    ______ ____
ROOT
ATOM      1  C   UNL     1       3.362  -1.538  -3.724  0.00  0.00    +0.017 C 
ATOM      2  C   UNL     1       2.533  -0.263  -3.419  0.00  0.00    +0.025 C 
ATOM      3  C   UNL     1       2.748  -0.064  -1.903  0.00  0.00    +0.088 C 
ATOM      4  N   UNL     1       3.137  -1.370  -1.342  0.00  0.00    -0.298 NA
ATOM      5  C   UNL     1       3.147  -2.367  -2.433  0.00  0.00    +0.085 C 
ATOM      6  C   UNL     1       4.448  -1.292  -0.686  0.00  0.00    +0.105 C 
ENDROOT
BRANCH   3   7
ATOM      7  C   UNL     1       1.469   0.411  -1.263  0.00  0.00    -0.012 A 
ATOM      8  C   UNL     1       0.419  -0.465  -1.065  0.00  0.00    +0.115 A 
ATOM      9  N   UNL     1      -0.703  -0.058  -0.505  0.00  0.00    -0.263 NA
ATOM     10  C   UNL     1      -0.870   1.190  -0.115  0.00  0.00    +0.111 A 
ATOM     11  C   UNL     1       0.136   2.123  -0.280  0.00  0.00    +0.020 A 
ATOM     12  C   UNL     1       1.333   1.731  -0.860  0.00  0.00    +0.008 A 
ENDBRANCH   3   7
TORSDOF 1
ENDMDL
