MODEL 1
REMARK VINA RESULT:     0.000      0.000      0.000
REMARK INTER + INTRA:          -0.256
REMARK INTER:                   0.000
REMARK INTRA:                  -0.256
REMARK UNBOUND:                -0.256
REMARK  Name = Nicotine.pdb
REMARK  2 active torsions:
REMARK  status: ('A' for Active; 'I' for Inactive)
REMARK    1  A    between atoms: C_3  and  C_6
REMARK    2  A    between atoms: N_4  and  C_12
REMARK                            x       y       z     vdW  Elec       q    Type
REMARK                         _______ _______ _______ _____ _____    ______ ____
ROOT
ATOM      1  C   UNL     1      10.188  -1.351  -0.132  0.00  0.00    +0.017 C 
ATOM      2  C   UNL     1       9.489  -1.475   1.247  0.00  0.00    +0.025 C 
ATOM      3  C   UNL     1       7.996  -1.295   0.897  0.00  0.00    +0.088 C 
ATOM      4  N   UNL     1       7.932  -0.576  -0.388  0.00  0.00    -0.298 NA
ATOM      5  C   UNL     1       9.311  -0.282  -0.832  0.00  0.00    +0.085 C 
ATOM      6  C   UNL     1       7.209  -1.361  -1.396  0.00  0.00    +0.105 C 
ENDROOT
BRANCH   3   7
ATOM      7  C   UNL     1       7.311  -0.490   1.971  0.00  0.00    -0.012 A 
ATOM      8  C   UNL     1       5.940  -0.559   2.130  0.00  0.00    +0.115 A 
ATOM      9  N   UNL     1       5.332   0.142   3.067  0.00  0.00    -0.263 NA
ATOM     10  C   UNL     1       6.001   0.931   3.885  0.00  0.00    +0.111 A 
ATOM     11  C   UNL     1       7.375   1.051   3.787  0.00  0.00    +0.020 A 
ATOM     12  C   UNL     1       8.048   0.325   2.817  0.00  0.00    +0.008 A 
ENDBRANCH   3   7
TORSDOF 1
ENDMDL
MODEL 2
REMARK VINA RESULT:     0.000      5.739      6.408
REMARK INTER + INTRA:          -0.256
REMARK INTER:                   0.000
REMARK INTRA:                  -0.256
REMARK UNBOUND:                -0.256
REMARK  Name = Nicotine.pdb
REMARK  2 active torsions:
REMARK  status: ('A' for Active; 'I' for Inactive)
REMARK    1  A    between atoms: C_3  and  C_6
REMARK    2  A    between atoms: N_4  and  C_12
REMARK                            x       y       z     vdW  Elec       q    Type
REMARK                         _______ _______ _______ _____ _____    ______ ____
ROOT
ATOM      1  C   UNL     1       6.665   1.275  -1.048  0.00  0.00    +0.017 C 
ATOM      2  C   UNL     1       5.154   1.425  -1.367  0.00  0.00    +0.025 C 
ATOM      3  C   UNL     1       5.131   2.559  -2.413  0.00  0.00    +0.088 C 
ATOM      4  N   UNL     1       6.376   3.331  -2.248  0.00  0.00    -0.298 NA
ATOM      5  C   UNL     1       7.150   2.743  -1.134  0.00  0.00    +0.085 C 
ATOM      6  C   UNL     1       7.160   3.339  -3.489  0.00  0.00    +0.105 C 
ENDROOT
BRANCH   3   7
ATOM      7  C   UNL     1       3.938   3.449  -2.178  0.00  0.00    -0.012 A 
ATOM      8  C   UNL     1       3.448   4.244  -3.197  0.00  0.00    +0.115 A 
ATOM      9  N   UNL     1       2.404   5.025  -3.000  0.00  0.00    -0.263 NA
ATOM     10  C   UNL     1       1.791   5.082  -1.835  0.00  0.00    +0.111 A 
ATOM     11  C   UNL     1       2.225   4.316  -0.769  0.00  0.00    +0.020 A 
ATOM     12  C   UNL     1       3.316   3.478  -0.940  0.00  0.00    +0.008 A 
ENDBRANCH   3   7
TORSDOF 1
ENDMDL
MODEL 3
REMARK VINA RESULT:     0.000      8.159     10.438
REMARK INTER + INTRA:          -0.256
REMARK INTER:                   0.000
REMARK INTRA:                  -0.256
REMARK UNBOUND:                -0.256
REMARK  Name = Nicotine.pdb
REMARK  2 active torsions:
REMARK  status: ('A' for Active; 'I' for Inactive)
REMARK    1  A    between atoms: C_3  and  C_6
REMARK    2  A    between atoms: N_4  and  C_12
REMARK                            x       y       z     vdW  Elec       q    Type
REMARK                         _______ _______ _______ _____ _____    ______ ____
ROOT
ATOM      1  C   UNL     1      -3.571   2.024   2.786  0.00  0.00    +0.017 C 
ATOM      2  C   UNL     1      -2.931   1.704   1.409  0.00  0.00    +0.025 C 
ATOM      3  C   UNL     1      -1.429   1.958   1.657  0.00  0.00    +0.088 C 
ATOM      4  N   UNL     1      -1.325   2.864   2.815  0.00  0.00    -0.298 NA
ATOM      5  C   UNL     1      -2.689   3.200   3.275  0.00  0.00    +0.085 C 
ATOM      6  C   UNL     1      -0.540   2.252   3.895  0.00  0.00    +0.105 C 
ENDROOT
BRANCH   3   7
ATOM      7  C   UNL     1      -0.811   2.601   0.443  0.00  0.00    -0.012 A 
ATOM      8  C   UNL     1       0.553   2.530   0.232  0.00  0.00    +0.115 A 
ATOM      9  N   UNL     1       1.102   3.090  -0.828  0.00  0.00    -0.263 NA
ATOM     10  C   UNL     1       0.381   3.736  -1.722  0.00  0.00    +0.111 A 
ATOM     11  C   UNL     1      -0.990   3.848  -1.579  0.00  0.00    +0.020 A 
ATOM     12  C   UNL     1      -1.603   3.267  -0.480  0.00  0.00    +0.008 A 
ENDBRANCH   3   7
TORSDOF 1
ENDMDL
MODEL 4
REMARK VINA RESULT:     0.000      3.553      3.870
REMARK INTER + INTRA:          -0.256
REMARK INTER:                   0.000
REMARK INTRA:                  -0.256
REMARK UNBOUND:                -0.256
REMARK  Name = Nicotine.pdb
REMARK  2 active torsions:
REMARK  status: ('A' for Active; 'I' for Inactive)
REMARK    1  A    between atoms: C_3  and  C_6
REMARK    2  A    between atoms: N_4  and  C_12
REMARK                            x       y       z     vdW  Elec       q    Type
REMARK                         _______ _______ _______ _____ _____    ______ ____
ROOT
ATOM      1  C   UNL     1      10.198  -5.070   2.253  0.00  0.00    +0.017 C 
ATOM      2  C   UNL     1       8.886  -5.278   3.055  0.00  0.00    +0.025 C 
ATOM      3  C   UNL     1       7.802  -4.752   2.091  0.00  0.00    +0.088 C 
ATOM      4  N   UNL     1       8.465  -3.834   1.147  0.00  0.00    -0.298 NA
ATOM      5  C   UNL     1       9.898  -3.750   1.500  0.00  0.00    +0.085 C 
ATOM      6  C   UNL     1       8.289  -4.286  -0.239  0.00  0.00    +0.105 C 
ENDROOT
BRANCH   3   7
ATOM      7  C   UNL     1       6.740  -4.015   2.865  0.00  0.00    -0.012 A 
ATOM      8  C   UNL     1       5.479  -3.838   2.328  0.00  0.00    +0.115 A 
ATOM      9  N   UNL     1       4.544  -3.195   2.999  0.00  0.00    -0.263 NA
ATOM     10  C   UNL     1       4.770  -2.698   4.199  0.00  0.00    +0.111 A 
ATOM     11  C   UNL     1       6.007  -2.836   4.801  0.00  0.00    +0.020 A 
ATOM     12  C   UNL     1       7.013  -3.512   4.128  0.00  0.00    +0.008 A 
ENDBRANCH   3   7
TORSDOF 1
ENDMDL
MODEL 5
REMARK VINA RESULT:     0.000      6.116      7.709
REMARK INTER + INTRA:          -0.256
REMARK INTER:                   0.000
REMARK INTRA:                  -0.256
REMARK UNBOUND:                -0.256
REMARK  Name = Nicotine.pdb
REMARK  2 active torsions:
REMARK  status: ('A' for Active; 'I' for Inactive)
REMARK    1  A    between atoms: C_3  and  C_6
REMARK    2  A    between atoms: N_4  and  C_12
REMARK                            x       y       z     vdW  Elec       q    Type
REMARK                         _______ _______ _______ _____ _____    ______ ____
ROOT
ATOM      1  C   UNL     1       1.522   0.826  -0.790  0.00  0.00    +0.017 C 
ATOM      2  C   UNL     1       0.743   2.150  -0.571  0.00  0.00    +0.025 C 
ATOM      3  C   UNL     1       1.787   3.058   0.115  0.00  0.00    +0.088 C 
ATOM      4  N   UNL     1       2.795   2.176   0.730  0.00  0.00    -0.298 NA
ATOM      5  C   UNL     1       2.409   0.772   0.479  0.00  0.00    +0.085 C 
ATOM      6  C   UNL     1       4.135   2.458   0.200  0.00  0.00    +0.105 C 
ENDROOT
BRANCH   3   7
ATOM      7  C   UNL     1       1.120   3.896   1.175  0.00  0.00    -0.012 A 
ATOM      8  C   UNL     1       1.710   5.066   1.614  0.00  0.00    +0.115 A 
ATOM      9  N   UNL     1       1.133   5.805   2.541  0.00  0.00    -0.263 NA
ATOM     10  C   UNL     1      -0.019   5.463   3.083  0.00  0.00    +0.111 A 
ATOM     11  C   UNL     1      -0.669   4.306   2.694  0.00  0.00    +0.020 A 
ATOM     12  C   UNL     1      -0.095   3.506   1.717  0.00  0.00    +0.008 A 
ENDBRANCH   3   7
TORSDOF 1
ENDMDL
MODEL 6
REMARK VINA RESULT:     0.000      5.973      7.588
REMARK INTER + INTRA:          -0.256
REMARK INTER:                   0.000
REMARK INTRA:                  -0.256
REMARK UNBOUND:                -0.256
REMARK  Name = Nicotine.pdb
REMARK  2 active torsions:
REMARK  status: ('A' for Active; 'I' for Inactive)
REMARK    1  A    between atoms: C_3  and  C_6
REMARK    2  A    between atoms: N_4  and  C_12
REMARK                            x       y       z     vdW  Elec       q    Type
REMARK                         _______ _______ _______ _____ _____    ______ ____
ROOT
ATOM      1  C   UNL     1       3.006   3.434  -6.019  0.00  0.00    +0.017 C 
ATOM      2  C   UNL     1       2.541   3.190  -4.559  0.00  0.00    +0.025 C 
ATOM      3  C   UNL     1       3.682   2.332  -3.970  0.00  0.00    +0.088 C 
ATOM      4  N   UNL     1       4.374   1.690  -5.102  0.00  0.00    -0.298 NA
ATOM      5  C   UNL     1       3.699   2.090  -6.355  0.00  0.00    +0.085 C 
ATOM      6  C   UNL     1       5.796   2.058  -5.128  0.00  0.00    +0.105 C 
ENDROOT
BRANCH   3   7
ATOM      7  C   UNL     1       3.112   1.282  -3.053  0.00  0.00    -0.012 A 
ATOM      8  C   UNL     1       3.906   0.693  -2.087  0.00  0.00    +0.115 A 
ATOM      9  N   UNL     1       3.415  -0.228  -1.280  0.00  0.00    -0.263 NA
ATOM     10  C   UNL     1       2.159  -0.621  -1.359  0.00  0.00    +0.111 A 
ATOM     11  C   UNL     1       1.306  -0.077  -2.300  0.00  0.00    +0.020 A 
ATOM     12  C   UNL     1       1.785   0.897  -3.163  0.00  0.00    +0.008 A 
ENDBRANCH   3   7
TORSDOF 1
ENDMDL
MODEL 7
REMARK VINA RESULT:     0.000      6.506      8.205
REMARK INTER + INTRA:          -0.256
REMARK INTER:                   0.000
REMARK INTRA:                  -0.256
REMARK UNBOUND:                -0.256
REMARK  Name = Nicotine.pdb
REMARK  2 active torsions:
REMARK  status: ('A' for Active; 'I' for Inactive)
REMARK    1  A    between atoms: C_3  and  C_6
REMARK    2  A    between atoms: N_4  and  C_12
REMARK                            x       y       z     vdW  Elec       q    Type
REMARK                         _______ _______ _______ _____ _____    ______ ____
ROOT
ATOM      1  C   UNL     1       3.097   1.779  -5.616  0.00  0.00    +0.017 C 
ATOM      2  C   UNL     1       2.029   1.566  -4.511  0.00  0.00    +0.025 C 
ATOM      3  C   UNL     1       2.637   0.436  -3.654  0.00  0.00    +0.088 C 
ATOM      4  N   UNL     1       3.604  -0.284  -4.503  0.00  0.00    -0.298 NA
ATOM      5  C   UNL     1       3.602   0.333  -5.846  0.00  0.00    +0.085 C 
ATOM      6  C   UNL     1       4.949  -0.254  -3.911  0.00  0.00    +0.105 C 
ENDROOT
BRANCH   3   7
ATOM      7  C   UNL     1       1.551  -0.505  -3.201  0.00  0.00    -0.012 A 
ATOM      8  C   UNL     1       1.744  -1.316  -2.099  0.00  0.00    +0.115 A 
ATOM      9  N   UNL     1       0.799  -2.142  -1.695  0.00  0.00    -0.263 NA
ATOM     10  C   UNL     1      -0.359  -2.230  -2.321  0.00  0.00    +0.111 A 
ATOM     11  C   UNL     1      -0.624  -1.449  -3.431  0.00  0.00    +0.020 A 
ATOM     12  C   UNL     1       0.344  -0.565  -3.881  0.00  0.00    +0.008 A 
ENDBRANCH   3   7
TORSDOF 1
ENDMDL
MODEL 8
REMARK VINA RESULT:     0.000      7.685      8.988
REMARK INTER + INTRA:          -0.256
REMARK INTER:                   0.000
REMARK INTRA:                  -0.256
REMARK UNBOUND:                -0.256
REMARK  Name = Nicotine.pdb
REMARK  2 active torsions:
REMARK  status: ('A' for Active; 'I' for Inactive)
REMARK    1  A    between atoms: C_3  and  C_6
REMARK    2  A    between atoms: N_4  and  C_12
REMARK                            x       y       z     vdW  Elec       q    Type
REMARK                         _______ _______ _______ _____ _____    ______ ____
ROOT
ATOM      1  C   UNL     1       7.096   3.483  -5.725  0.00  0.00    +0.017 C 
ATOM      2  C   UNL     1       6.049   4.397  -5.036  0.00  0.00    +0.025 C 
ATOM      3  C   UNL     1       4.883   3.429  -4.742  0.00  0.00    +0.088 C 
ATOM      4  N   UNL     1       5.015   2.292  -5.670  0.00  0.00    -0.298 NA
ATOM      5  C   UNL     1       6.189   2.525  -6.538  0.00  0.00    +0.085 C 
ATOM      6  C   UNL     1       5.144   1.025  -4.938  0.00  0.00    +0.105 C 
ENDROOT
BRANCH   3   7
ATOM      7  C   UNL     1       3.568   4.127  -4.967  0.00  0.00    -0.012 A 
ATOM      8  C   UNL     1       2.414   3.654  -4.372  0.00  0.00    +0.115 A 
ATOM      9  N   UNL     1       1.258   4.260  -4.565  0.00  0.00    -0.263 NA
ATOM     10  C   UNL     1       1.155   5.331  -5.325  0.00  0.00    +0.111 A 
ATOM     11  C   UNL     1       2.267   5.863  -5.953  0.00  0.00    +0.020 A 
ATOM     12  C   UNL     1       3.500   5.256  -5.770  0.00  0.00    +0.008 A 
ENDBRANCH   3   7
TORSDOF 1
ENDMDL
MODEL 9
REMARK VINA RESULT:     0.000      4.100      6.263
REMARK INTER + INTRA:          -0.256
REMARK INTER:                   0.000
REMARK INTRA:                  -0.256
REMARK UNBOUND:                -0.256
REMARK  Name = Nicotine.pdb
REMARK  2 active torsions:
REMARK  status: ('A' for Active; 'I' for Inactive)
REMARK    1  A    between atoms: C_3  and  C_6
REMARK    2  A    between atoms: N_4  and  C_12
REMARK                            x       y       z     vdW  Elec       q    Type
REMARK                         _______ _______ _______ _____ _____    ______ ____
ROOT
ATOM      1  C   UNL     1       2.217  -1.502   1.619  0.00  0.00    +0.017 C 
ATOM      2  C   UNL     1       2.538  -1.850   0.142  0.00  0.00    +0.025 C 
ATOM      3  C   UNL     1       3.489  -3.060   0.269  0.00  0.00    +0.088 C 
ATOM      4  N   UNL     1       4.084  -3.007   1.616  0.00  0.00    -0.298 NA
ATOM      5  C   UNL     1       3.566  -1.811   2.314  0.00  0.00    +0.085 C 
ATOM      6  C   UNL     1       3.785  -4.230   2.373  0.00  0.00    +0.105 C 
ENDROOT
BRANCH   3   7
ATOM      7  C   UNL     1       4.571  -2.973  -0.775  0.00  0.00    -0.012 A 
ATOM      8  C   UNL     1       5.263  -4.105  -1.160  0.00  0.00    +0.115 A 
ATOM      9  N   UNL     1       6.212  -4.038  -2.074  0.00  0.00    -0.263 NA
ATOM     10  C   UNL     1       6.538  -2.899  -2.652  0.00  0.00    +0.111 A 
ATOM     11  C   UNL     1       5.889  -1.725  -2.319  0.00  0.00    +0.020 A 
ATOM     12  C   UNL     1       4.882  -1.758  -1.366  0.00  0.00    +0.008 A 
ENDBRANCH   3   7
TORSDOF 1
ENDMDL
MODEL 10
REMARK VINA RESULT:     0.000      4.259      5.927
REMARK INTER + INTRA:          -0.256
REMARK INTER:                   0.000
REMARK INTRA:                  -0.256
REMARK UNBOUND:                -0.256
REMARK  Name = Nicotine.pdb
REMARK  2 active torsions:
REMARK  status: ('A' for Active; 'I' for Inactive)
REMARK    1  A    between atoms: C_3  and  C_6
REMARK    2  A    between atoms: N_4  and  C_12
REMARK                            x       y       z     vdW  Elec       q    Type
REMARK                         _______ _______ _______ _____ _____    ______ ____
ROOT
ATOM      1  C   UNL     1       7.864  -3.283   4.876  0.00  0.00    +0.017 C 
ATOM      2  C   UNL     1       7.493  -3.301   3.369  0.00  0.00    +0.025 C 
ATOM      3  C   UNL     1       5.964  -3.093   3.386  0.00  0.00    +0.088 C 
ATOM      4  N   UNL     1       5.481  -3.506   4.716  0.00  0.00    -0.298 NA
ATOM      5  C   UNL     1       6.634  -3.982   5.509  0.00  0.00    +0.085 C 
ATOM      6  C   UNL     1       4.795  -2.400   5.395  0.00  0.00    +0.105 C 
ENDROOT
BRANCH   3   7
ATOM      7  C   UNL     1       5.320  -3.940   2.319  0.00  0.00    -0.012 A 
ATOM      8  C   UNL     1       4.064  -3.621   1.837  0.00  0.00    +0.115 A 
ATOM      9  N   UNL     1       3.493  -4.357   0.903  0.00  0.00    -0.263 NA
ATOM     10  C   UNL     1       4.090  -5.417   0.395  0.00  0.00    +0.111 A 
ATOM     11  C   UNL     1       5.348  -5.796   0.827  0.00  0.00    +0.020 A 
ATOM     12  C   UNL     1       5.981  -5.044   1.804  0.00  0.00    +0.008 A 
ENDBRANCH   3   7
TORSDOF 1
ENDMDL
