MODEL 1
REMARK VINA RESULT:    -3.322      0.000      0.000
REMARK INTER + INTRA:          -3.772
REMARK INTER:                  -3.516
REMARK INTRA:                  -0.256
REMARK UNBOUND:                -0.256
REMARK  Name = Nicotine.pdb
REMARK  2 active torsions:
REMARK  status: ('A' for Active; 'I' for Inactive)
REMARK    1  A    between atoms: C_3  and  C_6
REMARK    2  A    between atoms: N_4  and  C_12
REMARK                            x       y       z     vdW  Elec       q    Type
REMARK                         _______ _______ _______ _____ _____    ______ ____
ROOT
ATOM      1  C   UNL     1       5.451   5.655  -2.051  0.00  0.00    +0.017 C 
ATOM      2  C   UNL     1       6.801   5.430  -2.782  0.00  0.00    +0.025 C 
ATOM      3  C   UNL     1       6.838   3.900  -2.980  0.00  0.00    +0.088 C 
ATOM      4  N   UNL     1       5.938   3.308  -1.974  0.00  0.00    -0.298 NA
ATOM      5  C   UNL     1       5.370   4.397  -1.151  0.00  0.00    +0.085 C 
ATOM      6  C   UNL     1       4.876   2.522  -2.615  0.00  0.00    +0.105 C 
ENDROOT
BRANCH   3   7
ATOM      7  C   UNL     1       8.241   3.391  -2.778  0.00  0.00    -0.012 A 
ATOM      8  C   UNL     1       8.633   2.185  -3.328  0.00  0.00    +0.115 A 
ATOM      9  N   UNL     1       9.860   1.732  -3.156  0.00  0.00    -0.263 NA
ATOM     10  C   UNL     1      10.755   2.403  -2.459  0.00  0.00    +0.111 A 
ATOM     11  C   UNL     1      10.436   3.617  -1.879  0.00  0.00    +0.020 A 
ATOM     12  C   UNL     1       9.157   4.127  -2.043  0.00  0.00    +0.008 A 
ENDBRANCH   3   7
TORSDOF 1
ENDMDL
MODEL 2
REMARK VINA RESULT:    -3.188      8.808     10.092
REMARK INTER + INTRA:          -3.630
REMARK INTER:                  -3.426
REMARK INTRA:                  -0.204
REMARK UNBOUND:                -0.256
REMARK  Name = Nicotine.pdb
REMARK  2 active torsions:
REMARK  status: ('A' for Active; 'I' for Inactive)
REMARK    1  A    between atoms: C_3  and  C_6
REMARK    2  A    between atoms: N_4  and  C_12
REMARK                            x       y       z     vdW  Elec       q    Type
REMARK                         _______ _______ _______ _____ _____    ______ ____
ROOT
ATOM      1  C   UNL     1       9.725  -5.906   5.506  0.00  0.00    +0.017 C 
ATOM      2  C   UNL     1      10.397  -5.481   4.174  0.00  0.00    +0.025 C 
ATOM      3  C   UNL     1      10.303  -3.941   4.214  0.00  0.00    +0.088 C 
ATOM      4  N   UNL     1       9.206  -3.594   5.135  0.00  0.00    -0.298 NA
ATOM      5  C   UNL     1       8.605  -4.845   5.644  0.00  0.00    +0.085 C 
ATOM      6  C   UNL     1       9.691  -2.755   6.239  0.00  0.00    +0.105 C 
ENDROOT
BRANCH   3   7
ATOM      7  C   UNL     1      10.004  -3.410   2.836  0.00  0.00    -0.012 A 
ATOM      8  C   UNL     1       9.822  -4.279   1.776  0.00  0.00    +0.115 A 
ATOM      9  N   UNL     1       9.560  -3.822   0.567  0.00  0.00    -0.263 NA
ATOM     10  C   UNL     1       9.462  -2.531   0.320  0.00  0.00    +0.111 A 
ATOM     11  C   UNL     1       9.631  -1.602   1.330  0.00  0.00    +0.020 A 
ATOM     12  C   UNL     1       9.902  -2.045   2.615  0.00  0.00    +0.008 A 
ENDBRANCH   3   7
TORSDOF 1
ENDMDL
MODEL 3
REMARK VINA RESULT:    -3.131     10.107     11.176
REMARK INTER + INTRA:          -3.570
REMARK INTER:                  -3.383
REMARK INTRA:                  -0.187
REMARK UNBOUND:                -0.256
REMARK  Name = Nicotine.pdb
REMARK  2 active torsions:
REMARK  status: ('A' for Active; 'I' for Inactive)
REMARK    1  A    between atoms: C_3  and  C_6
REMARK    2  A    between atoms: N_4  and  C_12
REMARK                            x       y       z     vdW  Elec       q    Type
REMARK                         _______ _______ _______ _____ _____    ______ ____
ROOT
ATOM      1  C   UNL     1       1.768  -2.165   3.055  0.00  0.00    +0.017 C 
ATOM      2  C   UNL     1       2.307  -3.591   3.343  0.00  0.00    +0.025 C 
ATOM      3  C   UNL     1       2.695  -3.522   4.835  0.00  0.00    +0.088 C 
ATOM      4  N   UNL     1       2.907  -2.101   5.165  0.00  0.00    -0.298 NA
ATOM      5  C   UNL     1       2.693  -1.296   3.944  0.00  0.00    +0.085 C 
ATOM      6  C   UNL     1       2.008  -1.671   6.244  0.00  0.00    +0.105 C 
ENDROOT
BRANCH   3   7
ATOM      7  C   UNL     1       3.963  -4.299   5.071  0.00  0.00    -0.012 A 
ATOM      8  C   UNL     1       4.256  -5.410   4.303  0.00  0.00    +0.115 A 
ATOM      9  N   UNL     1       5.364  -6.096   4.503  0.00  0.00    -0.263 NA
ATOM     10  C   UNL     1       6.231  -5.756   5.436  0.00  0.00    +0.111 A 
ATOM     11  C   UNL     1       6.006  -4.656   6.244  0.00  0.00    +0.020 A 
ATOM     12  C   UNL     1       4.854  -3.907   6.059  0.00  0.00    +0.008 A 
ENDBRANCH   3   7
TORSDOF 1
ENDMDL
MODEL 4
REMARK VINA RESULT:    -2.836      2.771      4.674
REMARK INTER + INTRA:          -3.257
REMARK INTER:                  -3.073
REMARK INTRA:                  -0.185
REMARK UNBOUND:                -0.256
REMARK  Name = Nicotine.pdb
REMARK  2 active torsions:
REMARK  status: ('A' for Active; 'I' for Inactive)
REMARK    1  A    between atoms: C_3  and  C_6
REMARK    2  A    between atoms: N_4  and  C_12
REMARK                            x       y       z     vdW  Elec       q    Type
REMARK                         _______ _______ _______ _____ _____    ______ ____
ROOT
ATOM      1  C   UNL     1       2.329   2.619  -5.945  0.00  0.00    +0.017 C 
ATOM      2  C   UNL     1       3.488   2.217  -4.995  0.00  0.00    +0.025 C 
ATOM      3  C   UNL     1       3.040   2.797  -3.636  0.00  0.00    +0.088 C 
ATOM      4  N   UNL     1       2.079   3.879  -3.919  0.00  0.00    -0.298 NA
ATOM      5  C   UNL     1       1.933   4.008  -5.384  0.00  0.00    +0.085 C 
ATOM      6  C   UNL     1       0.783   3.611  -3.282  0.00  0.00    +0.105 C 
ENDROOT
BRANCH   3   7
ATOM      7  C   UNL     1       4.232   3.349  -2.897  0.00  0.00    -0.012 A 
ATOM      8  C   UNL     1       5.490   2.817  -3.104  0.00  0.00    +0.115 A 
ATOM      9  N   UNL     1       6.538   3.294  -2.461  0.00  0.00    -0.263 NA
ATOM     10  C   UNL     1       6.431   4.288  -1.602  0.00  0.00    +0.111 A 
ATOM     11  C   UNL     1       5.204   4.871  -1.343  0.00  0.00    +0.020 A 
ATOM     12  C   UNL     1       4.080   4.399  -2.005  0.00  0.00    +0.008 A 
ENDBRANCH   3   7
TORSDOF 1
ENDMDL
MODEL 5
REMARK VINA RESULT:    -2.275      8.027      9.368
REMARK INTER + INTRA:          -2.664
REMARK INTER:                  -2.471
REMARK INTRA:                  -0.194
REMARK UNBOUND:                -0.256
REMARK  Name = Nicotine.pdb
REMARK  2 active torsions:
REMARK  status: ('A' for Active; 'I' for Inactive)
REMARK    1  A    between atoms: C_3  and  C_6
REMARK    2  A    between atoms: N_4  and  C_12
REMARK                            x       y       z     vdW  Elec       q    Type
REMARK                         _______ _______ _______ _____ _____    ______ ____
ROOT
ATOM      1  C   UNL     1      10.332  -1.936   0.272  0.00  0.00    +0.017 C 
ATOM      2  C   UNL     1      10.660  -1.524   1.731  0.00  0.00    +0.025 C 
ATOM      3  C   UNL     1      10.449  -2.835   2.518  0.00  0.00    +0.088 C 
ATOM      4  N   UNL     1       9.553  -3.687   1.715  0.00  0.00    -0.298 NA
ATOM      5  C   UNL     1       9.183  -2.954   0.485  0.00  0.00    +0.085 C 
ATOM      6  C   UNL     1      10.194  -4.968   1.392  0.00  0.00    +0.105 C 
ENDROOT
BRANCH   3   7
ATOM      7  C   UNL     1       9.815  -2.536   3.852  0.00  0.00    -0.012 A 
ATOM      8  C   UNL     1       9.659  -1.229   4.274  0.00  0.00    +0.115 A 
ATOM      9  N   UNL     1       9.105  -0.959   5.440  0.00  0.00    -0.263 NA
ATOM     10  C   UNL     1       8.681  -1.914   6.244  0.00  0.00    +0.111 A 
ATOM     11  C   UNL     1       8.802  -3.244   5.888  0.00  0.00    +0.020 A 
ATOM     12  C   UNL     1       9.375  -3.567   4.668  0.00  0.00    +0.008 A 
ENDBRANCH   3   7
TORSDOF 1
ENDMDL
MODEL 6
REMARK VINA RESULT:    -2.095      2.579      5.372
REMARK INTER + INTRA:          -2.473
REMARK INTER:                  -2.246
REMARK INTRA:                  -0.227
REMARK UNBOUND:                -0.256
REMARK  Name = Nicotine.pdb
REMARK  2 active torsions:
REMARK  status: ('A' for Active; 'I' for Inactive)
REMARK    1  A    between atoms: C_3  and  C_6
REMARK    2  A    between atoms: N_4  and  C_12
REMARK                            x       y       z     vdW  Elec       q    Type
REMARK                         _______ _______ _______ _____ _____    ______ ____
ROOT
ATOM      1  C   UNL     1       5.499   5.154  -1.064  0.00  0.00    +0.017 C 
ATOM      2  C   UNL     1       4.205   4.393  -1.457  0.00  0.00    +0.025 C 
ATOM      3  C   UNL     1       4.705   3.382  -2.511  0.00  0.00    +0.088 C 
ATOM      4  N   UNL     1       5.965   3.911  -3.061  0.00  0.00    -0.298 NA
ATOM      5  C   UNL     1       6.252   5.210  -2.416  0.00  0.00    +0.085 C 
ATOM      6  C   UNL     1       7.069   2.965  -2.855  0.00  0.00    +0.105 C 
ENDROOT
BRANCH   3   7
ATOM      7  C   UNL     1       3.683   3.240  -3.610  0.00  0.00    -0.012 A 
ATOM      8  C   UNL     1       3.987   2.536  -4.760  0.00  0.00    +0.115 A 
ATOM      9  N   UNL     1       3.098   2.408  -5.726  0.00  0.00    -0.263 NA
ATOM     10  C   UNL     1       1.896   2.940  -5.637  0.00  0.00    +0.111 A 
ATOM     11  C   UNL     1       1.520   3.657  -4.517  0.00  0.00    +0.020 A 
ATOM     12  C   UNL     1       2.426   3.809  -3.478  0.00  0.00    +0.008 A 
ENDBRANCH   3   7
TORSDOF 1
ENDMDL
MODEL 7
REMARK VINA RESULT:    -1.472      8.920     10.137
REMARK INTER + INTRA:          -1.814
REMARK INTER:                  -1.604
REMARK INTRA:                  -0.210
REMARK UNBOUND:                -0.256
REMARK  Name = Nicotine.pdb
REMARK  2 active torsions:
REMARK  status: ('A' for Active; 'I' for Inactive)
REMARK    1  A    between atoms: C_3  and  C_6
REMARK    2  A    between atoms: N_4  and  C_12
REMARK                            x       y       z     vdW  Elec       q    Type
REMARK                         _______ _______ _______ _____ _____    ______ ____
ROOT
ATOM      1  C   UNL     1      10.102  -2.417   0.698  0.00  0.00    +0.017 C 
ATOM      2  C   UNL     1       9.493  -3.660   1.400  0.00  0.00    +0.025 C 
ATOM      3  C   UNL     1       9.144  -3.128   2.806  0.00  0.00    +0.088 C 
ATOM      4  N   UNL     1       9.988  -1.943   3.047  0.00  0.00    -0.298 NA
ATOM      5  C   UNL     1      10.855  -1.735   1.867  0.00  0.00    +0.085 C 
ATOM      6  C   UNL     1       9.165  -0.756   3.311  0.00  0.00    +0.105 C 
ENDROOT
BRANCH   3   7
ATOM      7  C   UNL     1       9.436  -4.184   3.840  0.00  0.00    -0.012 A 
ATOM      8  C   UNL     1       8.411  -4.726   4.594  0.00  0.00    +0.115 A 
ATOM      9  N   UNL     1       8.658  -5.651   5.501  0.00  0.00    -0.263 NA
ATOM     10  C   UNL     1       9.879  -6.094   5.726  0.00  0.00    +0.111 A 
ATOM     11  C   UNL     1      10.954  -5.599   5.011  0.00  0.00    +0.020 A 
ATOM     12  C   UNL     1      10.733  -4.629   4.045  0.00  0.00    +0.008 A 
ENDBRANCH   3   7
TORSDOF 1
ENDMDL
