MODEL 1
REMARK VINA RESULT:    -3.613      0.000      0.000
REMARK INTER + INTRA:          -4.043
REMARK INTER:                  -3.825
REMARK INTRA:                  -0.219
REMARK UNBOUND:                -0.219
REMARK  Name = Nicotine.pdb
REMARK  2 active torsions:
REMARK  status: ('A' for Active; 'I' for Inactive)
REMARK    1  A    between atoms: C_3  and  C_6
REMARK    2  A    between atoms: N_4  and  C_12
REMARK                            x       y       z     vdW  Elec       q    Type
REMARK                         _______ _______ _______ _____ _____    ______ ____
ROOT
ATOM      1  C   UNL     1      10.941  -2.974   6.161  0.00  0.00    +0.017 C 
ATOM      2  C   UNL     1      10.241  -2.461   4.875  0.00  0.00    +0.025 C 
ATOM      3  C   UNL     1       9.185  -3.552   4.596  0.00  0.00    +0.088 C 
ATOM      4  N   UNL     1       9.637  -4.781   5.273  0.00  0.00    -0.298 NA
ATOM      5  C   UNL     1      10.931  -4.507   5.933  0.00  0.00    +0.085 C 
ATOM      6  C   UNL     1       8.638  -5.245   6.244  0.00  0.00    +0.105 C 
ENDROOT
BRANCH   3   7
ATOM      7  C   UNL     1       9.077  -3.793   3.113  0.00  0.00    -0.012 A 
ATOM      8  C   UNL     1       8.483  -4.945   2.633  0.00  0.00    +0.115 A 
ATOM      9  N   UNL     1       8.383  -5.163   1.336  0.00  0.00    -0.263 NA
ATOM     10  C   UNL     1       8.842  -4.300   0.451  0.00  0.00    +0.111 A 
ATOM     11  C   UNL     1       9.448  -3.125   0.856  0.00  0.00    +0.020 A 
ATOM     12  C   UNL     1       9.566  -2.859   2.211  0.00  0.00    +0.008 A 
ENDBRANCH   3   7
TORSDOF 1
ENDMDL
MODEL 2
REMARK VINA RESULT:    -3.066      1.693      4.081
REMARK INTER + INTRA:          -3.464
REMARK INTER:                  -3.248
REMARK INTRA:                  -0.216
REMARK UNBOUND:                -0.219
REMARK  Name = Nicotine.pdb
REMARK  2 active torsions:
REMARK  status: ('A' for Active; 'I' for Inactive)
REMARK    1  A    between atoms: C_3  and  C_6
REMARK    2  A    between atoms: N_4  and  C_12
REMARK                            x       y       z     vdW  Elec       q    Type
REMARK                         _______ _______ _______ _____ _____    ______ ____
ROOT
ATOM      1  C   UNL     1       8.714  -4.615   1.249  0.00  0.00    +0.017 C 
ATOM      2  C   UNL     1       9.638  -3.495   1.797  0.00  0.00    +0.025 C 
ATOM      3  C   UNL     1       9.832  -3.898   3.274  0.00  0.00    +0.088 C 
ATOM      4  N   UNL     1       8.701  -4.767   3.643  0.00  0.00    -0.298 NA
ATOM      5  C   UNL     1       7.807  -4.898   2.473  0.00  0.00    +0.085 C 
ATOM      6  C   UNL     1       9.172  -6.082   4.096  0.00  0.00    +0.105 C 
ENDROOT
BRANCH   3   7
ATOM      7  C   UNL     1       9.840  -2.667   4.144  0.00  0.00    -0.012 A 
ATOM      8  C   UNL     1       9.479  -2.750   5.476  0.00  0.00    +0.115 A 
ATOM      9  N   UNL     1       9.483  -1.678   6.244  0.00  0.00    -0.263 NA
ATOM     10  C   UNL     1       9.828  -0.494   5.779  0.00  0.00    +0.111 A 
ATOM     11  C   UNL     1      10.202  -0.334   4.458  0.00  0.00    +0.020 A 
ATOM     12  C   UNL     1      10.215  -1.439   3.621  0.00  0.00    +0.008 A 
ENDBRANCH   3   7
TORSDOF 1
ENDMDL
MODEL 3
REMARK VINA RESULT:    -2.801      7.480      9.017
REMARK INTER + INTRA:          -3.184
REMARK INTER:                  -2.968
REMARK INTRA:                  -0.215
REMARK UNBOUND:                -0.219
REMARK  Name = Nicotine.pdb
REMARK  2 active torsions:
REMARK  status: ('A' for Active; 'I' for Inactive)
REMARK    1  A    between atoms: C_3  and  C_6
REMARK    2  A    between atoms: N_4  and  C_12
REMARK                            x       y       z     vdW  Elec       q    Type
REMARK                         _______ _______ _______ _____ _____    ______ ____
ROOT
ATOM      1  C   UNL     1       9.206   6.999   5.737  0.00  0.00    +0.017 C 
ATOM      2  C   UNL     1       9.865   5.689   6.244  0.00  0.00    +0.025 C 
ATOM      3  C   UNL     1      10.567   5.142   4.983  0.00  0.00    +0.088 C 
ATOM      4  N   UNL     1       9.894   5.740   3.815  0.00  0.00    -0.298 NA
ATOM      5  C   UNL     1       8.797   6.606   4.296  0.00  0.00    +0.085 C 
ATOM      6  C   UNL     1      10.843   6.499   2.991  0.00  0.00    +0.105 C 
ENDROOT
BRANCH   3   7
ATOM      7  C   UNL     1      10.442   3.642   4.936  0.00  0.00    -0.012 A 
ATOM      8  C   UNL     1      10.438   2.978   3.724  0.00  0.00    +0.115 A 
ATOM      9  N   UNL     1      10.330   1.664   3.674  0.00  0.00    -0.263 NA
ATOM     10  C   UNL     1      10.221   0.936   4.767  0.00  0.00    +0.111 A 
ATOM     11  C   UNL     1      10.218   1.530   6.016  0.00  0.00    +0.020 A 
ATOM     12  C   UNL     1      10.335   2.908   6.108  0.00  0.00    +0.008 A 
ENDBRANCH   3   7
TORSDOF 1
ENDMDL
MODEL 4
REMARK VINA RESULT:    -2.494      7.445      8.986
REMARK INTER + INTRA:          -2.858
REMARK INTER:                  -2.665
REMARK INTRA:                  -0.193
REMARK UNBOUND:                -0.219
REMARK  Name = Nicotine.pdb
REMARK  2 active torsions:
REMARK  status: ('A' for Active; 'I' for Inactive)
REMARK    1  A    between atoms: C_3  and  C_6
REMARK    2  A    between atoms: N_4  and  C_12
REMARK                            x       y       z     vdW  Elec       q    Type
REMARK                         _______ _______ _______ _____ _____    ______ ____
ROOT
ATOM      1  C   UNL     1       7.957   6.573   4.341  0.00  0.00    +0.017 C 
ATOM      2  C   UNL     1       7.964   5.159   4.979  0.00  0.00    +0.025 C 
ATOM      3  C   UNL     1       9.425   4.999   5.451  0.00  0.00    +0.088 C 
ATOM      4  N   UNL     1      10.246   5.929   4.656  0.00  0.00    -0.298 NA
ATOM      5  C   UNL     1       9.365   6.635   3.700  0.00  0.00    +0.085 C 
ATOM      6  C   UNL     1      10.953   6.881   5.522  0.00  0.00    +0.105 C 
ENDROOT
BRANCH   3   7
ATOM      7  C   UNL     1       9.885   3.583   5.223  0.00  0.00    -0.012 A 
ATOM      8  C   UNL     1       9.821   2.654   6.244  0.00  0.00    +0.115 A 
ATOM      9  N   UNL     1      10.222   1.412   6.052  0.00  0.00    -0.263 NA
ATOM     10  C   UNL     1      10.697   1.008   4.891  0.00  0.00    +0.111 A 
ATOM     11  C   UNL     1      10.791   1.881   3.823  0.00  0.00    +0.020 A 
ATOM     12  C   UNL     1      10.374   3.194   3.985  0.00  0.00    +0.008 A 
ENDBRANCH   3   7
TORSDOF 1
ENDMDL
MODEL 5
REMARK VINA RESULT:    -1.914      1.268      4.452
REMARK INTER + INTRA:          -2.245
REMARK INTER:                  -2.055
REMARK INTRA:                  -0.190
REMARK UNBOUND:                -0.219
REMARK  Name = Nicotine.pdb
REMARK  2 active torsions:
REMARK  status: ('A' for Active; 'I' for Inactive)
REMARK    1  A    between atoms: C_3  and  C_6
REMARK    2  A    between atoms: N_4  and  C_12
REMARK                            x       y       z     vdW  Elec       q    Type
REMARK                         _______ _______ _______ _____ _____    ______ ____
ROOT
ATOM      1  C   UNL     1       8.460  -4.294   0.566  0.00  0.00    +0.017 C 
ATOM      2  C   UNL     1       8.211  -4.784   2.017  0.00  0.00    +0.025 C 
ATOM      3  C   UNL     1       8.823  -3.656   2.874  0.00  0.00    +0.088 C 
ATOM      4  N   UNL     1       9.801  -2.946   2.029  0.00  0.00    -0.298 NA
ATOM      5  C   UNL     1       9.838  -3.599   0.703  0.00  0.00    +0.085 C 
ATOM      6  C   UNL     1       9.458  -1.523   1.907  0.00  0.00    +0.105 C 
ENDROOT
BRANCH   3   7
ATOM      7  C   UNL     1       9.514  -4.243   4.077  0.00  0.00    -0.012 A 
ATOM      8  C   UNL     1       9.336  -5.574   4.405  0.00  0.00    +0.115 A 
ATOM      9  N   UNL     1       9.937  -6.097   5.456  0.00  0.00    -0.263 NA
ATOM     10  C   UNL     1      10.725  -5.379   6.231  0.00  0.00    +0.111 A 
ATOM     11  C   UNL     1      10.951  -4.041   5.966  0.00  0.00    +0.020 A 
ATOM     12  C   UNL     1      10.341  -3.458   4.866  0.00  0.00    +0.008 A 
ENDBRANCH   3   7
TORSDOF 1
ENDMDL
MODEL 6
REMARK VINA RESULT:    -0.751      5.533      7.187
REMARK INTER + INTRA:          -1.014
REMARK INTER:                  -0.793
REMARK INTRA:                  -0.220
REMARK UNBOUND:                -0.219
REMARK  Name = Nicotine.pdb
REMARK  2 active torsions:
REMARK  status: ('A' for Active; 'I' for Inactive)
REMARK    1  A    between atoms: C_3  and  C_6
REMARK    2  A    between atoms: N_4  and  C_12
REMARK                            x       y       z     vdW  Elec       q    Type
REMARK                         _______ _______ _______ _____ _____    ______ ____
ROOT
ATOM      1  C   UNL     1       9.603   5.008   5.742  0.00  0.00    +0.017 C 
ATOM      2  C   UNL     1      10.220   3.676   6.244  0.00  0.00    +0.025 C 
ATOM      3  C   UNL     1      10.699   3.002   4.941  0.00  0.00    +0.088 C 
ATOM      4  N   UNL     1       9.922   3.589   3.834  0.00  0.00    -0.298 NA
ATOM      5  C   UNL     1       8.971   4.573   4.396  0.00  0.00    +0.085 C 
ATOM      6  C   UNL     1      10.807   4.217   2.844  0.00  0.00    +0.105 C 
ENDROOT
BRANCH   3   7
ATOM      7  C   UNL     1      10.452   1.517   5.011  0.00  0.00    -0.012 A 
ATOM      8  C   UNL     1      10.493   0.747   3.864  0.00  0.00    +0.115 A 
ATOM      9  N   UNL     1      10.279  -0.553   3.916  0.00  0.00    -0.263 NA
ATOM     10  C   UNL     1      10.018  -1.167   5.054  0.00  0.00    +0.111 A 
ATOM     11  C   UNL     1       9.961  -0.462   6.242  0.00  0.00    +0.020 A 
ATOM     12  C   UNL     1      10.187   0.905   6.226  0.00  0.00    +0.008 A 
ENDBRANCH   3   7
TORSDOF 1
ENDMDL
MODEL 7
REMARK VINA RESULT:    -0.684      1.513      4.516
REMARK INTER + INTRA:          -0.943
REMARK INTER:                  -0.720
REMARK INTRA:                  -0.222
REMARK UNBOUND:                -0.219
REMARK  Name = Nicotine.pdb
REMARK  2 active torsions:
REMARK  status: ('A' for Active; 'I' for Inactive)
REMARK    1  A    between atoms: C_3  and  C_6
REMARK    2  A    between atoms: N_4  and  C_12
REMARK                            x       y       z     vdW  Elec       q    Type
REMARK                         _______ _______ _______ _____ _____    ______ ____
ROOT
ATOM      1  C   UNL     1       9.056  -2.374  -0.128  0.00  0.00    +0.017 C 
ATOM      2  C   UNL     1       9.599  -2.637   1.301  0.00  0.00    +0.025 C 
ATOM      3  C   UNL     1       9.469  -4.169   1.445  0.00  0.00    +0.088 C 
ATOM      4  N   UNL     1       8.447  -4.613   0.480  0.00  0.00    -0.298 NA
ATOM      5  C   UNL     1       7.925  -3.428  -0.232  0.00  0.00    +0.085 C 
ATOM      6  C   UNL     1       9.004  -5.592  -0.463  0.00  0.00    +0.105 C 
ENDROOT
BRANCH   3   7
ATOM      7  C   UNL     1       9.039  -4.517   2.846  0.00  0.00    -0.012 A 
ATOM      8  C   UNL     1       8.564  -5.781   3.138  0.00  0.00    +0.115 A 
ATOM      9  N   UNL     1       8.185  -6.094   4.362  0.00  0.00    -0.263 NA
ATOM     10  C   UNL     1       8.243  -5.223   5.349  0.00  0.00    +0.111 A 
ATOM     11  C   UNL     1       8.708  -3.939   5.134  0.00  0.00    +0.020 A 
ATOM     12  C   UNL     1       9.120  -3.575   3.861  0.00  0.00    +0.008 A 
ENDBRANCH   3   7
TORSDOF 1
ENDMDL
