MODEL 1
REMARK VINA RESULT:    -3.882      0.000      0.000
REMARK INTER + INTRA:          -4.320
REMARK INTER:                  -4.109
REMARK INTRA:                  -0.211
REMARK UNBOUND:                -0.211
REMARK  Name = Nicotine.pdb
REMARK  2 active torsions:
REMARK  status: ('A' for Active; 'I' for Inactive)
REMARK    1  A    between atoms: C_3  and  C_6
REMARK    2  A    between atoms: N_4  and  C_12
REMARK                            x       y       z     vdW  Elec       q    Type
REMARK                         _______ _______ _______ _____ _____    ______ ____
ROOT
ATOM      1  C   UNL     1       1.184  -3.061   3.198  0.00  0.00    +0.017 C 
ATOM      2  C   UNL     1      -0.263  -3.618   3.236  0.00  0.00    +0.025 C 
ATOM      3  C   UNL     1      -0.708  -3.530   1.761  0.00  0.00    +0.088 C 
ATOM      4  N   UNL     1       0.140  -2.516   1.109  0.00  0.00    -0.298 NA
ATOM      5  C   UNL     1       1.067  -1.958   2.117  0.00  0.00    +0.085 C 
ATOM      6  C   UNL     1       0.877  -3.094  -0.022  0.00  0.00    +0.105 C 
ENDROOT
BRANCH   3   7
ATOM      7  C   UNL     1      -2.154  -3.116   1.685  0.00  0.00    -0.012 A 
ATOM      8  C   UNL     1      -2.828  -2.716   2.824  0.00  0.00    +0.115 A 
ATOM      9  N   UNL     1      -4.094  -2.352   2.766  0.00  0.00    -0.263 NA
ATOM     10  C   UNL     1      -4.765  -2.355   1.632  0.00  0.00    +0.111 A 
ATOM     11  C   UNL     1      -4.158  -2.742   0.451  0.00  0.00    +0.020 A 
ATOM     12  C   UNL     1      -2.826  -3.126   0.472  0.00  0.00    +0.008 A 
ENDBRANCH   3   7
TORSDOF 1
ENDMDL
MODEL 2
REMARK VINA RESULT:    -3.611      1.856      5.042
REMARK INTER + INTRA:          -4.033
REMARK INTER:                  -3.841
REMARK INTRA:                  -0.192
REMARK UNBOUND:                -0.211
REMARK  Name = Nicotine.pdb
REMARK  2 active torsions:
REMARK  status: ('A' for Active; 'I' for Inactive)
REMARK    1  A    between atoms: C_3  and  C_6
REMARK    2  A    between atoms: N_4  and  C_12
REMARK                            x       y       z     vdW  Elec       q    Type
REMARK                         _______ _______ _______ _____ _____    ______ ____
ROOT
ATOM      1  C   UNL     1      -2.315  -1.710   0.230  0.00  0.00    +0.017 C 
ATOM      2  C   UNL     1      -0.777  -1.568   0.080  0.00  0.00    +0.025 C 
ATOM      3  C   UNL     1      -0.295  -3.034   0.057  0.00  0.00    +0.088 C 
ATOM      4  N   UNL     1      -1.338  -3.848   0.707  0.00  0.00    -0.298 NA
ATOM      5  C   UNL     1      -2.427  -2.951   1.150  0.00  0.00    +0.085 C 
ATOM      6  C   UNL     1      -1.845  -4.881  -0.205  0.00  0.00    +0.105 C 
ENDROOT
BRANCH   3   7
ATOM      7  C   UNL     1       1.001  -3.159   0.816  0.00  0.00    -0.012 A 
ATOM      8  C   UNL     1       2.208  -3.162   0.143  0.00  0.00    +0.115 A 
ATOM      9  N   UNL     1       3.347  -3.271   0.799  0.00  0.00    -0.263 NA
ATOM     10  C   UNL     1       3.382  -3.380   2.112  0.00  0.00    +0.111 A 
ATOM     11  C   UNL     1       2.215  -3.384   2.854  0.00  0.00    +0.020 A 
ATOM     12  C   UNL     1       0.999  -3.266   2.198  0.00  0.00    +0.008 A 
ENDBRANCH   3   7
TORSDOF 1
ENDMDL
MODEL 3
REMARK VINA RESULT:    -3.594      1.609      4.977
REMARK INTER + INTRA:          -4.015
REMARK INTER:                  -3.800
REMARK INTRA:                  -0.215
REMARK UNBOUND:                -0.211
REMARK  Name = Nicotine.pdb
REMARK  2 active torsions:
REMARK  status: ('A' for Active; 'I' for Inactive)
REMARK    1  A    between atoms: C_3  and  C_6
REMARK    2  A    between atoms: N_4  and  C_12
REMARK                            x       y       z     vdW  Elec       q    Type
REMARK                         _______ _______ _______ _____ _____    ______ ____
ROOT
ATOM      1  C   UNL     1      -2.774  -2.970   0.517  0.00  0.00    +0.017 C 
ATOM      2  C   UNL     1      -1.484  -3.832   0.550  0.00  0.00    +0.025 C 
ATOM      3  C   UNL     1      -0.788  -3.367   1.846  0.00  0.00    +0.088 C 
ATOM      4  N   UNL     1      -1.308  -2.024   2.163  0.00  0.00    -0.298 NA
ATOM      5  C   UNL     1      -2.270  -1.631   1.111  0.00  0.00    +0.085 C 
ATOM      6  C   UNL     1      -1.938  -2.003   3.489  0.00  0.00    +0.105 C 
ENDROOT
BRANCH   3   7
ATOM      7  C   UNL     1       0.702  -3.305   1.634  0.00  0.00    -0.012 A 
ATOM      8  C   UNL     1       1.223  -3.204   0.358  0.00  0.00    +0.115 A 
ATOM      9  N   UNL     1       2.526  -3.148   0.163  0.00  0.00    -0.263 NA
ATOM     10  C   UNL     1       3.379  -3.187   1.167  0.00  0.00    +0.111 A 
ATOM     11  C   UNL     1       2.932  -3.287   2.472  0.00  0.00    +0.020 A 
ATOM     12  C   UNL     1       1.568  -3.342   2.716  0.00  0.00    +0.008 A 
ENDBRANCH   3   7
TORSDOF 1
ENDMDL
MODEL 4
REMARK VINA RESULT:    -3.589      1.476      4.390
REMARK INTER + INTRA:          -4.009
REMARK INTER:                  -3.793
REMARK INTRA:                  -0.217
REMARK UNBOUND:                -0.211
REMARK  Name = Nicotine.pdb
REMARK  2 active torsions:
REMARK  status: ('A' for Active; 'I' for Inactive)
REMARK    1  A    between atoms: C_3  and  C_6
REMARK    2  A    between atoms: N_4  and  C_12
REMARK                            x       y       z     vdW  Elec       q    Type
REMARK                         _______ _______ _______ _____ _____    ______ ____
ROOT
ATOM      1  C   UNL     1      -3.629  -2.703   1.774  0.00  0.00    +0.017 C 
ATOM      2  C   UNL     1      -2.719  -3.084   0.576  0.00  0.00    +0.025 C 
ATOM      3  C   UNL     1      -1.411  -3.533   1.263  0.00  0.00    +0.088 C 
ATOM      4  N   UNL     1      -1.388  -2.918   2.603  0.00  0.00    -0.298 NA
ATOM      5  C   UNL     1      -2.605  -2.093   2.763  0.00  0.00    +0.085 C 
ATOM      6  C   UNL     1      -1.304  -3.943   3.651  0.00  0.00    +0.105 C 
ENDROOT
BRANCH   3   7
ATOM      7  C   UNL     1      -0.224  -3.064   0.462  0.00  0.00    -0.012 A 
ATOM      8  C   UNL     1       0.922  -2.629   1.100  0.00  0.00    +0.115 A 
ATOM      9  N   UNL     1       1.965  -2.217   0.406  0.00  0.00    -0.263 NA
ATOM     10  C   UNL     1       1.959  -2.204  -0.912  0.00  0.00    +0.111 A 
ATOM     11  C   UNL     1       0.849  -2.626  -1.619  0.00  0.00    +0.020 A 
ATOM     12  C   UNL     1      -0.265  -3.070  -0.924  0.00  0.00    +0.008 A 
ENDBRANCH   3   7
TORSDOF 1
ENDMDL
MODEL 5
REMARK VINA RESULT:    -3.476      1.862      3.872
REMARK INTER + INTRA:          -3.890
REMARK INTER:                  -3.680
REMARK INTRA:                  -0.210
REMARK UNBOUND:                -0.211
REMARK  Name = Nicotine.pdb
REMARK  2 active torsions:
REMARK  status: ('A' for Active; 'I' for Inactive)
REMARK    1  A    between atoms: C_3  and  C_6
REMARK    2  A    between atoms: N_4  and  C_12
REMARK                            x       y       z     vdW  Elec       q    Type
REMARK                         _______ _______ _______ _____ _____    ______ ____
ROOT
ATOM      1  C   UNL     1      -2.113  -3.397   4.755  0.00  0.00    +0.017 C 
ATOM      2  C   UNL     1      -0.961  -3.926   3.861  0.00  0.00    +0.025 C 
ATOM      3  C   UNL     1      -0.574  -2.687   3.025  0.00  0.00    +0.088 C 
ATOM      4  N   UNL     1      -1.736  -1.781   3.022  0.00  0.00    -0.298 NA
ATOM      5  C   UNL     1      -2.827  -2.413   3.794  0.00  0.00    +0.085 C 
ATOM      6  C   UNL     1      -1.384  -0.470   3.583  0.00  0.00    +0.105 C 
ENDROOT
BRANCH   3   7
ATOM      7  C   UNL     1      -0.243  -3.104   1.615  0.00  0.00    -0.012 A 
ATOM      8  C   UNL     1       1.028  -2.910   1.109  0.00  0.00    +0.115 A 
ATOM      9  N   UNL     1       1.326  -3.272  -0.124  0.00  0.00    -0.263 NA
ATOM     10  C   UNL     1       0.432  -3.827  -0.918  0.00  0.00    +0.111 A 
ATOM     11  C   UNL     1      -0.860  -4.053  -0.481  0.00  0.00    +0.020 A 
ATOM     12  C   UNL     1      -1.208  -3.690   0.811  0.00  0.00    +0.008 A 
ENDBRANCH   3   7
TORSDOF 1
ENDMDL
MODEL 6
REMARK VINA RESULT:    -3.337      2.144      3.590
REMARK INTER + INTRA:          -3.743
REMARK INTER:                  -3.526
REMARK INTRA:                  -0.216
REMARK UNBOUND:                -0.211
REMARK  Name = Nicotine.pdb
REMARK  2 active torsions:
REMARK  status: ('A' for Active; 'I' for Inactive)
REMARK    1  A    between atoms: C_3  and  C_6
REMARK    2  A    between atoms: N_4  and  C_12
REMARK                            x       y       z     vdW  Elec       q    Type
REMARK                         _______ _______ _______ _____ _____    ______ ____
ROOT
ATOM      1  C   UNL     1       4.143  -1.527   3.145  0.00  0.00    +0.017 C 
ATOM      2  C   UNL     1       2.772  -2.063   3.634  0.00  0.00    +0.025 C 
ATOM      3  C   UNL     1       2.512  -3.260   2.695  0.00  0.00    +0.088 C 
ATOM      4  N   UNL     1       3.321  -3.047   1.481  0.00  0.00    -0.298 NA
ATOM      5  C   UNL     1       4.046  -1.766   1.617  0.00  0.00    +0.085 C 
ATOM      6  C   UNL     1       4.254  -4.160   1.268  0.00  0.00    +0.105 C 
ENDROOT
BRANCH   3   7
ATOM      7  C   UNL     1       1.050  -3.320   2.334  0.00  0.00    -0.012 A 
ATOM      8  C   UNL     1       0.641  -3.092   1.033  0.00  0.00    +0.115 A 
ATOM      9  N   UNL     1      -0.636  -3.143   0.709  0.00  0.00    -0.263 NA
ATOM     10  C   UNL     1      -1.568  -3.411   1.602  0.00  0.00    +0.111 A 
ATOM     11  C   UNL     1      -1.234  -3.651   2.922  0.00  0.00    +0.020 A 
ATOM     12  C   UNL     1       0.099  -3.611   3.300  0.00  0.00    +0.008 A 
ENDBRANCH   3   7
TORSDOF 1
ENDMDL
MODEL 7
REMARK VINA RESULT:    -3.296      4.314      6.669
REMARK INTER + INTRA:          -3.700
REMARK INTER:                  -3.483
REMARK INTRA:                  -0.217
REMARK UNBOUND:                -0.211
REMARK  Name = Nicotine.pdb
REMARK  2 active torsions:
REMARK  status: ('A' for Active; 'I' for Inactive)
REMARK    1  A    between atoms: C_3  and  C_6
REMARK    2  A    between atoms: N_4  and  C_12
REMARK                            x       y       z     vdW  Elec       q    Type
REMARK                         _______ _______ _______ _____ _____    ______ ____
ROOT
ATOM      1  C   UNL     1       1.780  -1.156  -5.639  0.00  0.00    +0.017 C 
ATOM      2  C   UNL     1       0.988  -1.738  -4.439  0.00  0.00    +0.025 C 
ATOM      3  C   UNL     1       1.484  -0.887  -3.251  0.00  0.00    +0.088 C 
ATOM      4  N   UNL     1       2.796  -0.331  -3.630  0.00  0.00    -0.298 NA
ATOM      5  C   UNL     1       3.141  -0.818  -4.982  0.00  0.00    +0.085 C 
ATOM      6  C   UNL     1       2.778   1.137  -3.587  0.00  0.00    +0.105 C 
ENDROOT
BRANCH   3   7
ATOM      7  C   UNL     1       1.628  -1.752  -2.025  0.00  0.00    -0.012 A 
ATOM      8  C   UNL     1       2.703  -1.585  -1.174  0.00  0.00    +0.115 A 
ATOM      9  N   UNL     1       2.836  -2.338  -0.099  0.00  0.00    -0.263 NA
ATOM     10  C   UNL     1       1.957  -3.273   0.206  0.00  0.00    +0.111 A 
ATOM     11  C   UNL     1       0.855  -3.497  -0.599  0.00  0.00    +0.020 A 
ATOM     12  C   UNL     1       0.680  -2.721  -1.734  0.00  0.00    +0.008 A 
ENDBRANCH   3   7
TORSDOF 1
ENDMDL
MODEL 8
REMARK VINA RESULT:    -3.157      2.872      4.884
REMARK INTER + INTRA:          -3.552
REMARK INTER:                  -3.328
REMARK INTRA:                  -0.224
REMARK UNBOUND:                -0.211
REMARK  Name = Nicotine.pdb
REMARK  2 active torsions:
REMARK  status: ('A' for Active; 'I' for Inactive)
REMARK    1  A    between atoms: C_3  and  C_6
REMARK    2  A    between atoms: N_4  and  C_12
REMARK                            x       y       z     vdW  Elec       q    Type
REMARK                         _______ _______ _______ _____ _____    ______ ____
ROOT
ATOM      1  C   UNL     1      -0.318  -2.117   2.727  0.00  0.00    +0.017 C 
ATOM      2  C   UNL     1      -0.422  -2.395   1.205  0.00  0.00    +0.025 C 
ATOM      3  C   UNL     1       0.959  -2.997   0.867  0.00  0.00    +0.088 C 
ATOM      4  N   UNL     1       1.896  -2.556   1.916  0.00  0.00    -0.298 NA
ATOM      5  C   UNL     1       1.165  -1.692   2.868  0.00  0.00    +0.085 C 
ATOM      6  C   UNL     1       2.497  -3.706   2.603  0.00  0.00    +0.105 C 
ENDROOT
BRANCH   3   7
ATOM      7  C   UNL     1       1.421  -2.498  -0.477  0.00  0.00    -0.012 A 
ATOM      8  C   UNL     1       2.655  -1.890  -0.611  0.00  0.00    +0.115 A 
ATOM      9  N   UNL     1       3.067  -1.450  -1.785  0.00  0.00    -0.263 NA
ATOM     10  C   UNL     1       2.326  -1.571  -2.869  0.00  0.00    +0.111 A 
ATOM     11  C   UNL     1       1.081  -2.169  -2.812  0.00  0.00    +0.020 A 
ATOM     12  C   UNL     1       0.617  -2.648  -1.597  0.00  0.00    +0.008 A 
ENDBRANCH   3   7
TORSDOF 1
ENDMDL
MODEL 9
REMARK VINA RESULT:    -3.154      1.827      2.824
REMARK INTER + INTRA:          -3.550
REMARK INTER:                  -3.356
REMARK INTRA:                  -0.194
REMARK UNBOUND:                -0.211
REMARK  Name = Nicotine.pdb
REMARK  2 active torsions:
REMARK  status: ('A' for Active; 'I' for Inactive)
REMARK    1  A    between atoms: C_3  and  C_6
REMARK    2  A    between atoms: N_4  and  C_12
REMARK                            x       y       z     vdW  Elec       q    Type
REMARK                         _______ _______ _______ _____ _____    ______ ____
ROOT
ATOM      1  C   UNL     1       3.406  -2.102   0.057  0.00  0.00    +0.017 C 
ATOM      2  C   UNL     1       2.460  -3.033   0.860  0.00  0.00    +0.025 C 
ATOM      3  C   UNL     1       1.194  -3.085  -0.020  0.00  0.00    +0.088 C 
ATOM      4  N   UNL     1       1.207  -1.884  -0.875  0.00  0.00    -0.298 NA
ATOM      5  C   UNL     1       2.406  -1.084  -0.546  0.00  0.00    +0.085 C 
ATOM      6  C   UNL     1       1.191  -2.250  -2.297  0.00  0.00    +0.105 C 
ENDROOT
BRANCH   3   7
ATOM      7  C   UNL     1      -0.036  -3.083   0.850  0.00  0.00    -0.012 A 
ATOM      8  C   UNL     1       0.078  -3.209   2.222  0.00  0.00    +0.115 A 
ATOM      9  N   UNL     1      -0.993  -3.208   2.991  0.00  0.00    -0.263 NA
ATOM     10  C   UNL     1      -2.206  -3.088   2.489  0.00  0.00    +0.111 A 
ATOM     11  C   UNL     1      -2.399  -2.956   1.127  0.00  0.00    +0.020 A 
ATOM     12  C   UNL     1      -1.296  -2.948   0.287  0.00  0.00    +0.008 A 
ENDBRANCH   3   7
TORSDOF 1
ENDMDL
MODEL 10
REMARK VINA RESULT:    -3.021      1.537      2.207
REMARK INTER + INTRA:          -3.408
REMARK INTER:                  -3.204
REMARK INTRA:                  -0.204
REMARK UNBOUND:                -0.211
REMARK  Name = Nicotine.pdb
REMARK  2 active torsions:
REMARK  status: ('A' for Active; 'I' for Inactive)
REMARK    1  A    between atoms: C_3  and  C_6
REMARK    2  A    between atoms: N_4  and  C_12
REMARK                            x       y       z     vdW  Elec       q    Type
REMARK                         _______ _______ _______ _____ _____    ______ ____
ROOT
ATOM      1  C   UNL     1       0.891  -1.625   2.004  0.00  0.00    +0.017 C 
ATOM      2  C   UNL     1      -0.469  -0.901   1.819  0.00  0.00    +0.025 C 
ATOM      3  C   UNL     1      -1.484  -1.924   2.372  0.00  0.00    +0.088 C 
ATOM      4  N   UNL     1      -0.845  -3.251   2.310  0.00  0.00    -0.298 NA
ATOM      5  C   UNL     1       0.503  -3.098   1.722  0.00  0.00    +0.085 C 
ATOM      6  C   UNL     1      -0.773  -3.864   3.642  0.00  0.00    +0.105 C 
ENDROOT
BRANCH   3   7
ATOM      7  C   UNL     1      -2.733  -1.915   1.528  0.00  0.00    -0.012 A 
ATOM      8  C   UNL     1      -3.354  -0.722   1.212  0.00  0.00    +0.115 A 
ATOM      9  N   UNL     1      -4.447  -0.705   0.474  0.00  0.00    -0.263 NA
ATOM     10  C   UNL     1      -4.988  -1.814   0.012  0.00  0.00    +0.111 A 
ATOM     11  C   UNL     1      -4.423  -3.046   0.287  0.00  0.00    +0.020 A 
ATOM     12  C   UNL     1      -3.270  -3.103   1.055  0.00  0.00    +0.008 A 
ENDBRANCH   3   7
TORSDOF 1
ENDMDL
