MODEL 1
REMARK VINA RESULT:    14.859      0.000      0.000
REMARK INTER + INTRA:          15.477
REMARK INTER:                  15.728
REMARK INTRA:                  -0.250
REMARK UNBOUND:                -0.250
REMARK  Name = Nicotine.pdb
REMARK  2 active torsions:
REMARK  status: ('A' for Active; 'I' for Inactive)
REMARK    1  A    between atoms: C_3  and  C_6
REMARK    2  A    between atoms: N_4  and  C_12
REMARK                            x       y       z     vdW  Elec       q    Type
REMARK                         _______ _______ _______ _____ _____    ______ ____
ROOT
ATOM      1  C   UNL     1       3.203  -0.827  -0.649  0.00  0.00    +0.017 C 
ATOM      2  C   UNL     1       2.514  -1.151  -2.001  0.00  0.00    +0.025 C 
ATOM      3  C   UNL     1       2.341   0.241  -2.645  0.00  0.00    +0.088 C 
ATOM      4  N   UNL     1       2.374   1.233  -1.556  0.00  0.00    -0.298 NA
ATOM      5  C   UNL     1       2.533   0.518  -0.272  0.00  0.00    +0.085 C 
ATOM      6  C   UNL     1       3.459   2.202  -1.757  0.00  0.00    +0.105 C 
ENDROOT
BRANCH   3   7
ATOM      7  C   UNL     1       1.020   0.312  -3.365  0.00  0.00    -0.012 A 
ATOM      8  C   UNL     1       0.916   0.976  -4.573  0.00  0.00    +0.115 A 
ATOM      9  N   UNL     1      -0.236   1.043  -5.210  0.00  0.00    -0.263 NA
ATOM     10  C   UNL     1      -1.328   0.485  -4.727  0.00  0.00    +0.111 A 
ATOM     11  C   UNL     1      -1.302  -0.197  -3.524  0.00  0.00    +0.020 A 
ATOM     12  C   UNL     1      -0.107  -0.293  -2.829  0.00  0.00    +0.008 A 
ENDBRANCH   3   7
TORSDOF 1
ENDMDL
MODEL 2
REMARK VINA RESULT:    15.173      1.633      4.557
REMARK INTER + INTRA:          15.809
REMARK INTER:                  16.022
REMARK INTRA:                  -0.213
REMARK UNBOUND:                -0.250
REMARK  Name = Nicotine.pdb
REMARK  2 active torsions:
REMARK  status: ('A' for Active; 'I' for Inactive)
REMARK    1  A    between atoms: C_3  and  C_6
REMARK    2  A    between atoms: N_4  and  C_12
REMARK                            x       y       z     vdW  Elec       q    Type
REMARK                         _______ _______ _______ _____ _____    ______ ____
ROOT
ATOM      1  C   UNL     1       2.346  -1.591  -1.791  0.00  0.00    +0.017 C 
ATOM      2  C   UNL     1       2.734  -0.356  -0.937  0.00  0.00    +0.025 C 
ATOM      3  C   UNL     1       2.229   0.828  -1.789  0.00  0.00    +0.088 C 
ATOM      4  N   UNL     1       2.126   0.352  -3.180  0.00  0.00    -0.298 NA
ATOM      5  C   UNL     1       2.567  -1.059  -3.229  0.00  0.00    +0.085 C 
ATOM      6  C   UNL     1       0.754   0.493  -3.686  0.00  0.00    +0.105 C 
ENDROOT
BRANCH   3   7
ATOM      7  C   UNL     1       3.207   1.972  -1.709  0.00  0.00    -0.012 A 
ATOM      8  C   UNL     1       4.562   1.726  -1.600  0.00  0.00    +0.115 A 
ATOM      9  N   UNL     1       5.425   2.721  -1.529  0.00  0.00    -0.263 NA
ATOM     10  C   UNL     1       5.034   3.980  -1.558  0.00  0.00    +0.111 A 
ATOM     11  C   UNL     1       3.694   4.303  -1.665  0.00  0.00    +0.020 A 
ATOM     12  C   UNL     1       2.759   3.283  -1.748  0.00  0.00    +0.008 A 
ENDBRANCH   3   7
TORSDOF 1
ENDMDL
MODEL 3
REMARK VINA RESULT:    15.681      1.147      4.548
REMARK INTER + INTRA:          16.348
REMARK INTER:                  16.563
REMARK INTRA:                  -0.215
REMARK UNBOUND:                -0.250
REMARK  Name = Nicotine.pdb
REMARK  2 active torsions:
REMARK  status: ('A' for Active; 'I' for Inactive)
REMARK    1  A    between atoms: C_3  and  C_6
REMARK    2  A    between atoms: N_4  and  C_12
REMARK                            x       y       z     vdW  Elec       q    Type
REMARK                         _______ _______ _______ _____ _____    ______ ____
ROOT
ATOM      1  C   UNL     1      -0.668   1.506  -5.413  0.00  0.00    +0.017 C 
ATOM      2  C   UNL     1       0.789   1.180  -4.992  0.00  0.00    +0.025 C 
ATOM      3  C   UNL     1       0.621  -0.062  -4.091  0.00  0.00    +0.088 C 
ATOM      4  N   UNL     1      -0.768  -0.058  -3.596  0.00  0.00    -0.298 NA
ATOM      5  C   UNL     1      -1.454   1.139  -4.129  0.00  0.00    +0.085 C 
ATOM      6  C   UNL     1      -1.470  -1.287  -3.988  0.00  0.00    +0.105 C 
ENDROOT
BRANCH   3   7
ATOM      7  C   UNL     1       1.580   0.013  -2.931  0.00  0.00    -0.012 A 
ATOM      8  C   UNL     1       2.208   1.204  -2.619  0.00  0.00    +0.115 A 
ATOM      9  N   UNL     1       3.049   1.278  -1.605  0.00  0.00    -0.263 NA
ATOM     10  C   UNL     1       3.322   0.230  -0.854  0.00  0.00    +0.111 A 
ATOM     11  C   UNL     1       2.731  -0.994  -1.105  0.00  0.00    +0.020 A 
ATOM     12  C   UNL     1       1.838  -1.109  -2.159  0.00  0.00    +0.008 A 
ENDBRANCH   3   7
TORSDOF 1
ENDMDL
MODEL 4
REMARK VINA RESULT:    16.244      1.185      1.562
REMARK INTER + INTRA:          16.943
REMARK INTER:                  17.160
REMARK INTRA:                  -0.217
REMARK UNBOUND:                -0.250
REMARK  Name = Nicotine.pdb
REMARK  2 active torsions:
REMARK  status: ('A' for Active; 'I' for Inactive)
REMARK    1  A    between atoms: C_3  and  C_6
REMARK    2  A    between atoms: N_4  and  C_12
REMARK                            x       y       z     vdW  Elec       q    Type
REMARK                         _______ _______ _______ _____ _____    ______ ____
ROOT
ATOM      1  C   UNL     1       3.048  -0.114  -0.538  0.00  0.00    +0.017 C 
ATOM      2  C   UNL     1       1.565  -0.336  -0.938  0.00  0.00    +0.025 C 
ATOM      3  C   UNL     1       1.658  -0.662  -2.444  0.00  0.00    +0.088 C 
ATOM      4  N   UNL     1       2.933  -0.106  -2.933  0.00  0.00    -0.298 NA
ATOM      5  C   UNL     1       3.616   0.566  -1.808  0.00  0.00    +0.085 C 
ATOM      6  C   UNL     1       3.779  -1.158  -3.511  0.00  0.00    +0.105 C 
ENDROOT
BRANCH   3   7
ATOM      7  C   UNL     1       0.505  -0.026  -3.178  0.00  0.00    -0.012 A 
ATOM      8  C   UNL     1       0.692   0.522  -4.433  0.00  0.00    +0.115 A 
ATOM      9  N   UNL     1      -0.311   1.080  -5.081  0.00  0.00    -0.263 NA
ATOM     10  C   UNL     1      -1.523   1.138  -4.566  0.00  0.00    +0.111 A 
ATOM     11  C   UNL     1      -1.786   0.610  -3.316  0.00  0.00    +0.020 A 
ATOM     12  C   UNL     1      -0.757   0.011  -2.606  0.00  0.00    +0.008 A 
ENDBRANCH   3   7
TORSDOF 1
ENDMDL
MODEL 5
REMARK VINA RESULT:    16.602      1.438      4.440
REMARK INTER + INTRA:          17.322
REMARK INTER:                  17.553
REMARK INTRA:                  -0.231
REMARK UNBOUND:                -0.250
REMARK  Name = Nicotine.pdb
REMARK  2 active torsions:
REMARK  status: ('A' for Active; 'I' for Inactive)
REMARK    1  A    between atoms: C_3  and  C_6
REMARK    2  A    between atoms: N_4  and  C_12
REMARK                            x       y       z     vdW  Elec       q    Type
REMARK                         _______ _______ _______ _____ _____    ______ ____
ROOT
ATOM      1  C   UNL     1       1.934   0.270  -5.660  0.00  0.00    +0.017 C 
ATOM      2  C   UNL     1       2.496  -0.444  -4.402  0.00  0.00    +0.025 C 
ATOM      3  C   UNL     1       1.258  -0.564  -3.489  0.00  0.00    +0.088 C 
ATOM      4  N   UNL     1       0.296   0.467  -3.918  0.00  0.00    -0.298 NA
ATOM      5  C   UNL     1       0.893   1.231  -5.035  0.00  0.00    +0.085 C 
ATOM      6  C   UNL     1      -0.982  -0.137  -4.317  0.00  0.00    +0.105 C 
ENDROOT
BRANCH   3   7
ATOM      7  C   UNL     1       1.655  -0.330  -2.054  0.00  0.00    -0.012 A 
ATOM      8  C   UNL     1       0.693  -0.263  -1.064  0.00  0.00    +0.115 A 
ATOM      9  N   UNL     1       1.032  -0.059   0.194  0.00  0.00    -0.263 NA
ATOM     10  C   UNL     1       2.291   0.088   0.557  0.00  0.00    +0.111 A 
ATOM     11  C   UNL     1       3.308   0.032  -0.377  0.00  0.00    +0.020 A 
ATOM     12  C   UNL     1       2.990  -0.186  -1.709  0.00  0.00    +0.008 A 
ENDBRANCH   3   7
TORSDOF 1
ENDMDL
