MODEL 1
REMARK VINA RESULT:    -4.038      0.000      0.000
REMARK INTER + INTRA:          -4.483
REMARK INTER:                  -4.274
REMARK INTRA:                  -0.209
REMARK UNBOUND:                -0.209
REMARK  Name = Nicotine.pdb
REMARK  2 active torsions:
REMARK  status: ('A' for Active; 'I' for Inactive)
REMARK    1  A    between atoms: C_3  and  C_6
REMARK    2  A    between atoms: N_4  and  C_12
REMARK                            x       y       z     vdW  Elec       q    Type
REMARK                         _______ _______ _______ _____ _____    ______ ____
ROOT
ATOM      1  C   UNL     1       9.756  -4.651   3.198  0.00  0.00    +0.017 C 
ATOM      2  C   UNL     1       9.961  -3.153   3.546  0.00  0.00    +0.025 C 
ATOM      3  C   UNL     1       9.146  -2.984   4.845  0.00  0.00    +0.088 C 
ATOM      4  N   UNL     1       8.149  -4.068   4.880  0.00  0.00    -0.298 NA
ATOM      5  C   UNL     1       8.293  -4.881   3.653  0.00  0.00    +0.085 C 
ATOM      6  C   UNL     1       8.311  -4.896   6.082  0.00  0.00    +0.105 C 
ENDROOT
BRANCH   3   7
ATOM      7  C   UNL     1       8.452  -1.647   4.845  0.00  0.00    -0.012 A 
ATOM      8  C   UNL     1       7.893  -1.150   3.683  0.00  0.00    +0.115 A 
ATOM      9  N   UNL     1       7.283   0.020   3.674  0.00  0.00    -0.263 NA
ATOM     10  C   UNL     1       7.183   0.757   4.762  0.00  0.00    +0.111 A 
ATOM     11  C   UNL     1       7.718   0.326   5.961  0.00  0.00    +0.020 A 
ATOM     12  C   UNL     1       8.361  -0.901   6.010  0.00  0.00    +0.008 A 
ENDBRANCH   3   7
TORSDOF 1
ENDMDL
MODEL 2
REMARK VINA RESULT:    -4.016      1.555      4.539
REMARK INTER + INTRA:          -4.459
REMARK INTER:                  -4.291
REMARK INTRA:                  -0.168
REMARK UNBOUND:                -0.209
REMARK  Name = Nicotine.pdb
REMARK  2 active torsions:
REMARK  status: ('A' for Active; 'I' for Inactive)
REMARK    1  A    between atoms: C_3  and  C_6
REMARK    2  A    between atoms: N_4  and  C_12
REMARK                            x       y       z     vdW  Elec       q    Type
REMARK                         _______ _______ _______ _____ _____    ______ ____
ROOT
ATOM      1  C   UNL     1       7.363  -0.095   3.283  0.00  0.00    +0.017 C 
ATOM      2  C   UNL     1       7.151  -1.598   2.960  0.00  0.00    +0.025 C 
ATOM      3  C   UNL     1       7.708  -2.304   4.214  0.00  0.00    +0.088 C 
ATOM      4  N   UNL     1       8.640  -1.367   4.866  0.00  0.00    -0.298 NA
ATOM      5  C   UNL     1       8.703  -0.128   4.061  0.00  0.00    +0.085 C 
ATOM      6  C   UNL     1       8.221  -1.079   6.244  0.00  0.00    +0.105 C 
ENDROOT
BRANCH   3   7
ATOM      7  C   UNL     1       8.439  -3.560   3.814  0.00  0.00    -0.012 A 
ATOM      8  C   UNL     1       9.696  -3.486   3.244  0.00  0.00    +0.115 A 
ATOM      9  N   UNL     1      10.342  -4.580   2.891  0.00  0.00    -0.263 NA
ATOM     10  C   UNL     1       9.821  -5.778   3.064  0.00  0.00    +0.111 A 
ATOM     11  C   UNL     1       8.568  -5.931   3.627  0.00  0.00    +0.020 A 
ATOM     12  C   UNL     1       7.861  -4.804   4.016  0.00  0.00    +0.008 A 
ENDBRANCH   3   7
TORSDOF 1
ENDMDL
MODEL 3
REMARK VINA RESULT:    -3.936      1.385      4.577
REMARK INTER + INTRA:          -4.375
REMARK INTER:                  -4.135
REMARK INTRA:                  -0.239
REMARK UNBOUND:                -0.209
REMARK  Name = Nicotine.pdb
REMARK  2 active torsions:
REMARK  status: ('A' for Active; 'I' for Inactive)
REMARK    1  A    between atoms: C_3  and  C_6
REMARK    2  A    between atoms: N_4  and  C_12
REMARK                            x       y       z     vdW  Elec       q    Type
REMARK                         _______ _______ _______ _____ _____    ______ ____
ROOT
ATOM      1  C   UNL     1       7.474  -0.096   3.154  0.00  0.00    +0.017 C 
ATOM      2  C   UNL     1       7.221  -1.601   2.879  0.00  0.00    +0.025 C 
ATOM      3  C   UNL     1       7.577  -2.265   4.226  0.00  0.00    +0.088 C 
ATOM      4  N   UNL     1       8.470  -1.340   4.947  0.00  0.00    -0.298 NA
ATOM      5  C   UNL     1       8.701  -0.152   4.098  0.00  0.00    +0.085 C 
ATOM      6  C   UNL     1       7.897  -0.958   6.244  0.00  0.00    +0.105 C 
ENDROOT
BRANCH   3   7
ATOM      7  C   UNL     1       8.281  -3.575   3.982  0.00  0.00    -0.012 A 
ATOM      8  C   UNL     1       7.903  -4.711   4.673  0.00  0.00    +0.115 A 
ATOM      9  N   UNL     1       8.514  -5.861   4.465  0.00  0.00    -0.263 NA
ATOM     10  C   UNL     1       9.502  -5.974   3.600  0.00  0.00    +0.111 A 
ATOM     11  C   UNL     1       9.935  -4.881   2.872  0.00  0.00    +0.020 A 
ATOM     12  C   UNL     1       9.313  -3.657   3.060  0.00  0.00    +0.008 A 
ENDBRANCH   3   7
TORSDOF 1
ENDMDL
MODEL 4
REMARK VINA RESULT:    -3.790      1.433      4.636
REMARK INTER + INTRA:          -4.221
REMARK INTER:                  -4.024
REMARK INTRA:                  -0.196
REMARK UNBOUND:                -0.209
REMARK  Name = Nicotine.pdb
REMARK  2 active torsions:
REMARK  status: ('A' for Active; 'I' for Inactive)
REMARK    1  A    between atoms: C_3  and  C_6
REMARK    2  A    between atoms: N_4  and  C_12
REMARK                            x       y       z     vdW  Elec       q    Type
REMARK                         _______ _______ _______ _____ _____    ______ ____
ROOT
ATOM      1  C   UNL     1       7.965  -0.722   6.061  0.00  0.00    +0.017 C 
ATOM      2  C   UNL     1       9.006  -1.827   5.738  0.00  0.00    +0.025 C 
ATOM      3  C   UNL     1       8.846  -2.018   4.214  0.00  0.00    +0.088 C 
ATOM      4  N   UNL     1       7.503  -1.531   3.851  0.00  0.00    -0.298 NA
ATOM      5  C   UNL     1       6.820  -1.074   5.080  0.00  0.00    +0.085 C 
ATOM      6  C   UNL     1       7.584  -0.451   2.860  0.00  0.00    +0.105 C 
ENDROOT
BRANCH   3   7
ATOM      7  C   UNL     1       8.976  -3.478   3.864  0.00  0.00    -0.012 A 
ATOM      8  C   UNL     1      10.118  -3.950   3.246  0.00  0.00    +0.115 A 
ATOM      9  N   UNL     1      10.240  -5.226   2.936  0.00  0.00    -0.263 NA
ATOM     10  C   UNL     1       9.286  -6.097   3.201  0.00  0.00    +0.111 A 
ATOM     11  C   UNL     1       8.115  -5.699   3.818  0.00  0.00    +0.020 A 
ATOM     12  C   UNL     1       7.954  -4.366   4.163  0.00  0.00    +0.008 A 
ENDBRANCH   3   7
TORSDOF 1
ENDMDL
MODEL 5
REMARK VINA RESULT:    -3.553      1.294      4.463
REMARK INTER + INTRA:          -3.970
REMARK INTER:                  -3.754
REMARK INTRA:                  -0.216
REMARK UNBOUND:                -0.209
REMARK  Name = Nicotine.pdb
REMARK  2 active torsions:
REMARK  status: ('A' for Active; 'I' for Inactive)
REMARK    1  A    between atoms: C_3  and  C_6
REMARK    2  A    between atoms: N_4  and  C_12
REMARK                            x       y       z     vdW  Elec       q    Type
REMARK                         _______ _______ _______ _____ _____    ______ ____
ROOT
ATOM      1  C   UNL     1       7.919   1.150   4.923  0.00  0.00    +0.017 C 
ATOM      2  C   UNL     1       8.189   0.034   3.880  0.00  0.00    +0.025 C 
ATOM      3  C   UNL     1       7.399  -1.166   4.444  0.00  0.00    +0.088 C 
ATOM      4  N   UNL     1       7.218  -0.931   5.888  0.00  0.00    -0.298 NA
ATOM      5  C   UNL     1       7.880   0.342   6.244  0.00  0.00    +0.085 C 
ATOM      6  C   UNL     1       5.794  -0.902   6.243  0.00  0.00    +0.105 C 
ENDROOT
BRANCH   3   7
ATOM      7  C   UNL     1       8.174  -2.439   4.223  0.00  0.00    -0.012 A 
ATOM      8  C   UNL     1       7.966  -3.535   5.040  0.00  0.00    +0.115 A 
ATOM      9  N   UNL     1       8.640  -4.653   4.854  0.00  0.00    -0.263 NA
ATOM     10  C   UNL     1       9.532  -4.772   3.890  0.00  0.00    +0.111 A 
ATOM     11  C   UNL     1       9.792  -3.719   3.033  0.00  0.00    +0.020 A 
ATOM     12  C   UNL     1       9.099  -2.530   3.195  0.00  0.00    +0.008 A 
ENDBRANCH   3   7
TORSDOF 1
ENDMDL
MODEL 6
REMARK VINA RESULT:    -3.488      1.542      4.218
REMARK INTER + INTRA:          -3.900
REMARK INTER:                  -3.702
REMARK INTRA:                  -0.198
REMARK UNBOUND:                -0.209
REMARK  Name = Nicotine.pdb
REMARK  2 active torsions:
REMARK  status: ('A' for Active; 'I' for Inactive)
REMARK    1  A    between atoms: C_3  and  C_6
REMARK    2  A    between atoms: N_4  and  C_12
REMARK                            x       y       z     vdW  Elec       q    Type
REMARK                         _______ _______ _______ _____ _____    ______ ____
ROOT
ATOM      1  C   UNL     1       7.254  -0.350   2.772  0.00  0.00    +0.017 C 
ATOM      2  C   UNL     1       7.644  -1.849   2.848  0.00  0.00    +0.025 C 
ATOM      3  C   UNL     1       7.707  -2.116   4.367  0.00  0.00    +0.088 C 
ATOM      4  N   UNL     1       7.917  -0.816   5.030  0.00  0.00    -0.298 NA
ATOM      5  C   UNL     1       8.011   0.233   3.992  0.00  0.00    +0.085 C 
ATOM      6  C   UNL     1       6.831  -0.525   5.975  0.00  0.00    +0.105 C 
ENDROOT
BRANCH   3   7
ATOM      7  C   UNL     1       8.854  -3.042   4.678  0.00  0.00    -0.012 A 
ATOM      8  C   UNL     1       9.610  -3.586   3.657  0.00  0.00    +0.115 A 
ATOM      9  N   UNL     1      10.615  -4.398   3.920  0.00  0.00    -0.263 NA
ATOM     10  C   UNL     1      10.938  -4.722   5.157  0.00  0.00    +0.111 A 
ATOM     11  C   UNL     1      10.227  -4.217   6.230  0.00  0.00    +0.020 A 
ATOM     12  C   UNL     1       9.167  -3.356   5.992  0.00  0.00    +0.008 A 
ENDBRANCH   3   7
TORSDOF 1
ENDMDL
MODEL 7
REMARK VINA RESULT:    -2.041      1.763      2.712
REMARK INTER + INTRA:          -2.369
REMARK INTER:                  -2.154
REMARK INTRA:                  -0.215
REMARK UNBOUND:                -0.209
REMARK  Name = Nicotine.pdb
REMARK  2 active torsions:
REMARK  status: ('A' for Active; 'I' for Inactive)
REMARK    1  A    between atoms: C_3  and  C_6
REMARK    2  A    between atoms: N_4  and  C_12
REMARK                            x       y       z     vdW  Elec       q    Type
REMARK                         _______ _______ _______ _____ _____    ______ ____
ROOT
ATOM      1  C   UNL     1       7.969  -3.729   4.035  0.00  0.00    +0.017 C 
ATOM      2  C   UNL     1       7.229  -2.459   4.532  0.00  0.00    +0.025 C 
ATOM      3  C   UNL     1       7.850  -1.337   3.673  0.00  0.00    +0.088 C 
ATOM      4  N   UNL     1       9.161  -1.821   3.203  0.00  0.00    -0.298 NA
ATOM      5  C   UNL     1       9.388  -3.175   3.753  0.00  0.00    +0.085 C 
ATOM      6  C   UNL     1       9.225  -1.830   1.736  0.00  0.00    +0.105 C 
ENDROOT
BRANCH   3   7
ATOM      7  C   UNL     1       8.029  -0.094   4.504  0.00  0.00    -0.012 A 
ATOM      8  C   UNL     1       9.114   0.736   4.296  0.00  0.00    +0.115 A 
ATOM      9  N   UNL     1       9.278   1.827   5.020  0.00  0.00    -0.263 NA
ATOM     10  C   UNL     1       8.422   2.168   5.963  0.00  0.00    +0.111 A 
ATOM     11  C   UNL     1       7.312   1.387   6.228  0.00  0.00    +0.020 A 
ATOM     12  C   UNL     1       7.104   0.236   5.484  0.00  0.00    +0.008 A 
ENDBRANCH   3   7
TORSDOF 1
ENDMDL
MODEL 8
REMARK VINA RESULT:    -1.812      1.577      4.541
REMARK INTER + INTRA:          -2.126
REMARK INTER:                  -1.913
REMARK INTRA:                  -0.214
REMARK UNBOUND:                -0.209
REMARK  Name = Nicotine.pdb
REMARK  2 active torsions:
REMARK  status: ('A' for Active; 'I' for Inactive)
REMARK    1  A    between atoms: C_3  and  C_6
REMARK    2  A    between atoms: N_4  and  C_12
REMARK                            x       y       z     vdW  Elec       q    Type
REMARK                         _______ _______ _______ _____ _____    ______ ____
ROOT
ATOM      1  C   UNL     1       5.864  -0.685   5.664  0.00  0.00    +0.017 C 
ATOM      2  C   UNL     1       6.592  -1.931   6.232  0.00  0.00    +0.025 C 
ATOM      3  C   UNL     1       8.081  -1.538   6.136  0.00  0.00    +0.088 C 
ATOM      4  N   UNL     1       8.189  -0.485   5.110  0.00  0.00    -0.298 NA
ATOM      5  C   UNL     1       6.844  -0.230   4.553  0.00  0.00    +0.085 C 
ATOM      6  C   UNL     1       8.768   0.742   5.673  0.00  0.00    +0.105 C 
ENDROOT
BRANCH   3   7
ATOM      7  C   UNL     1       8.903  -2.734   5.733  0.00  0.00    -0.012 A 
ATOM      8  C   UNL     1       8.357  -3.720   4.933  0.00  0.00    +0.115 A 
ATOM      9  N   UNL     1       9.069  -4.770   4.575  0.00  0.00    -0.263 NA
ATOM     10  C   UNL     1      10.320  -4.924   4.962  0.00  0.00    +0.111 A 
ATOM     11  C   UNL     1      10.934  -3.979   5.763  0.00  0.00    +0.020 A 
ATOM     12  C   UNL     1      10.218  -2.858   6.155  0.00  0.00    +0.008 A 
ENDBRANCH   3   7
TORSDOF 1
ENDMDL
