MODEL 1
REMARK VINA RESULT:     4.659      0.000      0.000
REMARK INTER + INTRA:           4.716
REMARK INTER:                   4.931
REMARK INTRA:                  -0.215
REMARK UNBOUND:                -0.215
REMARK  Name = Nicotine.pdb
REMARK  2 active torsions:
REMARK  status: ('A' for Active; 'I' for Inactive)
REMARK    1  A    between atoms: C_3  and  C_6
REMARK    2  A    between atoms: N_4  and  C_12
REMARK                            x       y       z     vdW  Elec       q    Type
REMARK                         _______ _______ _______ _____ _____    ______ ____
ROOT
ATOM      1  C   UNL     1      -2.286  -2.744   5.794  0.00  0.00    +0.017 C 
ATOM      2  C   UNL     1      -0.877  -2.174   5.483  0.00  0.00    +0.025 C 
ATOM      3  C   UNL     1      -0.806  -2.246   3.943  0.00  0.00    +0.088 C 
ATOM      4  N   UNL     1      -1.780  -3.263   3.507  0.00  0.00    -0.298 NA
ATOM      5  C   UNL     1      -2.428  -3.838   4.706  0.00  0.00    +0.085 C 
ATOM      6  C   UNL     1      -2.776  -2.683   2.596  0.00  0.00    +0.105 C 
ENDROOT
BRANCH   3   7
ATOM      7  C   UNL     1       0.581  -2.645   3.511  0.00  0.00    -0.012 A 
ATOM      8  C   UNL     1       1.387  -3.390   4.351  0.00  0.00    +0.115 A 
ATOM      9  N   UNL     1       2.602  -3.744   3.982  0.00  0.00    -0.263 NA
ATOM     10  C   UNL     1       3.096  -3.405   2.807  0.00  0.00    +0.111 A 
ATOM     11  C   UNL     1       2.348  -2.661   1.914  0.00  0.00    +0.020 A 
ATOM     12  C   UNL     1       1.064  -2.275   2.265  0.00  0.00    +0.008 A 
ENDBRANCH   3   7
TORSDOF 1
ENDMDL
MODEL 2
REMARK VINA RESULT:     5.963      0.804      1.374
REMARK INTER + INTRA:           6.097
REMARK INTER:                   6.351
REMARK INTRA:                  -0.254
REMARK UNBOUND:                -0.215
REMARK  Name = Nicotine.pdb
REMARK  2 active torsions:
REMARK  status: ('A' for Active; 'I' for Inactive)
REMARK    1  A    between atoms: C_3  and  C_6
REMARK    2  A    between atoms: N_4  and  C_12
REMARK                            x       y       z     vdW  Elec       q    Type
REMARK                         _______ _______ _______ _____ _____    ______ ____
ROOT
ATOM      1  C   UNL     1      -2.443  -2.835   5.730  0.00  0.00    +0.017 C 
ATOM      2  C   UNL     1      -1.007  -2.296   5.500  0.00  0.00    +0.025 C 
ATOM      3  C   UNL     1      -0.901  -2.237   3.961  0.00  0.00    +0.088 C 
ATOM      4  N   UNL     1      -1.903  -3.172   3.418  0.00  0.00    -0.298 NA
ATOM      5  C   UNL     1      -2.601  -3.822   4.547  0.00  0.00    +0.085 C 
ATOM      6  C   UNL     1      -2.853  -2.475   2.541  0.00  0.00    +0.105 C 
ENDROOT
BRANCH   3   7
ATOM      7  C   UNL     1       0.480  -2.652   3.525  0.00  0.00    -0.012 A 
ATOM      8  C   UNL     1       0.901  -2.425   2.229  0.00  0.00    +0.115 A 
ATOM      9  N   UNL     1       2.109  -2.786   1.839  0.00  0.00    -0.263 NA
ATOM     10  C   UNL     1       2.956  -3.373   2.661  0.00  0.00    +0.111 A 
ATOM     11  C   UNL     1       2.604  -3.632   3.973  0.00  0.00    +0.020 A 
ATOM     12  C   UNL     1       1.345  -3.262   4.420  0.00  0.00    +0.008 A 
ENDBRANCH   3   7
TORSDOF 1
ENDMDL
