MODEL 1
REMARK VINA RESULT:    -4.092      0.000      0.000
REMARK INTER + INTRA:          -4.546
REMARK INTER:                  -4.331
REMARK INTRA:                  -0.215
REMARK UNBOUND:                -0.215
REMARK  Name = Nicotine.pdb
REMARK  2 active torsions:
REMARK  status: ('A' for Active; 'I' for Inactive)
REMARK    1  A    between atoms: C_3  and  C_6
REMARK    2  A    between atoms: N_4  and  C_12
REMARK                            x       y       z     vdW  Elec       q    Type
REMARK                         _______ _______ _______ _____ _____    ______ ____
ROOT
ATOM      1  C   UNL     1      -2.481  -3.879   1.501  0.00  0.00    +0.017 C 
ATOM      2  C   UNL     1      -2.520  -2.348   1.747  0.00  0.00    +0.025 C 
ATOM      3  C   UNL     1      -1.978  -2.214   3.186  0.00  0.00    +0.088 C 
ATOM      4  N   UNL     1      -2.182  -3.513   3.852  0.00  0.00    -0.298 NA
ATOM      5  C   UNL     1      -2.846  -4.431   2.902  0.00  0.00    +0.085 C 
ATOM      6  C   UNL     1      -0.908  -4.071   4.321  0.00  0.00    +0.105 C 
ENDROOT
BRANCH   3   7
ATOM      7  C   UNL     1      -2.733  -1.136   3.920  0.00  0.00    -0.012 A 
ATOM      8  C   UNL     1      -2.887  -1.200   5.292  0.00  0.00    +0.115 A 
ATOM      9  N   UNL     1      -3.546  -0.261   5.941  0.00  0.00    -0.263 NA
ATOM     10  C   UNL     1      -4.082   0.769   5.316  0.00  0.00    +0.111 A 
ATOM     11  C   UNL     1      -3.968   0.901   3.944  0.00  0.00    +0.020 A 
ATOM     12  C   UNL     1      -3.278  -0.064   3.228  0.00  0.00    +0.008 A 
ENDBRANCH   3   7
TORSDOF 1
ENDMDL
MODEL 2
REMARK VINA RESULT:    -4.018      1.612      4.477
REMARK INTER + INTRA:          -4.468
REMARK INTER:                  -4.215
REMARK INTRA:                  -0.253
REMARK UNBOUND:                -0.215
REMARK  Name = Nicotine.pdb
REMARK  2 active torsions:
REMARK  status: ('A' for Active; 'I' for Inactive)
REMARK    1  A    between atoms: C_3  and  C_6
REMARK    2  A    between atoms: N_4  and  C_12
REMARK                            x       y       z     vdW  Elec       q    Type
REMARK                         _______ _______ _______ _____ _____    ______ ____
ROOT
ATOM      1  C   UNL     1      -5.074   1.122   3.886  0.00  0.00    +0.017 C 
ATOM      2  C   UNL     1      -5.122  -0.068   2.891  0.00  0.00    +0.025 C 
ATOM      3  C   UNL     1      -4.796  -1.282   3.787  0.00  0.00    +0.088 C 
ATOM      4  N   UNL     1      -4.079  -0.772   4.969  0.00  0.00    -0.298 NA
ATOM      5  C   UNL     1      -3.926   0.692   4.833  0.00  0.00    +0.085 C 
ATOM      6  C   UNL     1      -4.792  -1.115   6.206  0.00  0.00    +0.105 C 
ENDROOT
BRANCH   3   7
ATOM      7  C   UNL     1      -3.923  -2.253   3.035  0.00  0.00    -0.012 A 
ATOM      8  C   UNL     1      -4.048  -3.613   3.245  0.00  0.00    +0.115 A 
ATOM      9  N   UNL     1      -3.288  -4.470   2.592  0.00  0.00    -0.263 NA
ATOM     10  C   UNL     1      -2.385  -4.069   1.719  0.00  0.00    +0.111 A 
ATOM     11  C   UNL     1      -2.203  -2.724   1.455  0.00  0.00    +0.020 A 
ATOM     12  C   UNL     1      -2.987  -1.794   2.120  0.00  0.00    +0.008 A 
ENDBRANCH   3   7
TORSDOF 1
ENDMDL
MODEL 3
REMARK VINA RESULT:    -3.985      1.239      1.753
REMARK INTER + INTRA:          -4.433
REMARK INTER:                  -4.219
REMARK INTRA:                  -0.214
REMARK UNBOUND:                -0.215
REMARK  Name = Nicotine.pdb
REMARK  2 active torsions:
REMARK  status: ('A' for Active; 'I' for Inactive)
REMARK    1  A    between atoms: C_3  and  C_6
REMARK    2  A    between atoms: N_4  and  C_12
REMARK                            x       y       z     vdW  Elec       q    Type
REMARK                         _______ _______ _______ _____ _____    ______ ____
ROOT
ATOM      1  C   UNL     1      -0.864  -3.121   2.212  0.00  0.00    +0.017 C 
ATOM      2  C   UNL     1      -1.265  -2.172   3.373  0.00  0.00    +0.025 C 
ATOM      3  C   UNL     1      -2.766  -2.474   3.565  0.00  0.00    +0.088 C 
ATOM      4  N   UNL     1      -3.260  -3.055   2.304  0.00  0.00    -0.298 NA
ATOM      5  C   UNL     1      -2.142  -3.102   1.337  0.00  0.00    +0.085 C 
ATOM      6  C   UNL     1      -3.822  -4.394   2.525  0.00  0.00    +0.105 C 
ENDROOT
BRANCH   3   7
ATOM      7  C   UNL     1      -3.510  -1.200   3.870  0.00  0.00    -0.012 A 
ATOM      8  C   UNL     1      -3.242  -0.493   5.027  0.00  0.00    +0.115 A 
ATOM      9  N   UNL     1      -3.889   0.623   5.301  0.00  0.00    -0.263 NA
ATOM     10  C   UNL     1      -4.809   1.107   4.492  0.00  0.00    +0.111 A 
ATOM     11  C   UNL     1      -5.131   0.456   3.315  0.00  0.00    +0.020 A 
ATOM     12  C   UNL     1      -4.468  -0.718   2.991  0.00  0.00    +0.008 A 
ENDBRANCH   3   7
TORSDOF 1
ENDMDL
MODEL 4
REMARK VINA RESULT:    -3.752      1.605      4.521
REMARK INTER + INTRA:          -4.187
REMARK INTER:                  -3.936
REMARK INTRA:                  -0.251
REMARK UNBOUND:                -0.215
REMARK  Name = Nicotine.pdb
REMARK  2 active torsions:
REMARK  status: ('A' for Active; 'I' for Inactive)
REMARK    1  A    between atoms: C_3  and  C_6
REMARK    2  A    between atoms: N_4  and  C_12
REMARK                            x       y       z     vdW  Elec       q    Type
REMARK                         _______ _______ _______ _____ _____    ______ ____
ROOT
ATOM      1  C   UNL     1      -3.377  -0.552   2.194  0.00  0.00    +0.017 C 
ATOM      2  C   UNL     1      -2.800  -1.932   1.783  0.00  0.00    +0.025 C 
ATOM      3  C   UNL     1      -3.343  -2.875   2.878  0.00  0.00    +0.088 C 
ATOM      4  N   UNL     1      -3.666  -2.043   4.051  0.00  0.00    -0.298 NA
ATOM      5  C   UNL     1      -3.324  -0.639   3.740  0.00  0.00    +0.085 C 
ATOM      6  C   UNL     1      -5.082  -2.172   4.415  0.00  0.00    +0.105 C 
ENDROOT
BRANCH   3   7
ATOM      7  C   UNL     1      -2.295  -3.894   3.243  0.00  0.00    -0.012 A 
ATOM      8  C   UNL     1      -2.656  -5.199   3.523  0.00  0.00    +0.115 A 
ATOM      9  N   UNL     1      -1.745  -6.097   3.843  0.00  0.00    -0.263 NA
ATOM     10  C   UNL     1      -0.464  -5.791   3.910  0.00  0.00    +0.111 A 
ATOM     11  C   UNL     1      -0.028  -4.507   3.643  0.00  0.00    +0.020 A 
ATOM     12  C   UNL     1      -0.956  -3.537   3.298  0.00  0.00    +0.008 A 
ENDBRANCH   3   7
TORSDOF 1
ENDMDL
MODEL 5
REMARK VINA RESULT:    -3.641      9.305     10.566
REMARK INTER + INTRA:          -4.069
REMARK INTER:                  -3.854
REMARK INTRA:                  -0.214
REMARK UNBOUND:                -0.215
REMARK  Name = Nicotine.pdb
REMARK  2 active torsions:
REMARK  status: ('A' for Active; 'I' for Inactive)
REMARK    1  A    between atoms: C_3  and  C_6
REMARK    2  A    between atoms: N_4  and  C_12
REMARK                            x       y       z     vdW  Elec       q    Type
REMARK                         _______ _______ _______ _____ _____    ______ ____
ROOT
ATOM      1  C   UNL     1      -0.073  -1.786  -5.831  0.00  0.00    +0.017 C 
ATOM      2  C   UNL     1      -1.377  -2.298  -5.165  0.00  0.00    +0.025 C 
ATOM      3  C   UNL     1      -1.301  -3.824  -5.381  0.00  0.00    +0.088 C 
ATOM      4  N   UNL     1      -0.397  -4.060  -6.521  0.00  0.00    -0.298 NA
ATOM      5  C   UNL     1       0.065  -2.753  -7.034  0.00  0.00    +0.085 C 
ATOM      6  C   UNL     1       0.739  -4.904  -6.128  0.00  0.00    +0.105 C 
ENDROOT
BRANCH   3   7
ATOM      7  C   UNL     1      -2.671  -4.368  -5.690  0.00  0.00    -0.012 A 
ATOM      8  C   UNL     1      -3.680  -4.299  -4.747  0.00  0.00    +0.115 A 
ATOM      9  N   UNL     1      -4.882  -4.772  -5.009  0.00  0.00    -0.263 NA
ATOM     10  C   UNL     1      -5.171  -5.326  -6.170  0.00  0.00    +0.111 A 
ATOM     11  C   UNL     1      -4.214  -5.430  -7.162  0.00  0.00    +0.020 A 
ATOM     12  C   UNL     1      -2.939  -4.938  -6.925  0.00  0.00    +0.008 A 
ENDBRANCH   3   7
TORSDOF 1
ENDMDL
MODEL 6
REMARK VINA RESULT:    -3.639      1.671      2.206
REMARK INTER + INTRA:          -4.067
REMARK INTER:                  -3.818
REMARK INTRA:                  -0.249
REMARK UNBOUND:                -0.215
REMARK  Name = Nicotine.pdb
REMARK  2 active torsions:
REMARK  status: ('A' for Active; 'I' for Inactive)
REMARK    1  A    between atoms: C_3  and  C_6
REMARK    2  A    between atoms: N_4  and  C_12
REMARK                            x       y       z     vdW  Elec       q    Type
REMARK                         _______ _______ _______ _____ _____    ______ ____
ROOT
ATOM      1  C   UNL     1      -2.239  -5.503   2.979  0.00  0.00    +0.017 C 
ATOM      2  C   UNL     1      -3.334  -4.489   2.553  0.00  0.00    +0.025 C 
ATOM      3  C   UNL     1      -2.527  -3.200   2.285  0.00  0.00    +0.088 C 
ATOM      4  N   UNL     1      -1.262  -3.313   3.033  0.00  0.00    -0.298 NA
ATOM      5  C   UNL     1      -1.262  -4.596   3.768  0.00  0.00    +0.085 C 
ATOM      6  C   UNL     1      -0.107  -3.222   2.132  0.00  0.00    +0.105 C 
ENDROOT
BRANCH   3   7
ATOM      7  C   UNL     1      -3.303  -2.001   2.765  0.00  0.00    -0.012 A 
ATOM      8  C   UNL     1      -2.844  -0.723   2.508  0.00  0.00    +0.115 A 
ATOM      9  N   UNL     1      -3.517   0.332   2.925  0.00  0.00    -0.263 NA
ATOM     10  C   UNL     1      -4.644   0.214   3.597  0.00  0.00    +0.111 A 
ATOM     11  C   UNL     1      -5.165  -1.032   3.891  0.00  0.00    +0.020 A 
ATOM     12  C   UNL     1      -4.488  -2.165   3.465  0.00  0.00    +0.008 A 
ENDBRANCH   3   7
TORSDOF 1
ENDMDL
MODEL 7
REMARK VINA RESULT:    -3.161      1.669      4.055
REMARK INTER + INTRA:          -3.561
REMARK INTER:                  -3.359
REMARK INTRA:                  -0.202
REMARK UNBOUND:                -0.215
REMARK  Name = Nicotine.pdb
REMARK  2 active torsions:
REMARK  status: ('A' for Active; 'I' for Inactive)
REMARK    1  A    between atoms: C_3  and  C_6
REMARK    2  A    between atoms: N_4  and  C_12
REMARK                            x       y       z     vdW  Elec       q    Type
REMARK                         _______ _______ _______ _____ _____    ______ ____
ROOT
ATOM      1  C   UNL     1      -3.538  -0.630   1.906  0.00  0.00    +0.017 C 
ATOM      2  C   UNL     1      -3.385  -2.073   2.453  0.00  0.00    +0.025 C 
ATOM      3  C   UNL     1      -3.685  -1.908   3.958  0.00  0.00    +0.088 C 
ATOM      4  N   UNL     1      -3.443  -0.494   4.299  0.00  0.00    -0.298 NA
ATOM      5  C   UNL     1      -2.984   0.211   3.083  0.00  0.00    +0.085 C 
ATOM      6  C   UNL     1      -4.653   0.131   4.846  0.00  0.00    +0.105 C 
ENDROOT
BRANCH   3   7
ATOM      7  C   UNL     1      -2.771  -2.795   4.763  0.00  0.00    -0.012 A 
ATOM      8  C   UNL     1      -1.708  -2.253   5.461  0.00  0.00    +0.115 A 
ATOM      9  N   UNL     1      -0.904  -3.023   6.169  0.00  0.00    -0.263 NA
ATOM     10  C   UNL     1      -1.077  -4.328   6.239  0.00  0.00    +0.111 A 
ATOM     11  C   UNL     1      -2.119  -4.940   5.568  0.00  0.00    +0.020 A 
ATOM     12  C   UNL     1      -2.989  -4.163   4.818  0.00  0.00    +0.008 A 
ENDBRANCH   3   7
TORSDOF 1
ENDMDL
MODEL 8
REMARK VINA RESULT:    -2.911      2.182      4.705
REMARK INTER + INTRA:          -3.296
REMARK INTER:                  -3.085
REMARK INTRA:                  -0.212
REMARK UNBOUND:                -0.215
REMARK  Name = Nicotine.pdb
REMARK  2 active torsions:
REMARK  status: ('A' for Active; 'I' for Inactive)
REMARK    1  A    between atoms: C_3  and  C_6
REMARK    2  A    between atoms: N_4  and  C_12
REMARK                            x       y       z     vdW  Elec       q    Type
REMARK                         _______ _______ _______ _____ _____    ______ ____
ROOT
ATOM      1  C   UNL     1      -2.490  -2.555   1.344  0.00  0.00    +0.017 C 
ATOM      2  C   UNL     1      -1.945  -3.928   1.816  0.00  0.00    +0.025 C 
ATOM      3  C   UNL     1      -2.849  -4.266   3.021  0.00  0.00    +0.088 C 
ATOM      4  N   UNL     1      -3.410  -2.995   3.516  0.00  0.00    -0.298 NA
ATOM      5  C   UNL     1      -2.874  -1.891   2.691  0.00  0.00    +0.085 C 
ATOM      6  C   UNL     1      -4.878  -3.017   3.479  0.00  0.00    +0.105 C 
ENDROOT
BRANCH   3   7
ATOM      7  C   UNL     1      -2.036  -4.925   4.104  0.00  0.00    -0.012 A 
ATOM      8  C   UNL     1      -0.657  -4.972   4.012  0.00  0.00    +0.115 A 
ATOM      9  N   UNL     1       0.062  -5.547   4.956  0.00  0.00    -0.263 NA
ATOM     10  C   UNL     1      -0.497  -6.097   6.016  0.00  0.00    +0.111 A 
ATOM     11  C   UNL     1      -1.870  -6.088   6.176  0.00  0.00    +0.020 A 
ATOM     12  C   UNL     1      -2.659  -5.488   5.207  0.00  0.00    +0.008 A 
ENDBRANCH   3   7
TORSDOF 1
ENDMDL
