MODEL 1
REMARK VINA RESULT:    -3.929      0.000      0.000
REMARK INTER + INTRA:          -4.413
REMARK INTER:                  -4.159
REMARK INTRA:                  -0.255
REMARK UNBOUND:                -0.255
REMARK  Name = Nicotine.pdb
REMARK  2 active torsions:
REMARK  status: ('A' for Active; 'I' for Inactive)
REMARK    1  A    between atoms: C_3  and  C_6
REMARK    2  A    between atoms: N_4  and  C_12
REMARK                            x       y       z     vdW  Elec       q    Type
REMARK                         _______ _______ _______ _____ _____    ______ ____
ROOT
ATOM      1  C   UNL     1       6.159   0.358   3.239  0.00  0.00    +0.017 C 
ATOM      2  C   UNL     1       5.834  -1.131   2.947  0.00  0.00    +0.025 C 
ATOM      3  C   UNL     1       7.131  -1.646   2.288  0.00  0.00    +0.088 C 
ATOM      4  N   UNL     1       7.841  -0.474   1.745  0.00  0.00    -0.298 NA
ATOM      5  C   UNL     1       7.032   0.733   2.016  0.00  0.00    +0.085 C 
ATOM      6  C   UNL     1       9.182  -0.352   2.331  0.00  0.00    +0.105 C 
ENDROOT
BRANCH   3   7
ATOM      7  C   UNL     1       6.795  -2.605   1.175  0.00  0.00    -0.012 A 
ATOM      8  C   UNL     1       7.773  -3.416   0.632  0.00  0.00    +0.115 A 
ATOM      9  N   UNL     1       7.487  -4.258  -0.342  0.00  0.00    -0.263 NA
ATOM     10  C   UNL     1       6.269  -4.359  -0.835  0.00  0.00    +0.111 A 
ATOM     11  C   UNL     1       5.239  -3.580  -0.342  0.00  0.00    +0.020 A 
ATOM     12  C   UNL     1       5.500  -2.687   0.686  0.00  0.00    +0.008 A 
ENDBRANCH   3   7
TORSDOF 1
ENDMDL
MODEL 2
REMARK VINA RESULT:    -3.833      1.559      4.497
REMARK INTER + INTRA:          -4.312
REMARK INTER:                  -4.061
REMARK INTRA:                  -0.251
REMARK UNBOUND:                -0.255
REMARK  Name = Nicotine.pdb
REMARK  2 active torsions:
REMARK  status: ('A' for Active; 'I' for Inactive)
REMARK    1  A    between atoms: C_3  and  C_6
REMARK    2  A    between atoms: N_4  and  C_12
REMARK                            x       y       z     vdW  Elec       q    Type
REMARK                         _______ _______ _______ _____ _____    ______ ____
ROOT
ATOM      1  C   UNL     1       6.797  -3.675   0.670  0.00  0.00    +0.017 C 
ATOM      2  C   UNL     1       6.080  -2.332   0.967  0.00  0.00    +0.025 C 
ATOM      3  C   UNL     1       7.254  -1.351   1.175  0.00  0.00    +0.088 C 
ATOM      4  N   UNL     1       8.435  -2.153   1.539  0.00  0.00    -0.298 NA
ATOM      5  C   UNL     1       8.040  -3.577   1.590  0.00  0.00    +0.085 C 
ATOM      6  C   UNL     1       9.530  -1.944   0.583  0.00  0.00    +0.105 C 
ENDROOT
BRANCH   3   7
ATOM      7  C   UNL     1       6.925  -0.387   2.285  0.00  0.00    -0.012 A 
ATOM      8  C   UNL     1       7.330   0.933   2.208  0.00  0.00    +0.115 A 
ATOM      9  N   UNL     1       7.046   1.783   3.175  0.00  0.00    -0.263 NA
ATOM     10  C   UNL     1       6.372   1.415   4.246  0.00  0.00    +0.111 A 
ATOM     11  C   UNL     1       5.934   0.112   4.393  0.00  0.00    +0.020 A 
ATOM     12  C   UNL     1       6.208  -0.809   3.394  0.00  0.00    +0.008 A 
ENDBRANCH   3   7
TORSDOF 1
ENDMDL
MODEL 3
REMARK VINA RESULT:    -3.766      1.589      4.224
REMARK INTER + INTRA:          -4.241
REMARK INTER:                  -4.018
REMARK INTRA:                  -0.224
REMARK UNBOUND:                -0.255
REMARK  Name = Nicotine.pdb
REMARK  2 active torsions:
REMARK  status: ('A' for Active; 'I' for Inactive)
REMARK    1  A    between atoms: C_3  and  C_6
REMARK    2  A    between atoms: N_4  and  C_12
REMARK                            x       y       z     vdW  Elec       q    Type
REMARK                         _______ _______ _______ _____ _____    ______ ____
ROOT
ATOM      1  C   UNL     1       5.919  -4.234  -0.713  0.00  0.00    +0.017 C 
ATOM      2  C   UNL     1       5.407  -3.114   0.231  0.00  0.00    +0.025 C 
ATOM      3  C   UNL     1       6.705  -2.391   0.648  0.00  0.00    +0.088 C 
ATOM      4  N   UNL     1       7.816  -3.339   0.450  0.00  0.00    -0.298 NA
ATOM      5  C   UNL     1       7.262  -4.618  -0.043  0.00  0.00    +0.085 C 
ATOM      6  C   UNL     1       8.810  -2.799  -0.487  0.00  0.00    +0.105 C 
ENDROOT
BRANCH   3   7
ATOM      7  C   UNL     1       6.625  -1.988   2.097  0.00  0.00    -0.012 A 
ATOM      8  C   UNL     1       7.585  -2.414   2.995  0.00  0.00    +0.115 A 
ATOM      9  N   UNL     1       7.522  -2.066   4.266  0.00  0.00    -0.263 NA
ATOM     10  C   UNL     1       6.551  -1.304   4.728  0.00  0.00    +0.111 A 
ATOM     11  C   UNL     1       5.555  -0.839   3.889  0.00  0.00    +0.020 A 
ATOM     12  C   UNL     1       5.591  -1.180   2.546  0.00  0.00    +0.008 A 
ENDBRANCH   3   7
TORSDOF 1
ENDMDL
MODEL 4
REMARK VINA RESULT:    -3.759      1.431      2.548
REMARK INTER + INTRA:          -4.233
REMARK INTER:                  -3.988
REMARK INTRA:                  -0.245
REMARK UNBOUND:                -0.255
REMARK  Name = Nicotine.pdb
REMARK  2 active torsions:
REMARK  status: ('A' for Active; 'I' for Inactive)
REMARK    1  A    between atoms: C_3  and  C_6
REMARK    2  A    between atoms: N_4  and  C_12
REMARK                            x       y       z     vdW  Elec       q    Type
REMARK                         _______ _______ _______ _____ _____    ______ ____
ROOT
ATOM      1  C   UNL     1       6.599   1.453   3.691  0.00  0.00    +0.017 C 
ATOM      2  C   UNL     1       6.489   0.883   2.252  0.00  0.00    +0.025 C 
ATOM      3  C   UNL     1       6.062  -0.581   2.491  0.00  0.00    +0.088 C 
ATOM      4  N   UNL     1       6.467  -0.935   3.864  0.00  0.00    -0.298 NA
ATOM      5  C   UNL     1       7.143   0.231   4.471  0.00  0.00    +0.085 C 
ATOM      6  C   UNL     1       5.307  -1.348   4.665  0.00  0.00    +0.105 C 
ENDROOT
BRANCH   3   7
ATOM      7  C   UNL     1       6.753  -1.485   1.503  0.00  0.00    -0.012 A 
ATOM      8  C   UNL     1       6.057  -2.505   0.883  0.00  0.00    +0.115 A 
ATOM      9  N   UNL     1       6.654  -3.300   0.017  0.00  0.00    -0.263 NA
ATOM     10  C   UNL     1       7.928  -3.157  -0.292  0.00  0.00    +0.111 A 
ATOM     11  C   UNL     1       8.688  -2.158   0.287  0.00  0.00    +0.020 A 
ATOM     12  C   UNL     1       8.093  -1.299   1.199  0.00  0.00    +0.008 A 
ENDBRANCH   3   7
TORSDOF 1
ENDMDL
MODEL 5
REMARK VINA RESULT:    -3.676      0.998      1.503
REMARK INTER + INTRA:          -4.146
REMARK INTER:                  -3.971
REMARK INTRA:                  -0.175
REMARK UNBOUND:                -0.255
REMARK  Name = Nicotine.pdb
REMARK  2 active torsions:
REMARK  status: ('A' for Active; 'I' for Inactive)
REMARK    1  A    between atoms: C_3  and  C_6
REMARK    2  A    between atoms: N_4  and  C_12
REMARK                            x       y       z     vdW  Elec       q    Type
REMARK                         _______ _______ _______ _____ _____    ______ ____
ROOT
ATOM      1  C   UNL     1       6.081   0.329   3.596  0.00  0.00    +0.017 C 
ATOM      2  C   UNL     1       6.033  -1.220   3.523  0.00  0.00    +0.025 C 
ATOM      3  C   UNL     1       7.371  -1.577   2.841  0.00  0.00    +0.088 C 
ATOM      4  N   UNL     1       7.816  -0.382   2.100  0.00  0.00    -0.298 NA
ATOM      5  C   UNL     1       6.805   0.682   2.272  0.00  0.00    +0.085 C 
ATOM      6  C   UNL     1       9.136   0.064   2.563  0.00  0.00    +0.105 C 
ENDROOT
BRANCH   3   7
ATOM      7  C   UNL     1       7.171  -2.727   1.888  0.00  0.00    -0.012 A 
ATOM      8  C   UNL     1       6.354  -2.585   0.782  0.00  0.00    +0.115 A 
ATOM      9  N   UNL     1       6.173  -3.587  -0.056  0.00  0.00    -0.263 NA
ATOM     10  C   UNL     1       6.757  -4.755   0.124  0.00  0.00    +0.111 A 
ATOM     11  C   UNL     1       7.588  -4.971   1.207  0.00  0.00    +0.020 A 
ATOM     12  C   UNL     1       7.807  -3.940   2.107  0.00  0.00    +0.008 A 
ENDBRANCH   3   7
TORSDOF 1
ENDMDL
MODEL 6
REMARK VINA RESULT:    -3.650      1.196      1.929
REMARK INTER + INTRA:          -4.118
REMARK INTER:                  -3.904
REMARK INTRA:                  -0.214
REMARK UNBOUND:                -0.255
REMARK  Name = Nicotine.pdb
REMARK  2 active torsions:
REMARK  status: ('A' for Active; 'I' for Inactive)
REMARK    1  A    between atoms: C_3  and  C_6
REMARK    2  A    between atoms: N_4  and  C_12
REMARK                            x       y       z     vdW  Elec       q    Type
REMARK                         _______ _______ _______ _____ _____    ______ ____
ROOT
ATOM      1  C   UNL     1       8.100   0.163   3.302  0.00  0.00    +0.017 C 
ATOM      2  C   UNL     1       7.742  -0.214   1.841  0.00  0.00    +0.025 C 
ATOM      3  C   UNL     1       6.481  -1.088   2.007  0.00  0.00    +0.088 C 
ATOM      4  N   UNL     1       6.493  -1.616   3.383  0.00  0.00    -0.298 NA
ATOM      5  C   UNL     1       7.713  -1.130   4.063  0.00  0.00    +0.085 C 
ATOM      6  C   UNL     1       5.285  -1.212   4.113  0.00  0.00    +0.105 C 
ENDROOT
BRANCH   3   7
ATOM      7  C   UNL     1       6.512  -2.226   1.019  0.00  0.00    -0.012 A 
ATOM      8  C   UNL     1       7.719  -2.758   0.604  0.00  0.00    +0.115 A 
ATOM      9  N   UNL     1       7.755  -3.754  -0.260  0.00  0.00    -0.263 NA
ATOM     10  C   UNL     1       6.654  -4.279  -0.759  0.00  0.00    +0.111 A 
ATOM     11  C   UNL     1       5.411  -3.799  -0.390  0.00  0.00    +0.020 A 
ATOM     12  C   UNL     1       5.333  -2.756   0.520  0.00  0.00    +0.008 A 
ENDBRANCH   3   7
TORSDOF 1
ENDMDL
MODEL 7
REMARK VINA RESULT:    -3.603      1.563      4.472
REMARK INTER + INTRA:          -4.068
REMARK INTER:                  -3.853
REMARK INTRA:                  -0.215
REMARK UNBOUND:                -0.255
REMARK  Name = Nicotine.pdb
REMARK  2 active torsions:
REMARK  status: ('A' for Active; 'I' for Inactive)
REMARK    1  A    between atoms: C_3  and  C_6
REMARK    2  A    between atoms: N_4  and  C_12
REMARK                            x       y       z     vdW  Elec       q    Type
REMARK                         _______ _______ _______ _____ _____    ______ ____
ROOT
ATOM      1  C   UNL     1       7.494  -5.372  -0.729  0.00  0.00    +0.017 C 
ATOM      2  C   UNL     1       6.901  -3.939  -0.761  0.00  0.00    +0.025 C 
ATOM      3  C   UNL     1       8.001  -3.093  -0.086  0.00  0.00    +0.088 C 
ATOM      4  N   UNL     1       8.811  -4.007   0.740  0.00  0.00    -0.298 NA
ATOM      5  C   UNL     1       8.247  -5.369   0.625  0.00  0.00    +0.085 C 
ATOM      6  C   UNL     1      10.219  -3.983   0.325  0.00  0.00    +0.105 C 
ENDROOT
BRANCH   3   7
ATOM      7  C   UNL     1       7.373  -2.035   0.784  0.00  0.00    -0.012 A 
ATOM      8  C   UNL     1       6.079  -2.186   1.245  0.00  0.00    +0.115 A 
ATOM      9  N   UNL     1       5.522  -1.265   2.007  0.00  0.00    -0.263 NA
ATOM     10  C   UNL     1       6.169  -0.171   2.358  0.00  0.00    +0.111 A 
ATOM     11  C   UNL     1       7.467   0.049   1.936  0.00  0.00    +0.020 A 
ATOM     12  C   UNL     1       8.088  -0.900   1.138  0.00  0.00    +0.008 A 
ENDBRANCH   3   7
TORSDOF 1
ENDMDL
MODEL 8
REMARK VINA RESULT:    -3.441      1.668      4.512
REMARK INTER + INTRA:          -3.897
REMARK INTER:                  -3.642
REMARK INTRA:                  -0.255
REMARK UNBOUND:                -0.255
REMARK  Name = Nicotine.pdb
REMARK  2 active torsions:
REMARK  status: ('A' for Active; 'I' for Inactive)
REMARK    1  A    between atoms: C_3  and  C_6
REMARK    2  A    between atoms: N_4  and  C_12
REMARK                            x       y       z     vdW  Elec       q    Type
REMARK                         _______ _______ _______ _____ _____    ______ ____
ROOT
ATOM      1  C   UNL     1       8.743  -3.116  -0.695  0.00  0.00    +0.017 C 
ATOM      2  C   UNL     1       8.915  -2.021   0.391  0.00  0.00    +0.025 C 
ATOM      3  C   UNL     1       8.181  -2.622   1.609  0.00  0.00    +0.088 C 
ATOM      4  N   UNL     1       7.228  -3.622   1.094  0.00  0.00    -0.298 NA
ATOM      5  C   UNL     1       7.323  -3.648  -0.381  0.00  0.00    +0.085 C 
ATOM      6  C   UNL     1       7.499  -4.949   1.663  0.00  0.00    +0.105 C 
ENDROOT
BRANCH   3   7
ATOM      7  C   UNL     1       7.439  -1.538   2.347  0.00  0.00    -0.012 A 
ATOM      8  C   UNL     1       6.957  -1.764   3.622  0.00  0.00    +0.115 A 
ATOM      9  N   UNL     1       6.307  -0.820   4.275  0.00  0.00    -0.263 NA
ATOM     10  C   UNL     1       6.091   0.367   3.744  0.00  0.00    +0.111 A 
ATOM     11  C   UNL     1       6.545   0.666   2.472  0.00  0.00    +0.020 A 
ATOM     12  C   UNL     1       7.237  -0.299   1.758  0.00  0.00    +0.008 A 
ENDBRANCH   3   7
TORSDOF 1
ENDMDL
MODEL 9
REMARK VINA RESULT:    -3.409      1.290      2.546
REMARK INTER + INTRA:          -3.863
REMARK INTER:                  -3.647
REMARK INTRA:                  -0.217
REMARK UNBOUND:                -0.255
REMARK  Name = Nicotine.pdb
REMARK  2 active torsions:
REMARK  status: ('A' for Active; 'I' for Inactive)
REMARK    1  A    between atoms: C_3  and  C_6
REMARK    2  A    between atoms: N_4  and  C_12
REMARK                            x       y       z     vdW  Elec       q    Type
REMARK                         _______ _______ _______ _____ _____    ______ ____
ROOT
ATOM      1  C   UNL     1      10.030  -0.868   2.547  0.00  0.00    +0.017 C 
ATOM      2  C   UNL     1       9.808  -1.565   1.179  0.00  0.00    +0.025 C 
ATOM      3  C   UNL     1       8.325  -1.264   0.872  0.00  0.00    +0.088 C 
ATOM      4  N   UNL     1       7.665  -0.968   2.157  0.00  0.00    -0.298 NA
ATOM      5  C   UNL     1       8.663  -1.097   3.240  0.00  0.00    +0.085 C 
ATOM      6  C   UNL     1       7.069   0.374   2.146  0.00  0.00    +0.105 C 
ENDROOT
BRANCH   3   7
ATOM      7  C   UNL     1       7.681  -2.465   0.228  0.00  0.00    -0.012 A 
ATOM      8  C   UNL     1       6.399  -2.842   0.578  0.00  0.00    +0.115 A 
ATOM      9  N   UNL     1       5.828  -3.891   0.019  0.00  0.00    -0.263 NA
ATOM     10  C   UNL     1       6.450  -4.617  -0.888  0.00  0.00    +0.111 A 
ATOM     11  C   UNL     1       7.735  -4.300  -1.289  0.00  0.00    +0.020 A 
ATOM     12  C   UNL     1       8.365  -3.201  -0.727  0.00  0.00    +0.008 A 
ENDBRANCH   3   7
TORSDOF 1
ENDMDL
MODEL 10
REMARK VINA RESULT:    -3.040      1.994      3.178
REMARK INTER + INTRA:          -3.472
REMARK INTER:                  -3.256
REMARK INTRA:                  -0.217
REMARK UNBOUND:                -0.255
REMARK  Name = Nicotine.pdb
REMARK  2 active torsions:
REMARK  status: ('A' for Active; 'I' for Inactive)
REMARK    1  A    between atoms: C_3  and  C_6
REMARK    2  A    between atoms: N_4  and  C_12
REMARK                            x       y       z     vdW  Elec       q    Type
REMARK                         _______ _______ _______ _____ _____    ______ ____
ROOT
ATOM      1  C   UNL     1       5.833  -2.034   1.238  0.00  0.00    +0.017 C 
ATOM      2  C   UNL     1       5.702  -3.233   0.261  0.00  0.00    +0.025 C 
ATOM      3  C   UNL     1       6.791  -4.207   0.759  0.00  0.00    +0.088 C 
ATOM      4  N   UNL     1       7.778  -3.411   1.511  0.00  0.00    -0.298 NA
ATOM      5  C   UNL     1       7.363  -1.993   1.478  0.00  0.00    +0.085 C 
ATOM      6  C   UNL     1       7.900  -3.893   2.893  0.00  0.00    +0.105 C 
ENDROOT
BRANCH   3   7
ATOM      7  C   UNL     1       7.456  -4.875  -0.416  0.00  0.00    -0.012 A 
ATOM      8  C   UNL     1       8.717  -5.425  -0.285  0.00  0.00    +0.115 A 
ATOM      9  N   UNL     1       9.307  -6.012  -1.308  0.00  0.00    -0.263 NA
ATOM     10  C   UNL     1       8.725  -6.097  -2.488  0.00  0.00    +0.111 A 
ATOM     11  C   UNL     1       7.464  -5.570  -2.695  0.00  0.00    +0.020 A 
ATOM     12  C   UNL     1       6.810  -4.950  -1.641  0.00  0.00    +0.008 A 
ENDBRANCH   3   7
TORSDOF 1
ENDMDL
