MODEL 1
REMARK VINA RESULT:    -3.785      0.000      0.000
REMARK INTER + INTRA:          -4.207
REMARK INTER:                  -4.006
REMARK INTRA:                  -0.201
REMARK UNBOUND:                -0.201
REMARK  Name = Nicotine.pdb
REMARK  2 active torsions:
REMARK  status: ('A' for Active; 'I' for Inactive)
REMARK    1  A    between atoms: C_3  and  C_6
REMARK    2  A    between atoms: N_4  and  C_12
REMARK                            x       y       z     vdW  Elec       q    Type
REMARK                         _______ _______ _______ _____ _____    ______ ____
ROOT
ATOM      1  C   UNL     1       3.517   0.383  -0.770  0.00  0.00    +0.017 C 
ATOM      2  C   UNL     1       2.386  -0.432  -0.089  0.00  0.00    +0.025 C 
ATOM      3  C   UNL     1       2.006  -1.467  -1.169  0.00  0.00    +0.088 C 
ATOM      4  N   UNL     1       2.435  -0.921  -2.468  0.00  0.00    -0.298 NA
ATOM      5  C   UNL     1       3.038   0.410  -2.243  0.00  0.00    +0.085 C 
ATOM      6  C   UNL     1       3.384  -1.824  -3.132  0.00  0.00    +0.105 C 
ENDROOT
BRANCH   3   7
ATOM      7  C   UNL     1       0.514  -1.683  -1.169  0.00  0.00    -0.012 A 
ATOM      8  C   UNL     1      -0.019  -2.878  -0.727  0.00  0.00    +0.115 A 
ATOM      9  N   UNL     1      -1.323  -3.075  -0.724  0.00  0.00    -0.263 NA
ATOM     10  C   UNL     1      -2.165  -2.149  -1.139  0.00  0.00    +0.111 A 
ATOM     11  C   UNL     1      -1.705  -0.928  -1.595  0.00  0.00    +0.020 A 
ATOM     12  C   UNL     1      -0.340  -0.683  -1.608  0.00  0.00    +0.008 A 
ENDBRANCH   3   7
TORSDOF 1
ENDMDL
MODEL 2
REMARK VINA RESULT:    -3.709      1.320      2.243
REMARK INTER + INTRA:          -4.127
REMARK INTER:                  -3.871
REMARK INTRA:                  -0.256
REMARK UNBOUND:                -0.201
REMARK  Name = Nicotine.pdb
REMARK  2 active torsions:
REMARK  status: ('A' for Active; 'I' for Inactive)
REMARK    1  A    between atoms: C_3  and  C_6
REMARK    2  A    between atoms: N_4  and  C_12
REMARK                            x       y       z     vdW  Elec       q    Type
REMARK                         _______ _______ _______ _____ _____    ______ ____
ROOT
ATOM      1  C   UNL     1       3.862  -1.107  -1.385  0.00  0.00    +0.017 C 
ATOM      2  C   UNL     1       2.606  -1.701  -2.075  0.00  0.00    +0.025 C 
ATOM      3  C   UNL     1       1.513  -0.657  -1.763  0.00  0.00    +0.088 C 
ATOM      4  N   UNL     1       1.951   0.091  -0.571  0.00  0.00    -0.298 NA
ATOM      5  C   UNL     1       3.247  -0.458  -0.120  0.00  0.00    +0.085 C 
ATOM      6  C   UNL     1       2.059   1.527  -0.860  0.00  0.00    +0.105 C 
ENDROOT
BRANCH   3   7
ATOM      7  C   UNL     1       0.206  -1.352  -1.483  0.00  0.00    -0.012 A 
ATOM      8  C   UNL     1      -0.991  -0.678  -1.636  0.00  0.00    +0.115 A 
ATOM      9  N   UNL     1      -2.140  -1.279  -1.392  0.00  0.00    -0.263 NA
ATOM     10  C   UNL     1      -2.194  -2.535  -0.997  0.00  0.00    +0.111 A 
ATOM     11  C   UNL     1      -1.038  -3.273  -0.823  0.00  0.00    +0.020 A 
ATOM     12  C   UNL     1       0.188  -2.677  -1.074  0.00  0.00    +0.008 A 
ENDBRANCH   3   7
TORSDOF 1
ENDMDL
MODEL 3
REMARK VINA RESULT:    -3.434      2.213      5.440
REMARK INTER + INTRA:          -3.836
REMARK INTER:                  -3.591
REMARK INTRA:                  -0.245
REMARK UNBOUND:                -0.201
REMARK  Name = Nicotine.pdb
REMARK  2 active torsions:
REMARK  status: ('A' for Active; 'I' for Inactive)
REMARK    1  A    between atoms: C_3  and  C_6
REMARK    2  A    between atoms: N_4  and  C_12
REMARK                            x       y       z     vdW  Elec       q    Type
REMARK                         _______ _______ _______ _____ _____    ______ ____
ROOT
ATOM      1  C   UNL     1       1.146  -1.522  -0.981  0.00  0.00    +0.017 C 
ATOM      2  C   UNL     1       2.044  -0.568  -0.151  0.00  0.00    +0.025 C 
ATOM      3  C   UNL     1       2.830   0.200  -1.235  0.00  0.00    +0.088 C 
ATOM      4  N   UNL     1       2.813  -0.626  -2.455  0.00  0.00    -0.298 NA
ATOM      5  C   UNL     1       2.077  -1.876  -2.167  0.00  0.00    +0.085 C 
ATOM      6  C   UNL     1       2.200   0.100  -3.575  0.00  0.00    +0.105 C 
ENDROOT
BRANCH   3   7
ATOM      7  C   UNL     1       4.250   0.418  -0.781  0.00  0.00    -0.012 A 
ATOM      8  C   UNL     1       4.870   1.636  -0.985  0.00  0.00    +0.115 A 
ATOM      9  N   UNL     1       6.113   1.835  -0.591  0.00  0.00    -0.263 NA
ATOM     10  C   UNL     1       6.810   0.890   0.008  0.00  0.00    +0.111 A 
ATOM     11  C   UNL     1       6.256  -0.354   0.247  0.00  0.00    +0.020 A 
ATOM     12  C   UNL     1       4.950  -0.598  -0.149  0.00  0.00    +0.008 A 
ENDBRANCH   3   7
TORSDOF 1
ENDMDL
MODEL 4
REMARK VINA RESULT:    -3.413      1.322      4.447
REMARK INTER + INTRA:          -3.814
REMARK INTER:                  -3.616
REMARK INTRA:                  -0.197
REMARK UNBOUND:                -0.201
REMARK  Name = Nicotine.pdb
REMARK  2 active torsions:
REMARK  status: ('A' for Active; 'I' for Inactive)
REMARK    1  A    between atoms: C_3  and  C_6
REMARK    2  A    between atoms: N_4  and  C_12
REMARK                            x       y       z     vdW  Elec       q    Type
REMARK                         _______ _______ _______ _____ _____    ______ ____
ROOT
ATOM      1  C   UNL     1      -1.368  -1.221  -3.146  0.00  0.00    +0.017 C 
ATOM      2  C   UNL     1       0.177  -1.235  -3.280  0.00  0.00    +0.025 C 
ATOM      3  C   UNL     1       0.618  -2.141  -2.111  0.00  0.00    +0.088 C 
ATOM      4  N   UNL     1      -0.472  -2.136  -1.118  0.00  0.00    -0.298 NA
ATOM      5  C   UNL     1      -1.550  -1.250  -1.608  0.00  0.00    +0.085 C 
ATOM      6  C   UNL     1      -0.974  -3.495  -0.879  0.00  0.00    +0.105 C 
ENDROOT
BRANCH   3   7
ATOM      7  C   UNL     1       1.880  -1.601  -1.491  0.00  0.00    -0.012 A 
ATOM      8  C   UNL     1       3.115  -1.928  -2.020  0.00  0.00    +0.115 A 
ATOM      9  N   UNL     1       4.224  -1.459  -1.483  0.00  0.00    -0.263 NA
ATOM     10  C   UNL     1       4.204  -0.666  -0.430  0.00  0.00    +0.111 A 
ATOM     11  C   UNL     1       3.007  -0.295   0.153  0.00  0.00    +0.020 A 
ATOM     12  C   UNL     1       1.819  -0.765  -0.386  0.00  0.00    +0.008 A 
ENDBRANCH   3   7
TORSDOF 1
ENDMDL
MODEL 5
REMARK VINA RESULT:    -3.328      1.017      1.785
REMARK INTER + INTRA:          -3.724
REMARK INTER:                  -3.508
REMARK INTRA:                  -0.216
REMARK UNBOUND:                -0.201
REMARK  Name = Nicotine.pdb
REMARK  2 active torsions:
REMARK  status: ('A' for Active; 'I' for Inactive)
REMARK    1  A    between atoms: C_3  and  C_6
REMARK    2  A    between atoms: N_4  and  C_12
REMARK                            x       y       z     vdW  Elec       q    Type
REMARK                         _______ _______ _______ _____ _____    ______ ____
ROOT
ATOM      1  C   UNL     1       3.035  -0.189  -3.321  0.00  0.00    +0.017 C 
ATOM      2  C   UNL     1       1.497  -0.145  -3.116  0.00  0.00    +0.025 C 
ATOM      3  C   UNL     1       1.341  -0.420  -1.605  0.00  0.00    +0.088 C 
ATOM      4  N   UNL     1       2.563  -1.113  -1.158  0.00  0.00    -0.298 NA
ATOM      5  C   UNL     1       3.451  -1.300  -2.325  0.00  0.00    +0.085 C 
ATOM      6  C   UNL     1       3.239  -0.357  -0.096  0.00  0.00    +0.105 C 
ENDROOT
BRANCH   3   7
ATOM      7  C   UNL     1       0.137  -1.294  -1.365  0.00  0.00    -0.012 A 
ATOM      8  C   UNL     1       0.292  -2.580  -0.883  0.00  0.00    +0.115 A 
ATOM      9  N   UNL     1      -0.756  -3.352  -0.670  0.00  0.00    -0.263 NA
ATOM     10  C   UNL     1      -1.984  -2.933  -0.906  0.00  0.00    +0.111 A 
ATOM     11  C   UNL     1      -2.217  -1.659  -1.389  0.00  0.00    +0.020 A 
ATOM     12  C   UNL     1      -1.139  -0.817  -1.620  0.00  0.00    +0.008 A 
ENDBRANCH   3   7
TORSDOF 1
ENDMDL
MODEL 6
REMARK VINA RESULT:    -3.261      2.718      3.995
REMARK INTER + INTRA:          -3.653
REMARK INTER:                  -3.434
REMARK INTRA:                  -0.219
REMARK UNBOUND:                -0.201
REMARK  Name = Nicotine.pdb
REMARK  2 active torsions:
REMARK  status: ('A' for Active; 'I' for Inactive)
REMARK    1  A    between atoms: C_3  and  C_6
REMARK    2  A    between atoms: N_4  and  C_12
REMARK                            x       y       z     vdW  Elec       q    Type
REMARK                         _______ _______ _______ _____ _____    ______ ____
ROOT
ATOM      1  C   UNL     1       7.432   0.603  -0.629  0.00  0.00    +0.017 C 
ATOM      2  C   UNL     1       6.028   0.489   0.021  0.00  0.00    +0.025 C 
ATOM      3  C   UNL     1       5.626  -0.971  -0.276  0.00  0.00    +0.088 C 
ATOM      4  N   UNL     1       6.419  -1.416  -1.435  0.00  0.00    -0.298 NA
ATOM      5  C   UNL     1       7.271  -0.294  -1.882  0.00  0.00    +0.085 C 
ATOM      6  C   UNL     1       7.231  -2.592  -1.098  0.00  0.00    +0.105 C 
ENDROOT
BRANCH   3   7
ATOM      7  C   UNL     1       4.156  -1.042  -0.601  0.00  0.00    -0.012 A 
ATOM      8  C   UNL     1       3.710  -1.811  -1.659  0.00  0.00    +0.115 A 
ATOM      9  N   UNL     1       2.426  -1.879  -1.950  0.00  0.00    -0.263 NA
ATOM     10  C   UNL     1       1.521  -1.222  -1.251  0.00  0.00    +0.111 A 
ATOM     11  C   UNL     1       1.892  -0.433  -0.178  0.00  0.00    +0.020 A 
ATOM     12  C   UNL     1       3.233  -0.342   0.161  0.00  0.00    +0.008 A 
ENDBRANCH   3   7
TORSDOF 1
ENDMDL
MODEL 7
REMARK VINA RESULT:    -3.177      1.797      2.582
REMARK INTER + INTRA:          -3.564
REMARK INTER:                  -3.362
REMARK INTRA:                  -0.201
REMARK UNBOUND:                -0.201
REMARK  Name = Nicotine.pdb
REMARK  2 active torsions:
REMARK  status: ('A' for Active; 'I' for Inactive)
REMARK    1  A    between atoms: C_3  and  C_6
REMARK    2  A    between atoms: N_4  and  C_12
REMARK                            x       y       z     vdW  Elec       q    Type
REMARK                         _______ _______ _______ _____ _____    ______ ____
ROOT
ATOM      1  C   UNL     1       4.518   2.133  -1.263  0.00  0.00    +0.017 C 
ATOM      2  C   UNL     1       3.035   1.916  -0.862  0.00  0.00    +0.025 C 
ATOM      3  C   UNL     1       2.997   0.425  -0.467  0.00  0.00    +0.088 C 
ATOM      4  N   UNL     1       4.139  -0.232  -1.128  0.00  0.00    -0.298 NA
ATOM      5  C   UNL     1       4.863   0.778  -1.930  0.00  0.00    +0.085 C 
ATOM      6  C   UNL     1       5.029  -0.859  -0.143  0.00  0.00    +0.105 C 
ENDROOT
BRANCH   3   7
ATOM      7  C   UNL     1       1.706  -0.196  -0.935  0.00  0.00    -0.012 A 
ATOM      8  C   UNL     1       0.763   0.567  -1.597  0.00  0.00    +0.115 A 
ATOM      9  N   UNL     1      -0.369   0.031  -2.010  0.00  0.00    -0.263 NA
ATOM     10  C   UNL     1      -0.647  -1.242  -1.810  0.00  0.00    +0.111 A 
ATOM     11  C   UNL     1       0.248  -2.068  -1.156  0.00  0.00    +0.020 A 
ATOM     12  C   UNL     1       1.452  -1.541  -0.712  0.00  0.00    +0.008 A 
ENDBRANCH   3   7
TORSDOF 1
ENDMDL
MODEL 8
REMARK VINA RESULT:    -3.043      4.966      8.134
REMARK INTER + INTRA:          -3.423
REMARK INTER:                  -3.246
REMARK INTRA:                  -0.176
REMARK UNBOUND:                -0.201
REMARK  Name = Nicotine.pdb
REMARK  2 active torsions:
REMARK  status: ('A' for Active; 'I' for Inactive)
REMARK    1  A    between atoms: C_3  and  C_6
REMARK    2  A    between atoms: N_4  and  C_12
REMARK                            x       y       z     vdW  Elec       q    Type
REMARK                         _______ _______ _______ _____ _____    ______ ____
ROOT
ATOM      1  C   UNL     1       4.419   0.426  -0.931  0.00  0.00    +0.017 C 
ATOM      2  C   UNL     1       5.550   1.461  -1.167  0.00  0.00    +0.025 C 
ATOM      3  C   UNL     1       6.825   0.590  -1.165  0.00  0.00    +0.088 C 
ATOM      4  N   UNL     1       6.505  -0.649  -0.434  0.00  0.00    -0.298 NA
ATOM      5  C   UNL     1       5.106  -0.572   0.035  0.00  0.00    +0.085 C 
ATOM      6  C   UNL     1       6.712  -1.830  -1.283  0.00  0.00    +0.105 C 
ENDROOT
BRANCH   3   7
ATOM      7  C   UNL     1       7.945   1.322  -0.473  0.00  0.00    -0.012 A 
ATOM      8  C   UNL     1       7.833   1.671   0.860  0.00  0.00    +0.115 A 
ATOM      9  N   UNL     1       8.809   2.311   1.474  0.00  0.00    -0.263 NA
ATOM     10  C   UNL     1       9.921   2.643   0.849  0.00  0.00    +0.111 A 
ATOM     11  C   UNL     1      10.104   2.327  -0.485  0.00  0.00    +0.020 A 
ATOM     12  C   UNL     1       9.102   1.650  -1.162  0.00  0.00    +0.008 A 
ENDBRANCH   3   7
TORSDOF 1
ENDMDL
MODEL 9
REMARK VINA RESULT:    -2.994      4.352      6.497
REMARK INTER + INTRA:          -3.370
REMARK INTER:                  -3.147
REMARK INTRA:                  -0.224
REMARK UNBOUND:                -0.201
REMARK  Name = Nicotine.pdb
REMARK  2 active torsions:
REMARK  status: ('A' for Active; 'I' for Inactive)
REMARK    1  A    between atoms: C_3  and  C_6
REMARK    2  A    between atoms: N_4  and  C_12
REMARK                            x       y       z     vdW  Elec       q    Type
REMARK                         _______ _______ _______ _____ _____    ______ ____
ROOT
ATOM      1  C   UNL     1       8.867   2.500  -2.497  0.00  0.00    +0.017 C 
ATOM      2  C   UNL     1       7.328   2.453  -2.302  0.00  0.00    +0.025 C 
ATOM      3  C   UNL     1       7.178   2.149  -0.796  0.00  0.00    +0.088 C 
ATOM      4  N   UNL     1       8.435   1.522  -0.350  0.00  0.00    -0.298 NA
ATOM      5  C   UNL     1       9.341   1.402  -1.512  0.00  0.00    +0.085 C 
ATOM      6  C   UNL     1       9.060   2.301   0.727  0.00  0.00    +0.105 C 
ENDROOT
BRANCH   3   7
ATOM      7  C   UNL     1       6.026   1.204  -0.576  0.00  0.00    -0.012 A 
ATOM      8  C   UNL     1       6.225  -0.004   0.065  0.00  0.00    +0.115 A 
ATOM      9  N   UNL     1       5.221  -0.837   0.262  0.00  0.00    -0.263 NA
ATOM     10  C   UNL     1       3.998  -0.556  -0.141  0.00  0.00    +0.111 A 
ATOM     11  C   UNL     1       3.722   0.634  -0.788  0.00  0.00    +0.020 A 
ATOM     12  C   UNL     1       4.751   1.537  -1.008  0.00  0.00    +0.008 A 
ENDBRANCH   3   7
TORSDOF 1
ENDMDL
MODEL 10
REMARK VINA RESULT:    -2.913      3.585      5.897
REMARK INTER + INTRA:          -3.285
REMARK INTER:                  -3.030
REMARK INTRA:                  -0.255
REMARK UNBOUND:                -0.201
REMARK  Name = Nicotine.pdb
REMARK  2 active torsions:
REMARK  status: ('A' for Active; 'I' for Inactive)
REMARK    1  A    between atoms: C_3  and  C_6
REMARK    2  A    between atoms: N_4  and  C_12
REMARK                            x       y       z     vdW  Elec       q    Type
REMARK                         _______ _______ _______ _____ _____    ______ ____
ROOT
ATOM      1  C   UNL     1       2.392   0.466  -0.605  0.00  0.00    +0.017 C 
ATOM      2  C   UNL     1       3.521  -0.377   0.044  0.00  0.00    +0.025 C 
ATOM      3  C   UNL     1       4.800   0.210  -0.588  0.00  0.00    +0.088 C 
ATOM      4  N   UNL     1       4.404   0.866  -1.847  0.00  0.00    -0.298 NA
ATOM      5  C   UNL     1       2.948   0.688  -2.033  0.00  0.00    +0.085 C 
ATOM      6  C   UNL     1       4.764   2.289  -1.837  0.00  0.00    +0.105 C 
ENDROOT
BRANCH   3   7
ATOM      7  C   UNL     1       5.786  -0.893  -0.871  0.00  0.00    -0.012 A 
ATOM      8  C   UNL     1       7.112  -0.598  -1.126  0.00  0.00    +0.115 A 
ATOM      9  N   UNL     1       7.981  -1.558  -1.374  0.00  0.00    -0.263 NA
ATOM     10  C   UNL     1       7.626  -2.828  -1.389  0.00  0.00    +0.111 A 
ATOM     11  C   UNL     1       6.318  -3.200  -1.142  0.00  0.00    +0.020 A 
ATOM     12  C   UNL     1       5.377  -2.218  -0.872  0.00  0.00    +0.008 A 
ENDBRANCH   3   7
TORSDOF 1
ENDMDL
