MODEL 1
REMARK VINA RESULT:    -2.686      0.000      0.000
REMARK INTER + INTRA:          -3.065
REMARK INTER:                  -2.843
REMARK INTRA:                  -0.222
REMARK UNBOUND:                -0.222
REMARK  Name = Nicotine.pdb
REMARK  2 active torsions:
REMARK  status: ('A' for Active; 'I' for Inactive)
REMARK    1  A    between atoms: C_3  and  C_6
REMARK    2  A    between atoms: N_4  and  C_12
REMARK                            x       y       z     vdW  Elec       q    Type
REMARK                         _______ _______ _______ _____ _____    ______ ____
ROOT
ATOM      1  C   UNL     1       7.083  -5.624  -0.949  0.00  0.00    +0.017 C 
ATOM      2  C   UNL     1       8.283  -4.899  -1.614  0.00  0.00    +0.025 C 
ATOM      3  C   UNL     1       7.647  -4.248  -2.861  0.00  0.00    +0.088 C 
ATOM      4  N   UNL     1       6.416  -4.999  -3.167  0.00  0.00    -0.298 NA
ATOM      5  C   UNL     1       6.278  -6.096  -2.185  0.00  0.00    +0.085 C 
ATOM      6  C   UNL     1       5.241  -4.119  -3.142  0.00  0.00    +0.105 C 
ENDROOT
BRANCH   3   7
ATOM      7  C   UNL     1       8.600  -4.327  -4.024  0.00  0.00    -0.012 A 
ATOM      8  C   UNL     1       8.159  -4.070  -5.308  0.00  0.00    +0.115 A 
ATOM      9  N   UNL     1       8.988  -4.137  -6.332  0.00  0.00    -0.263 NA
ATOM     10  C   UNL     1      10.259  -4.450  -6.176  0.00  0.00    +0.111 A 
ATOM     11  C   UNL     1      10.772  -4.720  -4.921  0.00  0.00    +0.020 A 
ATOM     12  C   UNL     1       9.932  -4.654  -3.820  0.00  0.00    +0.008 A 
ENDBRANCH   3   7
TORSDOF 1
ENDMDL
MODEL 2
REMARK VINA RESULT:    -2.520      1.702      3.090
REMARK INTER + INTRA:          -2.890
REMARK INTER:                  -2.674
REMARK INTRA:                  -0.216
REMARK UNBOUND:                -0.222
REMARK  Name = Nicotine.pdb
REMARK  2 active torsions:
REMARK  status: ('A' for Active; 'I' for Inactive)
REMARK    1  A    between atoms: C_3  and  C_6
REMARK    2  A    between atoms: N_4  and  C_12
REMARK                            x       y       z     vdW  Elec       q    Type
REMARK                         _______ _______ _______ _____ _____    ______ ____
ROOT
ATOM      1  C   UNL     1       3.679  -3.339  -4.183  0.00  0.00    +0.017 C 
ATOM      2  C   UNL     1       4.956  -3.906  -4.858  0.00  0.00    +0.025 C 
ATOM      3  C   UNL     1       5.597  -4.748  -3.735  0.00  0.00    +0.088 C 
ATOM      4  N   UNL     1       5.079  -4.235  -2.454  0.00  0.00    -0.298 NA
ATOM      5  C   UNL     1       4.171  -3.102  -2.733  0.00  0.00    +0.085 C 
ATOM      6  C   UNL     1       4.389  -5.291  -1.703  0.00  0.00    +0.105 C 
ENDROOT
BRANCH   3   7
ATOM      7  C   UNL     1       7.096  -4.604  -3.778  0.00  0.00    -0.012 A 
ATOM      8  C   UNL     1       7.829  -4.562  -2.607  0.00  0.00    +0.115 A 
ATOM      9  N   UNL     1       9.141  -4.436  -2.636  0.00  0.00    -0.263 NA
ATOM     10  C   UNL     1       9.804  -4.344  -3.772  0.00  0.00    +0.111 A 
ATOM     11  C   UNL     1       9.139  -4.379  -4.984  0.00  0.00    +0.020 A 
ATOM     12  C   UNL     1       7.759  -4.516  -4.993  0.00  0.00    +0.008 A 
ENDBRANCH   3   7
TORSDOF 1
ENDMDL
MODEL 3
REMARK VINA RESULT:    -2.435      3.028      6.040
REMARK INTER + INTRA:          -2.799
REMARK INTER:                  -2.580
REMARK INTRA:                  -0.219
REMARK UNBOUND:                -0.222
REMARK  Name = Nicotine.pdb
REMARK  2 active torsions:
REMARK  status: ('A' for Active; 'I' for Inactive)
REMARK    1  A    between atoms: C_3  and  C_6
REMARK    2  A    between atoms: N_4  and  C_12
REMARK                            x       y       z     vdW  Elec       q    Type
REMARK                         _______ _______ _______ _____ _____    ______ ____
ROOT
ATOM      1  C   UNL     1       7.730  -5.307  -1.840  0.00  0.00    +0.017 C 
ATOM      2  C   UNL     1       6.799  -5.479  -0.610  0.00  0.00    +0.025 C 
ATOM      3  C   UNL     1       5.389  -5.445  -1.236  0.00  0.00    +0.088 C 
ATOM      4  N   UNL     1       5.502  -4.751  -2.532  0.00  0.00    -0.298 NA
ATOM      5  C   UNL     1       6.908  -4.335  -2.722  0.00  0.00    +0.085 C 
ATOM      6  C   UNL     1       5.054  -5.614  -3.632  0.00  0.00    +0.105 C 
ENDROOT
BRANCH   3   7
ATOM      7  C   UNL     1       4.445  -4.694  -0.332  0.00  0.00    -0.012 A 
ATOM      8  C   UNL     1       3.571  -3.760  -0.855  0.00  0.00    +0.115 A 
ATOM      9  N   UNL     1       2.742  -3.099  -0.071  0.00  0.00    -0.263 NA
ATOM     10  C   UNL     1       2.712  -3.299   1.232  0.00  0.00    +0.111 A 
ATOM     11  C   UNL     1       3.556  -4.218   1.826  0.00  0.00    +0.020 A 
ATOM     12  C   UNL     1       4.438  -4.936   1.033  0.00  0.00    +0.008 A 
ENDBRANCH   3   7
TORSDOF 1
ENDMDL
MODEL 4
REMARK VINA RESULT:    -2.404      1.673      2.686
REMARK INTER + INTRA:          -2.767
REMARK INTER:                  -2.562
REMARK INTRA:                  -0.205
REMARK UNBOUND:                -0.222
REMARK  Name = Nicotine.pdb
REMARK  2 active torsions:
REMARK  status: ('A' for Active; 'I' for Inactive)
REMARK    1  A    between atoms: C_3  and  C_6
REMARK    2  A    between atoms: N_4  and  C_12
REMARK                            x       y       z     vdW  Elec       q    Type
REMARK                         _______ _______ _______ _____ _____    ______ ____
ROOT
ATOM      1  C   UNL     1       3.986  -6.082  -3.032  0.00  0.00    +0.017 C 
ATOM      2  C   UNL     1       5.310  -5.624  -2.366  0.00  0.00    +0.025 C 
ATOM      3  C   UNL     1       5.771  -4.461  -3.270  0.00  0.00    +0.088 C 
ATOM      4  N   UNL     1       5.121  -4.644  -4.581  0.00  0.00    -0.298 NA
ATOM      5  C   UNL     1       4.304  -5.875  -4.534  0.00  0.00    +0.085 C 
ATOM      6  C   UNL     1       4.298  -3.478  -4.928  0.00  0.00    +0.105 C 
ENDROOT
BRANCH   3   7
ATOM      7  C   UNL     1       7.268  -4.498  -3.429  0.00  0.00    -0.012 A 
ATOM      8  C   UNL     1       8.087  -4.598  -2.320  0.00  0.00    +0.115 A 
ATOM      9  N   UNL     1       9.399  -4.631  -2.451  0.00  0.00    -0.263 NA
ATOM     10  C   UNL     1       9.980  -4.569  -3.633  0.00  0.00    +0.111 A 
ATOM     11  C   UNL     1       9.226  -4.468  -4.787  0.00  0.00    +0.020 A 
ATOM     12  C   UNL     1       7.843  -4.436  -4.690  0.00  0.00    +0.008 A 
ENDBRANCH   3   7
TORSDOF 1
ENDMDL
MODEL 5
REMARK VINA RESULT:    -2.310      1.886      3.489
REMARK INTER + INTRA:          -2.667
REMARK INTER:                  -2.473
REMARK INTRA:                  -0.195
REMARK UNBOUND:                -0.222
REMARK  Name = Nicotine.pdb
REMARK  2 active torsions:
REMARK  status: ('A' for Active; 'I' for Inactive)
REMARK    1  A    between atoms: C_3  and  C_6
REMARK    2  A    between atoms: N_4  and  C_12
REMARK                            x       y       z     vdW  Elec       q    Type
REMARK                         _______ _______ _______ _____ _____    ______ ____
ROOT
ATOM      1  C   UNL     1       2.862  -3.329  -2.784  0.00  0.00    +0.017 C 
ATOM      2  C   UNL     1       4.080  -3.736  -3.654  0.00  0.00    +0.025 C 
ATOM      3  C   UNL     1       4.735  -4.864  -2.829  0.00  0.00    +0.088 C 
ATOM      4  N   UNL     1       4.299  -4.693  -1.432  0.00  0.00    -0.298 NA
ATOM      5  C   UNL     1       3.429  -3.500  -1.352  0.00  0.00    +0.085 C 
ATOM      6  C   UNL     1       3.598  -5.890  -0.948  0.00  0.00    +0.105 C 
ENDROOT
BRANCH   3   7
ATOM      7  C   UNL     1       6.235  -4.759  -2.917  0.00  0.00    -0.012 A 
ATOM      8  C   UNL     1       6.846  -4.452  -4.118  0.00  0.00    +0.115 A 
ATOM      9  N   UNL     1       8.158  -4.358  -4.203  0.00  0.00    -0.263 NA
ATOM     10  C   UNL     1       8.936  -4.550  -3.156  0.00  0.00    +0.111 A 
ATOM     11  C   UNL     1       8.397  -4.860  -1.921  0.00  0.00    +0.020 A 
ATOM     12  C   UNL     1       7.020  -4.962  -1.792  0.00  0.00    +0.008 A 
ENDBRANCH   3   7
TORSDOF 1
ENDMDL
MODEL 6
REMARK VINA RESULT:    -2.305      9.172      9.866
REMARK INTER + INTRA:          -2.661
REMARK INTER:                  -2.442
REMARK INTRA:                  -0.220
REMARK UNBOUND:                -0.222
REMARK  Name = Nicotine.pdb
REMARK  2 active torsions:
REMARK  status: ('A' for Active; 'I' for Inactive)
REMARK    1  A    between atoms: C_3  and  C_6
REMARK    2  A    between atoms: N_4  and  C_12
REMARK                            x       y       z     vdW  Elec       q    Type
REMARK                         _______ _______ _______ _____ _____    ______ ____
ROOT
ATOM      1  C   UNL     1       4.098   3.959   2.764  0.00  0.00    +0.017 C 
ATOM      2  C   UNL     1       5.619   4.222   2.608  0.00  0.00    +0.025 C 
ATOM      3  C   UNL     1       5.752   4.621   1.123  0.00  0.00    +0.088 C 
ATOM      4  N   UNL     1       4.579   4.074   0.417  0.00  0.00    -0.298 NA
ATOM      5  C   UNL     1       3.745   3.336   1.390  0.00  0.00    +0.085 C 
ATOM      6  C   UNL     1       3.810   5.142  -0.234  0.00  0.00    +0.105 C 
ENDROOT
BRANCH   3   7
ATOM      7  C   UNL     1       7.016   4.039   0.547  0.00  0.00    -0.012 A 
ATOM      8  C   UNL     1       6.991   3.373  -0.664  0.00  0.00    +0.115 A 
ATOM      9  N   UNL     1       8.094   2.861  -1.175  0.00  0.00    -0.263 NA
ATOM     10  C   UNL     1       9.255   2.962  -0.559  0.00  0.00    +0.111 A 
ATOM     11  C   UNL     1       9.358   3.614   0.655  0.00  0.00    +0.020 A 
ATOM     12  C   UNL     1       8.221   4.170   1.221  0.00  0.00    +0.008 A 
ENDBRANCH   3   7
TORSDOF 1
ENDMDL
MODEL 7
REMARK VINA RESULT:    -2.246      8.079      9.348
REMARK INTER + INTRA:          -2.600
REMARK INTER:                  -2.379
REMARK INTRA:                  -0.221
REMARK UNBOUND:                -0.222
REMARK  Name = Nicotine.pdb
REMARK  2 active torsions:
REMARK  status: ('A' for Active; 'I' for Inactive)
REMARK    1  A    between atoms: C_3  and  C_6
REMARK    2  A    between atoms: N_4  and  C_12
REMARK                            x       y       z     vdW  Elec       q    Type
REMARK                         _______ _______ _______ _____ _____    ______ ____
ROOT
ATOM      1  C   UNL     1       3.182   3.317  -4.991  0.00  0.00    +0.017 C 
ATOM      2  C   UNL     1       3.751   4.048  -3.747  0.00  0.00    +0.025 C 
ATOM      3  C   UNL     1       5.267   4.092  -4.033  0.00  0.00    +0.088 C 
ATOM      4  N   UNL     1       5.561   3.014  -4.994  0.00  0.00    -0.298 NA
ATOM      5  C   UNL     1       4.305   2.294  -5.294  0.00  0.00    +0.085 C 
ATOM      6  C   UNL     1       6.165   3.551  -6.220  0.00  0.00    +0.105 C 
ENDROOT
BRANCH   3   7
ATOM      7  C   UNL     1       6.036   3.866  -2.757  0.00  0.00    -0.012 A 
ATOM      8  C   UNL     1       7.053   2.932  -2.710  0.00  0.00    +0.115 A 
ATOM      9  N   UNL     1       7.732   2.729  -1.597  0.00  0.00    -0.263 NA
ATOM     10  C   UNL     1       7.470   3.402  -0.494  0.00  0.00    +0.111 A 
ATOM     11  C   UNL     1       6.467   4.352  -0.465  0.00  0.00    +0.020 A 
ATOM     12  C   UNL     1       5.736   4.597  -1.618  0.00  0.00    +0.008 A 
ENDBRANCH   3   7
TORSDOF 1
ENDMDL
MODEL 8
REMARK VINA RESULT:    -2.244      8.537      9.008
REMARK INTER + INTRA:          -2.597
REMARK INTER:                  -2.412
REMARK INTRA:                  -0.185
REMARK UNBOUND:                -0.222
REMARK  Name = Nicotine.pdb
REMARK  2 active torsions:
REMARK  status: ('A' for Active; 'I' for Inactive)
REMARK    1  A    between atoms: C_3  and  C_6
REMARK    2  A    between atoms: N_4  and  C_12
REMARK                            x       y       z     vdW  Elec       q    Type
REMARK                         _______ _______ _______ _____ _____    ______ ____
ROOT
ATOM      1  C   UNL     1       6.853   4.607   1.063  0.00  0.00    +0.017 C 
ATOM      2  C   UNL     1       6.852   3.741  -0.224  0.00  0.00    +0.025 C 
ATOM      3  C   UNL     1       8.310   3.240  -0.306  0.00  0.00    +0.088 C 
ATOM      4  N   UNL     1       9.138   4.176   0.476  0.00  0.00    -0.298 NA
ATOM      5  C   UNL     1       8.265   5.241   1.013  0.00  0.00    +0.085 C 
ATOM      6  C   UNL     1       9.844   3.478   1.558  0.00  0.00    +0.105 C 
ENDROOT
BRANCH   3   7
ATOM      7  C   UNL     1       8.767   3.226  -1.742  0.00  0.00    -0.012 A 
ATOM      8  C   UNL     1       7.851   3.077  -2.766  0.00  0.00    +0.115 A 
ATOM      9  N   UNL     1       8.243   3.064  -4.025  0.00  0.00    -0.263 NA
ATOM     10  C   UNL     1       9.512   3.189  -4.357  0.00  0.00    +0.111 A 
ATOM     11  C   UNL     1      10.486   3.341  -3.387  0.00  0.00    +0.020 A 
ATOM     12  C   UNL     1      10.111   3.366  -2.053  0.00  0.00    +0.008 A 
ENDBRANCH   3   7
TORSDOF 1
ENDMDL
MODEL 9
REMARK VINA RESULT:    -2.148      8.605      9.466
REMARK INTER + INTRA:          -2.496
REMARK INTER:                  -2.260
REMARK INTRA:                  -0.237
REMARK UNBOUND:                -0.222
REMARK  Name = Nicotine.pdb
REMARK  2 active torsions:
REMARK  status: ('A' for Active; 'I' for Inactive)
REMARK    1  A    between atoms: C_3  and  C_6
REMARK    2  A    between atoms: N_4  and  C_12
REMARK                            x       y       z     vdW  Elec       q    Type
REMARK                         _______ _______ _______ _____ _____    ______ ____
ROOT
ATOM      1  C   UNL     1       8.497   4.612   1.636  0.00  0.00    +0.017 C 
ATOM      2  C   UNL     1       7.250   4.180   0.819  0.00  0.00    +0.025 C 
ATOM      3  C   UNL     1       7.854   3.299  -0.295  0.00  0.00    +0.088 C 
ATOM      4  N   UNL     1       9.270   3.680  -0.435  0.00  0.00    -0.298 NA
ATOM      5  C   UNL     1       9.561   4.770   0.521  0.00  0.00    +0.085 C 
ATOM      6  C   UNL     1      10.152   2.528  -0.206  0.00  0.00    +0.105 C 
ENDROOT
BRANCH   3   7
ATOM      7  C   UNL     1       7.125   3.543  -1.592  0.00  0.00    -0.012 A 
ATOM      8  C   UNL     1       7.526   2.903  -2.750  0.00  0.00    +0.115 A 
ATOM      9  N   UNL     1       6.894   3.111  -3.888  0.00  0.00    -0.263 NA
ATOM     10  C   UNL     1       5.864   3.930  -3.970  0.00  0.00    +0.111 A 
ATOM     11  C   UNL     1       5.406   4.604  -2.854  0.00  0.00    +0.020 A 
ATOM     12  C   UNL     1       6.042   4.407  -1.638  0.00  0.00    +0.008 A 
ENDBRANCH   3   7
TORSDOF 1
ENDMDL
MODEL 10
REMARK VINA RESULT:    -2.145      8.215      8.976
REMARK INTER + INTRA:          -2.492
REMARK INTER:                  -2.277
REMARK INTRA:                  -0.216
REMARK UNBOUND:                -0.222
REMARK  Name = Nicotine.pdb
REMARK  2 active torsions:
REMARK  status: ('A' for Active; 'I' for Inactive)
REMARK    1  A    between atoms: C_3  and  C_6
REMARK    2  A    between atoms: N_4  and  C_12
REMARK                            x       y       z     vdW  Elec       q    Type
REMARK                         _______ _______ _______ _____ _____    ______ ____
ROOT
ATOM      1  C   UNL     1       5.298   4.499  -3.441  0.00  0.00    +0.017 C 
ATOM      2  C   UNL     1       6.428   4.789  -2.418  0.00  0.00    +0.025 C 
ATOM      3  C   UNL     1       7.704   4.383  -3.186  0.00  0.00    +0.088 C 
ATOM      4  N   UNL     1       7.296   3.443  -4.245  0.00  0.00    -0.298 NA
ATOM      5  C   UNL     1       5.836   3.231  -4.150  0.00  0.00    +0.085 C 
ATOM      6  C   UNL     1       7.670   3.950  -5.572  0.00  0.00    +0.105 C 
ENDROOT
BRANCH   3   7
ATOM      7  C   UNL     1       8.675   3.712  -2.249  0.00  0.00    -0.012 A 
ATOM      8  C   UNL     1       8.235   3.172  -1.055  0.00  0.00    +0.115 A 
ATOM      9  N   UNL     1       9.078   2.583  -0.230  0.00  0.00    -0.263 NA
ATOM     10  C   UNL     1      10.363   2.486  -0.505  0.00  0.00    +0.111 A 
ATOM     11  C   UNL     1      10.876   3.003  -1.680  0.00  0.00    +0.020 A 
ATOM     12  C   UNL     1      10.019   3.624  -2.575  0.00  0.00    +0.008 A 
ENDBRANCH   3   7
TORSDOF 1
ENDMDL
