MODEL 1
REMARK VINA RESULT:    11.118      0.000      0.000
REMARK INTER + INTRA:          11.513
REMARK INTER:                  11.768
REMARK INTRA:                  -0.255
REMARK UNBOUND:                -0.255
REMARK  Name = Nicotine.pdb
REMARK  2 active torsions:
REMARK  status: ('A' for Active; 'I' for Inactive)
REMARK    1  A    between atoms: C_3  and  C_6
REMARK    2  A    between atoms: N_4  and  C_12
REMARK                            x       y       z     vdW  Elec       q    Type
REMARK                         _______ _______ _______ _____ _____    ______ ____
ROOT
ATOM      1  C   UNL     1      -4.141  -6.021   0.112  0.00  0.00    +0.017 C 
ATOM      2  C   UNL     1      -5.164  -4.874  -0.107  0.00  0.00    +0.025 C 
ATOM      3  C   UNL     1      -4.488  -4.008  -1.190  0.00  0.00    +0.088 C 
ATOM      4  N   UNL     1      -3.043  -4.295  -1.141  0.00  0.00    -0.298 NA
ATOM      5  C   UNL     1      -2.794  -5.276  -0.063  0.00  0.00    +0.085 C 
ATOM      6  C   UNL     1      -2.560  -4.798  -2.433  0.00  0.00    +0.105 C 
ENDROOT
BRANCH   3   7
ATOM      7  C   UNL     1      -4.732  -2.549  -0.906  0.00  0.00    -0.012 A 
ATOM      8  C   UNL     1      -4.786  -1.634  -1.941  0.00  0.00    +0.115 A 
ATOM      9  N   UNL     1      -5.000  -0.355  -1.701  0.00  0.00    -0.263 NA
ATOM     10  C   UNL     1      -5.170   0.101  -0.476  0.00  0.00    +0.111 A 
ATOM     11  C   UNL     1      -5.129  -0.754   0.609  0.00  0.00    +0.020 A 
ATOM     12  C   UNL     1      -4.912  -2.106   0.396  0.00  0.00    +0.008 A 
ENDBRANCH   3   7
TORSDOF 1
ENDMDL
MODEL 2
REMARK VINA RESULT:    11.560      1.317      4.473
REMARK INTER + INTRA:          11.981
REMARK INTER:                  12.195
REMARK INTRA:                  -0.214
REMARK UNBOUND:                -0.255
REMARK  Name = Nicotine.pdb
REMARK  2 active torsions:
REMARK  status: ('A' for Active; 'I' for Inactive)
REMARK    1  A    between atoms: C_3  and  C_6
REMARK    2  A    between atoms: N_4  and  C_12
REMARK                            x       y       z     vdW  Elec       q    Type
REMARK                         _______ _______ _______ _____ _____    ______ ____
ROOT
ATOM      1  C   UNL     1      -5.164  -0.496  -1.200  0.00  0.00    +0.017 C 
ATOM      2  C   UNL     1      -5.170  -1.938  -1.772  0.00  0.00    +0.025 C 
ATOM      3  C   UNL     1      -4.970  -2.811  -0.515  0.00  0.00    +0.088 C 
ATOM      4  N   UNL     1      -4.340  -1.961   0.511  0.00  0.00    -0.298 NA
ATOM      5  C   UNL     1      -4.120  -0.616  -0.061  0.00  0.00    +0.085 C 
ATOM      6  C   UNL     1      -5.171  -1.891   1.720  0.00  0.00    +0.105 C 
ENDROOT
BRANCH   3   7
ATOM      7  C   UNL     1      -4.072  -3.977  -0.839  0.00  0.00    -0.012 A 
ATOM      8  C   UNL     1      -3.351  -3.998  -2.018  0.00  0.00    +0.115 A 
ATOM      9  N   UNL     1      -2.563  -5.015  -2.309  0.00  0.00    -0.263 NA
ATOM     10  C   UNL     1      -2.431  -6.044  -1.496  0.00  0.00    +0.111 A 
ATOM     11  C   UNL     1      -3.120  -6.093  -0.298  0.00  0.00    +0.020 A 
ATOM     12  C   UNL     1      -3.954  -5.040   0.044  0.00  0.00    +0.008 A 
ENDBRANCH   3   7
TORSDOF 1
ENDMDL
MODEL 3
REMARK VINA RESULT:    11.705     13.674     15.473
REMARK INTER + INTRA:          12.134
REMARK INTER:                  12.357
REMARK INTRA:                  -0.223
REMARK UNBOUND:                -0.255
REMARK  Name = Nicotine.pdb
REMARK  2 active torsions:
REMARK  status: ('A' for Active; 'I' for Inactive)
REMARK    1  A    between atoms: C_3  and  C_6
REMARK    2  A    between atoms: N_4  and  C_12
REMARK                            x       y       z     vdW  Elec       q    Type
REMARK                         _______ _______ _______ _____ _____    ______ ____
ROOT
ATOM      1  C   UNL     1       7.609  -0.737   3.926  0.00  0.00    +0.017 C 
ATOM      2  C   UNL     1       7.435  -2.073   4.695  0.00  0.00    +0.025 C 
ATOM      3  C   UNL     1       8.683  -2.117   5.602  0.00  0.00    +0.088 C 
ATOM      4  N   UNL     1       9.699  -1.242   4.989  0.00  0.00    -0.298 NA
ATOM      5  C   UNL     1       9.146  -0.683   3.738  0.00  0.00    +0.085 C 
ATOM      6  C   UNL     1      10.099  -0.173   5.913  0.00  0.00    +0.105 C 
ENDROOT
BRANCH   3   7
ATOM      7  C   UNL     1       9.204  -3.528   5.688  0.00  0.00    -0.012 A 
ATOM      8  C   UNL     1      10.489  -3.825   5.276  0.00  0.00    +0.115 A 
ATOM      9  N   UNL     1      10.953  -5.058   5.349  0.00  0.00    -0.263 NA
ATOM     10  C   UNL     1      10.218  -6.049   5.812  0.00  0.00    +0.111 A 
ATOM     11  C   UNL     1       8.923  -5.828   6.244  0.00  0.00    +0.020 A 
ATOM     12  C   UNL     1       8.403  -4.544   6.188  0.00  0.00    +0.008 A 
ENDBRANCH   3   7
TORSDOF 1
ENDMDL
