MODEL 1
REMARK VINA RESULT:    -3.873      0.000      0.000
REMARK INTER + INTRA:          -4.314
REMARK INTER:                  -4.099
REMARK INTRA:                  -0.215
REMARK UNBOUND:                -0.215
REMARK  Name = Nicotine.pdb
REMARK  2 active torsions:
REMARK  status: ('A' for Active; 'I' for Inactive)
REMARK    1  A    between atoms: C_3  and  C_6
REMARK    2  A    between atoms: N_4  and  C_12
REMARK                            x       y       z     vdW  Elec       q    Type
REMARK                         _______ _______ _______ _____ _____    ______ ____
ROOT
ATOM      1  C   UNL     1       7.143  -5.687  -2.928  0.00  0.00    +0.017 C 
ATOM      2  C   UNL     1       7.067  -4.144  -3.072  0.00  0.00    +0.025 C 
ATOM      3  C   UNL     1       6.757  -3.951  -4.572  0.00  0.00    +0.088 C 
ATOM      4  N   UNL     1       7.197  -5.172  -5.270  0.00  0.00    -0.298 NA
ATOM      5  C   UNL     1       7.785  -6.096  -4.277  0.00  0.00    +0.085 C 
ATOM      6  C   UNL     1       6.078  -5.805  -5.981  0.00  0.00    +0.105 C 
ENDROOT
BRANCH   3   7
ATOM      7  C   UNL     1       7.509  -2.757  -5.102  0.00  0.00    -0.012 A 
ATOM      8  C   UNL     1       8.624  -2.282  -4.437  0.00  0.00    +0.115 A 
ATOM      9  N   UNL     1       9.287  -1.238  -4.894  0.00  0.00    -0.263 NA
ATOM     10  C   UNL     1       8.919  -0.610  -5.992  0.00  0.00    +0.111 A 
ATOM     11  C   UNL     1       7.815  -1.028  -6.711  0.00  0.00    +0.020 A 
ATOM     12  C   UNL     1       7.095  -2.125  -6.264  0.00  0.00    +0.008 A 
ENDBRANCH   3   7
TORSDOF 1
ENDMDL
MODEL 2
REMARK VINA RESULT:    -3.502      1.703      2.697
REMARK INTER + INTRA:          -3.922
REMARK INTER:                  -3.706
REMARK INTRA:                  -0.216
REMARK UNBOUND:                -0.215
REMARK  Name = Nicotine.pdb
REMARK  2 active torsions:
REMARK  status: ('A' for Active; 'I' for Inactive)
REMARK    1  A    between atoms: C_3  and  C_6
REMARK    2  A    between atoms: N_4  and  C_12
REMARK                            x       y       z     vdW  Elec       q    Type
REMARK                         _______ _______ _______ _____ _____    ______ ____
ROOT
ATOM      1  C   UNL     1       5.880  -4.005  -5.880  0.00  0.00    +0.017 C 
ATOM      2  C   UNL     1       6.125  -2.699  -6.680  0.00  0.00    +0.025 C 
ATOM      3  C   UNL     1       7.647  -2.485  -6.538  0.00  0.00    +0.088 C 
ATOM      4  N   UNL     1       8.081  -3.222  -5.338  0.00  0.00    -0.298 NA
ATOM      5  C   UNL     1       6.897  -3.857  -4.721  0.00  0.00    +0.085 C 
ATOM      6  C   UNL     1       9.101  -4.223  -5.675  0.00  0.00    +0.105 C 
ENDROOT
BRANCH   3   7
ATOM      7  C   UNL     1       7.945  -1.017  -6.376  0.00  0.00    -0.012 A 
ATOM      8  C   UNL     1       9.109  -0.605  -5.756  0.00  0.00    +0.115 A 
ATOM      9  N   UNL     1       9.378   0.678  -5.610  0.00  0.00    -0.263 NA
ATOM     10  C   UNL     1       8.556   1.612  -6.046  0.00  0.00    +0.111 A 
ATOM     11  C   UNL     1       7.373   1.276  -6.677  0.00  0.00    +0.020 A 
ATOM     12  C   UNL     1       7.059  -0.063  -6.853  0.00  0.00    +0.008 A 
ENDBRANCH   3   7
TORSDOF 1
ENDMDL
MODEL 3
REMARK VINA RESULT:    -3.351      3.048      5.107
REMARK INTER + INTRA:          -3.762
REMARK INTER:                  -3.569
REMARK INTRA:                  -0.194
REMARK UNBOUND:                -0.215
REMARK  Name = Nicotine.pdb
REMARK  2 active torsions:
REMARK  status: ('A' for Active; 'I' for Inactive)
REMARK    1  A    between atoms: C_3  and  C_6
REMARK    2  A    between atoms: N_4  and  C_12
REMARK                            x       y       z     vdW  Elec       q    Type
REMARK                         _______ _______ _______ _____ _____    ______ ____
ROOT
ATOM      1  C   UNL     1       7.446  -2.248  -6.123  0.00  0.00    +0.017 C 
ATOM      2  C   UNL     1       6.853  -1.070  -6.940  0.00  0.00    +0.025 C 
ATOM      3  C   UNL     1       8.012  -0.052  -6.973  0.00  0.00    +0.088 C 
ATOM      4  N   UNL     1       8.896  -0.359  -5.833  0.00  0.00    -0.298 NA
ATOM      5  C   UNL     1       8.323  -1.500  -5.088  0.00  0.00    +0.085 C 
ATOM      6  C   UNL     1      10.259  -0.658  -6.290  0.00  0.00    +0.105 C 
ENDROOT
BRANCH   3   7
ATOM      7  C   UNL     1       7.469   1.347  -6.839  0.00  0.00    -0.012 A 
ATOM      8  C   UNL     1       6.106   1.574  -6.872  0.00  0.00    +0.115 A 
ATOM      9  N   UNL     1       5.623   2.796  -6.756  0.00  0.00    -0.263 NA
ATOM     10  C   UNL     1       6.411   3.842  -6.606  0.00  0.00    +0.111 A 
ATOM     11  C   UNL     1       7.785   3.693  -6.563  0.00  0.00    +0.020 A 
ATOM     12  C   UNL     1       8.329   2.423  -6.677  0.00  0.00    +0.008 A 
ENDBRANCH   3   7
TORSDOF 1
ENDMDL
MODEL 4
REMARK VINA RESULT:    -3.341      1.235      1.617
REMARK INTER + INTRA:          -3.752
REMARK INTER:                  -3.557
REMARK INTRA:                  -0.195
REMARK UNBOUND:                -0.215
REMARK  Name = Nicotine.pdb
REMARK  2 active torsions:
REMARK  status: ('A' for Active; 'I' for Inactive)
REMARK    1  A    between atoms: C_3  and  C_6
REMARK    2  A    between atoms: N_4  and  C_12
REMARK                            x       y       z     vdW  Elec       q    Type
REMARK                         _______ _______ _______ _____ _____    ______ ____
ROOT
ATOM      1  C   UNL     1       6.888  -5.348  -2.761  0.00  0.00    +0.017 C 
ATOM      2  C   UNL     1       7.415  -3.906  -2.980  0.00  0.00    +0.025 C 
ATOM      3  C   UNL     1       7.374  -3.751  -4.515  0.00  0.00    +0.088 C 
ATOM      4  N   UNL     1       7.397  -5.107  -5.092  0.00  0.00    -0.298 NA
ATOM      5  C   UNL     1       7.477  -6.087  -3.989  0.00  0.00    +0.085 C 
ATOM      6  C   UNL     1       6.211  -5.346  -5.925  0.00  0.00    +0.105 C 
ENDROOT
BRANCH   3   7
ATOM      7  C   UNL     1       8.575  -2.971  -4.984  0.00  0.00    -0.012 A 
ATOM      8  C   UNL     1       8.525  -1.593  -5.066  0.00  0.00    +0.115 A 
ATOM      9  N   UNL     1       9.572  -0.903  -5.476  0.00  0.00    -0.263 NA
ATOM     10  C   UNL     1      10.699  -1.493  -5.822  0.00  0.00    +0.111 A 
ATOM     11  C   UNL     1      10.823  -2.869  -5.765  0.00  0.00    +0.020 A 
ATOM     12  C   UNL     1       9.745  -3.627  -5.334  0.00  0.00    +0.008 A 
ENDBRANCH   3   7
TORSDOF 1
ENDMDL
MODEL 5
REMARK VINA RESULT:    -3.283      1.530      4.460
REMARK INTER + INTRA:          -3.690
REMARK INTER:                  -3.468
REMARK INTRA:                  -0.222
REMARK UNBOUND:                -0.215
REMARK  Name = Nicotine.pdb
REMARK  2 active torsions:
REMARK  status: ('A' for Active; 'I' for Inactive)
REMARK    1  A    between atoms: C_3  and  C_6
REMARK    2  A    between atoms: N_4  and  C_12
REMARK                            x       y       z     vdW  Elec       q    Type
REMARK                         _______ _______ _______ _____ _____    ______ ____
ROOT
ATOM      1  C   UNL     1       8.252  -0.433  -6.232  0.00  0.00    +0.017 C 
ATOM      2  C   UNL     1       8.223  -1.165  -4.865  0.00  0.00    +0.025 C 
ATOM      3  C   UNL     1       9.042  -2.444  -5.138  0.00  0.00    +0.088 C 
ATOM      4  N   UNL     1       9.013  -2.678  -6.593  0.00  0.00    -0.298 NA
ATOM      5  C   UNL     1       8.195  -1.621  -7.225  0.00  0.00    +0.085 C 
ATOM      6  C   UNL     1      10.371  -2.698  -7.151  0.00  0.00    +0.105 C 
ENDROOT
BRANCH   3   7
ATOM      7  C   UNL     1       8.423  -3.613  -4.417  0.00  0.00    -0.012 A 
ATOM      8  C   UNL     1       8.793  -4.906  -4.735  0.00  0.00    +0.115 A 
ATOM      9  N   UNL     1       8.256  -5.935  -4.109  0.00  0.00    -0.263 NA
ATOM     10  C   UNL     1       7.354  -5.775  -3.161  0.00  0.00    +0.111 A 
ATOM     11  C   UNL     1       6.935  -4.512  -2.788  0.00  0.00    +0.020 A 
ATOM     12  C   UNL     1       7.481  -3.406  -3.421  0.00  0.00    +0.008 A 
ENDBRANCH   3   7
TORSDOF 1
ENDMDL
MODEL 6
REMARK VINA RESULT:    -3.236      1.730      5.112
REMARK INTER + INTRA:          -3.641
REMARK INTER:                  -3.453
REMARK INTRA:                  -0.188
REMARK UNBOUND:                -0.215
REMARK  Name = Nicotine.pdb
REMARK  2 active torsions:
REMARK  status: ('A' for Active; 'I' for Inactive)
REMARK    1  A    between atoms: C_3  and  C_6
REMARK    2  A    between atoms: N_4  and  C_12
REMARK                            x       y       z     vdW  Elec       q    Type
REMARK                         _______ _______ _______ _____ _____    ______ ____
ROOT
ATOM      1  C   UNL     1       9.989   0.917  -7.036  0.00  0.00    +0.017 C 
ATOM      2  C   UNL     1       9.477  -0.536  -7.216  0.00  0.00    +0.025 C 
ATOM      3  C   UNL     1       7.984  -0.428  -6.839  0.00  0.00    +0.088 C 
ATOM      4  N   UNL     1       7.834   0.771  -5.994  0.00  0.00    -0.298 NA
ATOM      5  C   UNL     1       9.164   1.390  -5.813  0.00  0.00    +0.085 C 
ATOM      6  C   UNL     1       6.887   1.721  -6.592  0.00  0.00    +0.105 C 
ENDROOT
BRANCH   3   7
ATOM      7  C   UNL     1       7.559  -1.653  -6.072  0.00  0.00    -0.012 A 
ATOM      8  C   UNL     1       8.243  -2.039  -4.935  0.00  0.00    +0.115 A 
ATOM      9  N   UNL     1       7.877  -3.110  -4.258  0.00  0.00    -0.263 NA
ATOM     10  C   UNL     1       6.854  -3.852  -4.635  0.00  0.00    +0.111 A 
ATOM     11  C   UNL     1       6.122  -3.528  -5.762  0.00  0.00    +0.020 A 
ATOM     12  C   UNL     1       6.474  -2.406  -6.496  0.00  0.00    +0.008 A 
ENDBRANCH   3   7
TORSDOF 1
ENDMDL
MODEL 7
REMARK VINA RESULT:    -3.093      1.340      2.141
REMARK INTER + INTRA:          -3.489
REMARK INTER:                  -3.295
REMARK INTRA:                  -0.194
REMARK UNBOUND:                -0.215
REMARK  Name = Nicotine.pdb
REMARK  2 active torsions:
REMARK  status: ('A' for Active; 'I' for Inactive)
REMARK    1  A    between atoms: C_3  and  C_6
REMARK    2  A    between atoms: N_4  and  C_12
REMARK                            x       y       z     vdW  Elec       q    Type
REMARK                         _______ _______ _______ _____ _____    ______ ____
ROOT
ATOM      1  C   UNL     1       9.266  -5.626  -4.899  0.00  0.00    +0.017 C 
ATOM      2  C   UNL     1       9.497  -4.165  -5.368  0.00  0.00    +0.025 C 
ATOM      3  C   UNL     1       8.403  -3.381  -4.611  0.00  0.00    +0.088 C 
ATOM      4  N   UNL     1       7.346  -4.343  -4.252  0.00  0.00    -0.298 NA
ATOM      5  C   UNL     1       7.723  -5.674  -4.772  0.00  0.00    +0.085 C 
ATOM      6  C   UNL     1       7.142  -4.383  -2.798  0.00  0.00    +0.105 C 
ENDROOT
BRANCH   3   7
ATOM      7  C   UNL     1       7.838  -2.303  -5.499  0.00  0.00    -0.012 A 
ATOM      8  C   UNL     1       8.375  -1.030  -5.483  0.00  0.00    +0.115 A 
ATOM      9  N   UNL     1       7.887  -0.081  -6.257  0.00  0.00    -0.263 NA
ATOM     10  C   UNL     1       6.874  -0.304  -7.071  0.00  0.00    +0.111 A 
ATOM     11  C   UNL     1       6.285  -1.553  -7.143  0.00  0.00    +0.020 A 
ATOM     12  C   UNL     1       6.776  -2.577  -6.348  0.00  0.00    +0.008 A 
ENDBRANCH   3   7
TORSDOF 1
ENDMDL
MODEL 8
REMARK VINA RESULT:    -2.992      4.890      7.730
REMARK INTER + INTRA:          -3.382
REMARK INTER:                  -3.196
REMARK INTRA:                  -0.186
REMARK UNBOUND:                -0.215
REMARK  Name = Nicotine.pdb
REMARK  2 active torsions:
REMARK  status: ('A' for Active; 'I' for Inactive)
REMARK    1  A    between atoms: C_3  and  C_6
REMARK    2  A    between atoms: N_4  and  C_12
REMARK                            x       y       z     vdW  Elec       q    Type
REMARK                         _______ _______ _______ _____ _____    ______ ____
ROOT
ATOM      1  C   UNL     1       8.895   5.632  -6.674  0.00  0.00    +0.017 C 
ATOM      2  C   UNL     1       7.652   4.770  -6.328  0.00  0.00    +0.025 C 
ATOM      3  C   UNL     1       8.274   3.437  -5.861  0.00  0.00    +0.088 C 
ATOM      4  N   UNL     1       9.628   3.361  -6.437  0.00  0.00    -0.298 NA
ATOM      5  C   UNL     1       9.860   4.570  -7.256  0.00  0.00    +0.085 C 
ATOM      6  C   UNL     1      10.643   3.235  -5.383  0.00  0.00    +0.105 C 
ENDROOT
BRANCH   3   7
ATOM      7  C   UNL     1       7.440   2.282  -6.354  0.00  0.00    -0.012 A 
ATOM      8  C   UNL     1       6.139   2.488  -6.772  0.00  0.00    +0.115 A 
ATOM      9  N   UNL     1       5.402   1.483  -7.204  0.00  0.00    -0.263 NA
ATOM     10  C   UNL     1       5.872   0.252  -7.256  0.00  0.00    +0.111 A 
ATOM     11  C   UNL     1       7.164  -0.030  -6.855  0.00  0.00    +0.020 A 
ATOM     12  C   UNL     1       7.970   1.002  -6.399  0.00  0.00    +0.008 A 
ENDBRANCH   3   7
TORSDOF 1
ENDMDL
MODEL 9
REMARK VINA RESULT:    -2.504      2.165      3.437
REMARK INTER + INTRA:          -2.865
REMARK INTER:                  -2.650
REMARK INTRA:                  -0.216
REMARK UNBOUND:                -0.215
REMARK  Name = Nicotine.pdb
REMARK  2 active torsions:
REMARK  status: ('A' for Active; 'I' for Inactive)
REMARK    1  A    between atoms: C_3  and  C_6
REMARK    2  A    between atoms: N_4  and  C_12
REMARK                            x       y       z     vdW  Elec       q    Type
REMARK                         _______ _______ _______ _____ _____    ______ ____
ROOT
ATOM      1  C   UNL     1       5.714  -2.055  -7.256  0.00  0.00    +0.017 C 
ATOM      2  C   UNL     1       7.265  -2.006  -7.233  0.00  0.00    +0.025 C 
ATOM      3  C   UNL     1       7.653  -3.461  -6.892  0.00  0.00    +0.088 C 
ATOM      4  N   UNL     1       6.490  -4.079  -6.229  0.00  0.00    -0.298 NA
ATOM      5  C   UNL     1       5.416  -3.069  -6.123  0.00  0.00    +0.085 C 
ATOM      6  C   UNL     1       6.030  -5.262  -6.967  0.00  0.00    +0.105 C 
ENDROOT
BRANCH   3   7
ATOM      7  C   UNL     1       8.839  -3.471  -5.963  0.00  0.00    -0.012 A 
ATOM      8  C   UNL     1       9.027  -4.518  -5.081  0.00  0.00    +0.115 A 
ATOM      9  N   UNL     1      10.063  -4.534  -4.265  0.00  0.00    -0.263 NA
ATOM     10  C   UNL     1      10.954  -3.562  -4.256  0.00  0.00    +0.111 A 
ATOM     11  C   UNL     1      10.832  -2.482  -5.110  0.00  0.00    +0.020 A 
ATOM     12  C   UNL     1       9.759  -2.433  -5.986  0.00  0.00    +0.008 A 
ENDBRANCH   3   7
TORSDOF 1
ENDMDL
MODEL 10
REMARK VINA RESULT:    -2.461      1.925      2.919
REMARK INTER + INTRA:          -2.821
REMARK INTER:                  -2.636
REMARK INTRA:                  -0.184
REMARK UNBOUND:                -0.215
REMARK  Name = Nicotine.pdb
REMARK  2 active torsions:
REMARK  status: ('A' for Active; 'I' for Inactive)
REMARK    1  A    between atoms: C_3  and  C_6
REMARK    2  A    between atoms: N_4  and  C_12
REMARK                            x       y       z     vdW  Elec       q    Type
REMARK                         _______ _______ _______ _____ _____    ______ ____
ROOT
ATOM      1  C   UNL     1      10.104  -4.621  -5.425  0.00  0.00    +0.017 C 
ATOM      2  C   UNL     1      10.571  -3.143  -5.487  0.00  0.00    +0.025 C 
ATOM      3  C   UNL     1       9.390  -2.378  -4.853  0.00  0.00    +0.088 C 
ATOM      4  N   UNL     1       8.197  -3.235  -4.977  0.00  0.00    -0.298 NA
ATOM      5  C   UNL     1       8.582  -4.478  -5.679  0.00  0.00    +0.085 C 
ATOM      6  C   UNL     1       7.621  -3.530  -3.659  0.00  0.00    +0.105 C 
ENDROOT
BRANCH   3   7
ATOM      7  C   UNL     1       9.169  -1.079  -5.584  0.00  0.00    -0.012 A 
ATOM      8  C   UNL     1      10.213  -0.464  -6.249  0.00  0.00    +0.115 A 
ATOM      9  N   UNL     1      10.028   0.672  -6.891  0.00  0.00    -0.263 NA
ATOM     10  C   UNL     1       8.850   1.264  -6.927  0.00  0.00    +0.111 A 
ATOM     11  C   UNL     1       7.759   0.708  -6.286  0.00  0.00    +0.020 A 
ATOM     12  C   UNL     1       7.914  -0.489  -5.604  0.00  0.00    +0.008 A 
ENDBRANCH   3   7
TORSDOF 1
ENDMDL
