MODEL 1
REMARK VINA RESULT:    -3.818      0.000      0.000
REMARK INTER + INTRA:          -4.255
REMARK INTER:                  -4.041
REMARK INTRA:                  -0.214
REMARK UNBOUND:                -0.214
REMARK  Name = Nicotine.pdb
REMARK  2 active torsions:
REMARK  status: ('A' for Active; 'I' for Inactive)
REMARK    1  A    between atoms: C_3  and  C_6
REMARK    2  A    between atoms: N_4  and  C_12
REMARK                            x       y       z     vdW  Elec       q    Type
REMARK                         _______ _______ _______ _____ _____    ______ ____
ROOT
ATOM      1  C   UNL     1       5.366  -4.435   1.458  0.00  0.00    +0.017 C 
ATOM      2  C   UNL     1       4.522  -3.196   1.859  0.00  0.00    +0.025 C 
ATOM      3  C   UNL     1       5.452  -2.015   1.508  0.00  0.00    +0.088 C 
ATOM      4  N   UNL     1       6.830  -2.535   1.486  0.00  0.00    -0.298 NA
ATOM      5  C   UNL     1       6.797  -3.972   1.831  0.00  0.00    +0.085 C 
ATOM      6  C   UNL     1       7.453  -2.323   0.174  0.00  0.00    +0.105 C 
ENDROOT
BRANCH   3   7
ATOM      7  C   UNL     1       5.326  -0.936   2.552  0.00  0.00    -0.012 A 
ATOM      8  C   UNL     1       5.008  -1.260   3.858  0.00  0.00    +0.115 A 
ATOM      9  N   UNL     1       4.896  -0.322   4.778  0.00  0.00    -0.263 NA
ATOM     10  C   UNL     1       5.080   0.953   4.494  0.00  0.00    +0.111 A 
ATOM     11  C   UNL     1       5.401   1.353   3.210  0.00  0.00    +0.020 A 
ATOM     12  C   UNL     1       5.533   0.394   2.218  0.00  0.00    +0.008 A 
ENDBRANCH   3   7
TORSDOF 1
ENDMDL
MODEL 2
REMARK VINA RESULT:    -3.753      1.495      4.353
REMARK INTER + INTRA:          -4.186
REMARK INTER:                  -3.939
REMARK INTRA:                  -0.247
REMARK UNBOUND:                -0.214
REMARK  Name = Nicotine.pdb
REMARK  2 active torsions:
REMARK  status: ('A' for Active; 'I' for Inactive)
REMARK    1  A    between atoms: C_3  and  C_6
REMARK    2  A    between atoms: N_4  and  C_12
REMARK                            x       y       z     vdW  Elec       q    Type
REMARK                         _______ _______ _______ _____ _____    ______ ____
ROOT
ATOM      1  C   UNL     1       6.081   1.032   1.053  0.00  0.00    +0.017 C 
ATOM      2  C   UNL     1       5.798  -0.414   0.569  0.00  0.00    +0.025 C 
ATOM      3  C   UNL     1       5.078  -1.050   1.777  0.00  0.00    +0.088 C 
ATOM      4  N   UNL     1       5.449  -0.266   2.969  0.00  0.00    -0.298 NA
ATOM      5  C   UNL     1       6.380   0.805   2.556  0.00  0.00    +0.085 C 
ATOM      6  C   UNL     1       4.259   0.293   3.623  0.00  0.00    +0.105 C 
ENDROOT
BRANCH   3   7
ATOM      7  C   UNL     1       5.523  -2.480   1.944  0.00  0.00    -0.012 A 
ATOM      8  C   UNL     1       4.926  -3.292   2.890  0.00  0.00    +0.115 A 
ATOM      9  N   UNL     1       5.310  -4.545   3.042  0.00  0.00    -0.263 NA
ATOM     10  C   UNL     1       6.270  -5.070   2.307  0.00  0.00    +0.111 A 
ATOM     11  C   UNL     1       6.913  -4.319   1.341  0.00  0.00    +0.020 A 
ATOM     12  C   UNL     1       6.533  -3.000   1.148  0.00  0.00    +0.008 A 
ENDBRANCH   3   7
TORSDOF 1
ENDMDL
MODEL 3
REMARK VINA RESULT:    -3.721      1.451      1.974
REMARK INTER + INTRA:          -4.152
REMARK INTER:                  -3.936
REMARK INTRA:                  -0.217
REMARK UNBOUND:                -0.214
REMARK  Name = Nicotine.pdb
REMARK  2 active torsions:
REMARK  status: ('A' for Active; 'I' for Inactive)
REMARK    1  A    between atoms: C_3  and  C_6
REMARK    2  A    between atoms: N_4  and  C_12
REMARK                            x       y       z     vdW  Elec       q    Type
REMARK                         _______ _______ _______ _____ _____    ______ ____
ROOT
ATOM      1  C   UNL     1       6.429  -4.595   1.271  0.00  0.00    +0.017 C 
ATOM      2  C   UNL     1       6.383  -3.047   1.360  0.00  0.00    +0.025 C 
ATOM      3  C   UNL     1       6.735  -2.774   2.838  0.00  0.00    +0.088 C 
ATOM      4  N   UNL     1       6.426  -4.001   3.594  0.00  0.00    -0.298 NA
ATOM      5  C   UNL     1       5.878  -5.006   2.659  0.00  0.00    +0.085 C 
ATOM      6  C   UNL     1       7.621  -4.513   4.278  0.00  0.00    +0.105 C 
ENDROOT
BRANCH   3   7
ATOM      7  C   UNL     1       5.908  -1.627   3.358  0.00  0.00    -0.012 A 
ATOM      8  C   UNL     1       5.717  -1.464   4.717  0.00  0.00    +0.115 A 
ATOM      9  N   UNL     1       4.995  -0.462   5.181  0.00  0.00    -0.263 NA
ATOM     10  C   UNL     1       4.430   0.416   4.376  0.00  0.00    +0.111 A 
ATOM     11  C   UNL     1       4.578   0.317   3.005  0.00  0.00    +0.020 A 
ATOM     12  C   UNL     1       5.335  -0.719   2.481  0.00  0.00    +0.008 A 
ENDBRANCH   3   7
TORSDOF 1
ENDMDL
MODEL 4
REMARK VINA RESULT:    -3.581      1.778      4.281
REMARK INTER + INTRA:          -4.005
REMARK INTER:                  -3.772
REMARK INTRA:                  -0.233
REMARK UNBOUND:                -0.214
REMARK  Name = Nicotine.pdb
REMARK  2 active torsions:
REMARK  status: ('A' for Active; 'I' for Inactive)
REMARK    1  A    between atoms: C_3  and  C_6
REMARK    2  A    between atoms: N_4  and  C_12
REMARK                            x       y       z     vdW  Elec       q    Type
REMARK                         _______ _______ _______ _____ _____    ______ ____
ROOT
ATOM      1  C   UNL     1       6.509   2.081   3.312  0.00  0.00    +0.017 C 
ATOM      2  C   UNL     1       5.326   1.083   3.199  0.00  0.00    +0.025 C 
ATOM      3  C   UNL     1       5.853  -0.166   3.938  0.00  0.00    +0.088 C 
ATOM      4  N   UNL     1       7.325  -0.088   3.930  0.00  0.00    -0.298 NA
ATOM      5  C   UNL     1       7.729   1.133   3.202  0.00  0.00    +0.085 C 
ATOM      6  C   UNL     1       7.860  -0.087   5.298  0.00  0.00    +0.105 C 
ENDROOT
BRANCH   3   7
ATOM      7  C   UNL     1       5.401  -1.413   3.224  0.00  0.00    -0.012 A 
ATOM      8  C   UNL     1       5.846  -2.655   3.636  0.00  0.00    +0.115 A 
ATOM      9  N   UNL     1       5.454  -3.751   3.017  0.00  0.00    -0.263 NA
ATOM     10  C   UNL     1       4.630  -3.710   1.989  0.00  0.00    +0.111 A 
ATOM     11  C   UNL     1       4.143  -2.504   1.520  0.00  0.00    +0.020 A 
ATOM     12  C   UNL     1       4.528  -1.331   2.149  0.00  0.00    +0.008 A 
ENDBRANCH   3   7
TORSDOF 1
ENDMDL
MODEL 5
REMARK VINA RESULT:    -3.559      1.345      4.484
REMARK INTER + INTRA:          -3.981
REMARK INTER:                  -3.777
REMARK INTRA:                  -0.204
REMARK UNBOUND:                -0.214
REMARK  Name = Nicotine.pdb
REMARK  2 active torsions:
REMARK  status: ('A' for Active; 'I' for Inactive)
REMARK    1  A    between atoms: C_3  and  C_6
REMARK    2  A    between atoms: N_4  and  C_12
REMARK                            x       y       z     vdW  Elec       q    Type
REMARK                         _______ _______ _______ _____ _____    ______ ____
ROOT
ATOM      1  C   UNL     1       6.974   1.401   1.212  0.00  0.00    +0.017 C 
ATOM      2  C   UNL     1       6.319   0.191   0.496  0.00  0.00    +0.025 C 
ATOM      3  C   UNL     1       5.337  -0.350   1.557  0.00  0.00    +0.088 C 
ATOM      4  N   UNL     1       5.814   0.116   2.872  0.00  0.00    -0.298 NA
ATOM      5  C   UNL     1       7.055   0.895   2.674  0.00  0.00    +0.085 C 
ATOM      6  C   UNL     1       4.789   0.920   3.549  0.00  0.00    +0.105 C 
ENDROOT
BRANCH   3   7
ATOM      7  C   UNL     1       5.321  -1.856   1.520  0.00  0.00    -0.012 A 
ATOM      8  C   UNL     1       6.502  -2.566   1.413  0.00  0.00    +0.115 A 
ATOM      9  N   UNL     1       6.496  -3.884   1.381  0.00  0.00    -0.263 NA
ATOM     10  C   UNL     1       5.375  -4.574   1.448  0.00  0.00    +0.111 A 
ATOM     11  C   UNL     1       4.155  -3.933   1.556  0.00  0.00    +0.020 A 
ATOM     12  C   UNL     1       4.122  -2.548   1.599  0.00  0.00    +0.008 A 
ENDBRANCH   3   7
TORSDOF 1
ENDMDL
MODEL 6
REMARK VINA RESULT:    -3.451      1.695      4.357
REMARK INTER + INTRA:          -3.867
REMARK INTER:                  -3.653
REMARK INTRA:                  -0.214
REMARK UNBOUND:                -0.214
REMARK  Name = Nicotine.pdb
REMARK  2 active torsions:
REMARK  status: ('A' for Active; 'I' for Inactive)
REMARK    1  A    between atoms: C_3  and  C_6
REMARK    2  A    between atoms: N_4  and  C_12
REMARK                            x       y       z     vdW  Elec       q    Type
REMARK                         _______ _______ _______ _____ _____    ______ ____
ROOT
ATOM      1  C   UNL     1       5.032   0.761   4.651  0.00  0.00    +0.017 C 
ATOM      2  C   UNL     1       5.769  -0.596   4.798  0.00  0.00    +0.025 C 
ATOM      3  C   UNL     1       6.193  -0.920   3.350  0.00  0.00    +0.088 C 
ATOM      4  N   UNL     1       5.301  -0.163   2.454  0.00  0.00    -0.298 NA
ATOM      5  C   UNL     1       4.332   0.589   3.279  0.00  0.00    +0.085 C 
ATOM      6  C   UNL     1       6.067   0.740   1.586  0.00  0.00    +0.105 C 
ENDROOT
BRANCH   3   7
ATOM      7  C   UNL     1       6.050  -2.397   3.091  0.00  0.00    -0.012 A 
ATOM      8  C   UNL     1       6.803  -3.308   3.807  0.00  0.00    +0.115 A 
ATOM      9  N   UNL     1       6.683  -4.603   3.586  0.00  0.00    -0.263 NA
ATOM     10  C   UNL     1       5.849  -5.078   2.683  0.00  0.00    +0.111 A 
ATOM     11  C   UNL     1       5.063  -4.227   1.929  0.00  0.00    +0.020 A 
ATOM     12  C   UNL     1       5.157  -2.860   2.136  0.00  0.00    +0.008 A 
ENDBRANCH   3   7
TORSDOF 1
ENDMDL
MODEL 7
REMARK VINA RESULT:    -3.411      2.132      4.283
REMARK INTER + INTRA:          -3.825
REMARK INTER:                  -3.611
REMARK INTRA:                  -0.214
REMARK UNBOUND:                -0.214
REMARK  Name = Nicotine.pdb
REMARK  2 active torsions:
REMARK  status: ('A' for Active; 'I' for Inactive)
REMARK    1  A    between atoms: C_3  and  C_6
REMARK    2  A    between atoms: N_4  and  C_12
REMARK                            x       y       z     vdW  Elec       q    Type
REMARK                         _______ _______ _______ _____ _____    ______ ____
ROOT
ATOM      1  C   UNL     1       5.056  -0.638   3.768  0.00  0.00    +0.017 C 
ATOM      2  C   UNL     1       5.324   0.275   2.543  0.00  0.00    +0.025 C 
ATOM      3  C   UNL     1       5.113  -0.677   1.347  0.00  0.00    +0.088 C 
ATOM      4  N   UNL     1       5.297  -2.052   1.845  0.00  0.00    -0.298 NA
ATOM      5  C   UNL     1       5.637  -1.990   3.283  0.00  0.00    +0.085 C 
ATOM      6  C   UNL     1       4.091  -2.860   1.623  0.00  0.00    +0.105 C 
ENDROOT
BRANCH   3   7
ATOM      7  C   UNL     1       6.124  -0.380   0.270  0.00  0.00    -0.012 A 
ATOM      8  C   UNL     1       6.113   0.838  -0.382  0.00  0.00    +0.115 A 
ATOM      9  N   UNL     1       6.995   1.106  -1.326  0.00  0.00    -0.263 NA
ATOM     10  C   UNL     1       7.915   0.232  -1.683  0.00  0.00    +0.111 A 
ATOM     11  C   UNL     1       7.988  -1.008  -1.075  0.00  0.00    +0.020 A 
ATOM     12  C   UNL     1       7.080  -1.323  -0.075  0.00  0.00    +0.008 A 
ENDBRANCH   3   7
TORSDOF 1
ENDMDL
MODEL 8
REMARK VINA RESULT:    -3.246      1.497      2.195
REMARK INTER + INTRA:          -3.650
REMARK INTER:                  -3.478
REMARK INTRA:                  -0.172
REMARK UNBOUND:                -0.214
REMARK  Name = Nicotine.pdb
REMARK  2 active torsions:
REMARK  status: ('A' for Active; 'I' for Inactive)
REMARK    1  A    between atoms: C_3  and  C_6
REMARK    2  A    between atoms: N_4  and  C_12
REMARK                            x       y       z     vdW  Elec       q    Type
REMARK                         _______ _______ _______ _____ _____    ______ ____
ROOT
ATOM      1  C   UNL     1       6.546  -4.479   2.638  0.00  0.00    +0.017 C 
ATOM      2  C   UNL     1       6.451  -3.274   3.610  0.00  0.00    +0.025 C 
ATOM      3  C   UNL     1       5.236  -2.489   3.071  0.00  0.00    +0.088 C 
ATOM      4  N   UNL     1       5.060  -2.872   1.658  0.00  0.00    -0.298 NA
ATOM      5  C   UNL     1       6.123  -3.833   1.295  0.00  0.00    +0.085 C 
ATOM      6  C   UNL     1       3.729  -3.446   1.429  0.00  0.00    +0.105 C 
ENDROOT
BRANCH   3   7
ATOM      7  C   UNL     1       5.495  -1.008   3.174  0.00  0.00    -0.012 A 
ATOM      8  C   UNL     1       6.191  -0.349   2.178  0.00  0.00    +0.115 A 
ATOM      9  N   UNL     1       6.422   0.946   2.261  0.00  0.00    -0.263 NA
ATOM     10  C   UNL     1       6.004   1.661   3.287  0.00  0.00    +0.111 A 
ATOM     11  C   UNL     1       5.301   1.071   4.321  0.00  0.00    +0.020 A 
ATOM     12  C   UNL     1       5.034  -0.289   4.266  0.00  0.00    +0.008 A 
ENDBRANCH   3   7
TORSDOF 1
ENDMDL
MODEL 9
REMARK VINA RESULT:    -3.048      2.382      4.581
REMARK INTER + INTRA:          -3.440
REMARK INTER:                  -3.217
REMARK INTRA:                  -0.223
REMARK UNBOUND:                -0.214
REMARK  Name = Nicotine.pdb
REMARK  2 active torsions:
REMARK  status: ('A' for Active; 'I' for Inactive)
REMARK    1  A    between atoms: C_3  and  C_6
REMARK    2  A    between atoms: N_4  and  C_12
REMARK                            x       y       z     vdW  Elec       q    Type
REMARK                         _______ _______ _______ _____ _____    ______ ____
ROOT
ATOM      1  C   UNL     1       5.035  -0.521   4.731  0.00  0.00    +0.017 C 
ATOM      2  C   UNL     1       5.824  -1.133   3.543  0.00  0.00    +0.025 C 
ATOM      3  C   UNL     1       6.611   0.075   2.991  0.00  0.00    +0.088 C 
ATOM      4  N   UNL     1       5.902   1.293   3.423  0.00  0.00    -0.298 NA
ATOM      5  C   UNL     1       4.705   0.893   4.192  0.00  0.00    +0.085 C 
ATOM      6  C   UNL     1       6.779   2.157   4.224  0.00  0.00    +0.105 C 
ENDROOT
BRANCH   3   7
ATOM      7  C   UNL     1       6.656   0.013   1.486  0.00  0.00    -0.012 A 
ATOM      8  C   UNL     1       6.163   1.058   0.728  0.00  0.00    +0.115 A 
ATOM      9  N   UNL     1       6.199   1.012  -0.590  0.00  0.00    -0.263 NA
ATOM     10  C   UNL     1       6.701  -0.024  -1.233  0.00  0.00    +0.111 A 
ATOM     11  C   UNL     1       7.212  -1.106  -0.542  0.00  0.00    +0.020 A 
ATOM     12  C   UNL     1       7.197  -1.091   0.844  0.00  0.00    +0.008 A 
ENDBRANCH   3   7
TORSDOF 1
ENDMDL
MODEL 10
REMARK VINA RESULT:    -3.015      2.288      4.536
REMARK INTER + INTRA:          -3.405
REMARK INTER:                  -3.199
REMARK INTRA:                  -0.206
REMARK UNBOUND:                -0.214
REMARK  Name = Nicotine.pdb
REMARK  2 active torsions:
REMARK  status: ('A' for Active; 'I' for Inactive)
REMARK    1  A    between atoms: C_3  and  C_6
REMARK    2  A    between atoms: N_4  and  C_12
REMARK                            x       y       z     vdW  Elec       q    Type
REMARK                         _______ _______ _______ _____ _____    ______ ____
ROOT
ATOM      1  C   UNL     1       5.316  -1.786   3.287  0.00  0.00    +0.017 C 
ATOM      2  C   UNL     1       6.337  -2.023   2.144  0.00  0.00    +0.025 C 
ATOM      3  C   UNL     1       6.722  -0.590   1.720  0.00  0.00    +0.088 C 
ATOM      4  N   UNL     1       5.628   0.301   2.146  0.00  0.00    -0.298 NA
ATOM      5  C   UNL     1       4.578  -0.517   2.790  0.00  0.00    +0.085 C 
ATOM      6  C   UNL     1       6.120   1.340   3.060  0.00  0.00    +0.105 C 
ENDROOT
BRANCH   3   7
ATOM      7  C   UNL     1       6.884  -0.524   0.223  0.00  0.00    -0.012 A 
ATOM      8  C   UNL     1       7.693  -1.433  -0.433  0.00  0.00    +0.115 A 
ATOM      9  N   UNL     1       7.840  -1.383  -1.742  0.00  0.00    -0.263 NA
ATOM     10  C   UNL     1       7.229  -0.473  -2.474  0.00  0.00    +0.111 A 
ATOM     11  C   UNL     1       6.403   0.469  -1.888  0.00  0.00    +0.020 A 
ATOM     12  C   UNL     1       6.220   0.444  -0.514  0.00  0.00    +0.008 A 
ENDBRANCH   3   7
TORSDOF 1
ENDMDL
