MODEL 1
REMARK VINA RESULT:    -3.837      0.000      0.000
REMARK INTER + INTRA:          -4.304
REMARK INTER:                  -4.061
REMARK INTRA:                  -0.243
REMARK UNBOUND:                -0.243
REMARK  Name = Nicotine.pdb
REMARK  2 active torsions:
REMARK  status: ('A' for Active; 'I' for Inactive)
REMARK    1  A    between atoms: C_3  and  C_6
REMARK    2  A    between atoms: N_4  and  C_12
REMARK                            x       y       z     vdW  Elec       q    Type
REMARK                         _______ _______ _______ _____ _____    ______ ____
ROOT
ATOM      1  C   UNL     1       1.555   6.179   2.152  0.00  0.00    +0.017 C 
ATOM      2  C   UNL     1       1.591   5.505   3.549  0.00  0.00    +0.025 C 
ATOM      3  C   UNL     1       2.955   4.783   3.551  0.00  0.00    +0.088 C 
ATOM      4  N   UNL     1       3.346   4.584   2.144  0.00  0.00    -0.298 NA
ATOM      5  C   UNL     1       2.278   5.125   1.277  0.00  0.00    +0.085 C 
ATOM      6  C   UNL     1       4.634   5.229   1.858  0.00  0.00    +0.105 C 
ENDROOT
BRANCH   3   7
ATOM      7  C   UNL     1       2.829   3.451   4.243  0.00  0.00    -0.012 A 
ATOM      8  C   UNL     1       3.937   2.642   4.409  0.00  0.00    +0.115 A 
ATOM      9  N   UNL     1       3.836   1.475   5.015  0.00  0.00    -0.263 NA
ATOM     10  C   UNL     1       2.684   1.034   5.481  0.00  0.00    +0.111 A 
ATOM     11  C   UNL     1       1.533   1.788   5.352  0.00  0.00    +0.020 A 
ATOM     12  C   UNL     1       1.602   3.024   4.727  0.00  0.00    +0.008 A 
ENDBRANCH   3   7
TORSDOF 1
ENDMDL
MODEL 2
REMARK VINA RESULT:    -3.600      1.263      4.697
REMARK INTER + INTRA:          -4.054
REMARK INTER:                  -3.836
REMARK INTRA:                  -0.217
REMARK UNBOUND:                -0.243
REMARK  Name = Nicotine.pdb
REMARK  2 active torsions:
REMARK  status: ('A' for Active; 'I' for Inactive)
REMARK    1  A    between atoms: C_3  and  C_6
REMARK    2  A    between atoms: N_4  and  C_12
REMARK                            x       y       z     vdW  Elec       q    Type
REMARK                         _______ _______ _______ _____ _____    ______ ____
ROOT
ATOM      1  C   UNL     1       3.329   1.205   5.650  0.00  0.00    +0.017 C 
ATOM      2  C   UNL     1       3.947   2.407   4.889  0.00  0.00    +0.025 C 
ATOM      3  C   UNL     1       2.795   3.434   4.869  0.00  0.00    +0.088 C 
ATOM      4  N   UNL     1       1.539   2.685   5.053  0.00  0.00    -0.298 NA
ATOM      5  C   UNL     1       1.860   1.246   5.160  0.00  0.00    +0.085 C 
ATOM      6  C   UNL     1       0.815   3.154   6.242  0.00  0.00    +0.105 C 
ENDROOT
BRANCH   3   7
ATOM      7  C   UNL     1       2.774   4.155   3.546  0.00  0.00    -0.012 A 
ATOM      8  C   UNL     1       1.575   4.413   2.909  0.00  0.00    +0.115 A 
ATOM      9  N   UNL     1       1.548   5.043   1.751  0.00  0.00    -0.263 NA
ATOM     10  C   UNL     1       2.653   5.449   1.157  0.00  0.00    +0.111 A 
ATOM     11  C   UNL     1       3.890   5.227   1.734  0.00  0.00    +0.020 A 
ATOM     12  C   UNL     1       3.957   4.572   2.954  0.00  0.00    +0.008 A 
ENDBRANCH   3   7
TORSDOF 1
ENDMDL
MODEL 3
REMARK VINA RESULT:    -3.575      9.358     11.018
REMARK INTER + INTRA:          -4.027
REMARK INTER:                  -3.812
REMARK INTRA:                  -0.215
REMARK UNBOUND:                -0.243
REMARK  Name = Nicotine.pdb
REMARK  2 active torsions:
REMARK  status: ('A' for Active; 'I' for Inactive)
REMARK    1  A    between atoms: C_3  and  C_6
REMARK    2  A    between atoms: N_4  and  C_12
REMARK                            x       y       z     vdW  Elec       q    Type
REMARK                         _______ _______ _______ _____ _____    ______ ____
ROOT
ATOM      1  C   UNL     1       6.376  -3.439   0.083  0.00  0.00    +0.017 C 
ATOM      2  C   UNL     1       6.788  -2.388  -0.981  0.00  0.00    +0.025 C 
ATOM      3  C   UNL     1       7.897  -3.111  -1.773  0.00  0.00    +0.088 C 
ATOM      4  N   UNL     1       8.439  -4.168  -0.900  0.00  0.00    -0.298 NA
ATOM      5  C   UNL     1       7.735  -4.113   0.399  0.00  0.00    +0.085 C 
ATOM      6  C   UNL     1       8.296  -5.490  -1.522  0.00  0.00    +0.105 C 
ENDROOT
BRANCH   3   7
ATOM      7  C   UNL     1       8.987  -2.136  -2.136  0.00  0.00    -0.012 A 
ATOM      8  C   UNL     1       9.069  -0.911  -1.502  0.00  0.00    +0.115 A 
ATOM      9  N   UNL     1      10.019  -0.051  -1.814  0.00  0.00    -0.263 NA
ATOM     10  C   UNL     1      10.923  -0.322  -2.735  0.00  0.00    +0.111 A 
ATOM     11  C   UNL     1      10.905  -1.527  -3.411  0.00  0.00    +0.020 A 
ATOM     12  C   UNL     1       9.923  -2.458  -3.107  0.00  0.00    +0.008 A 
ENDBRANCH   3   7
TORSDOF 1
ENDMDL
MODEL 4
REMARK VINA RESULT:    -3.564     10.265     11.188
REMARK INTER + INTRA:          -4.016
REMARK INTER:                  -3.815
REMARK INTRA:                  -0.201
REMARK UNBOUND:                -0.243
REMARK  Name = Nicotine.pdb
REMARK  2 active torsions:
REMARK  status: ('A' for Active; 'I' for Inactive)
REMARK    1  A    between atoms: C_3  and  C_6
REMARK    2  A    between atoms: N_4  and  C_12
REMARK                            x       y       z     vdW  Elec       q    Type
REMARK                         _______ _______ _______ _____ _____    ______ ____
ROOT
ATOM      1  C   UNL     1       8.161  -4.246  -5.299  0.00  0.00    +0.017 C 
ATOM      2  C   UNL     1       7.225  -3.797  -4.146  0.00  0.00    +0.025 C 
ATOM      3  C   UNL     1       8.194  -3.110  -3.160  0.00  0.00    +0.088 C 
ATOM      4  N   UNL     1       9.544  -3.635  -3.436  0.00  0.00    -0.298 NA
ATOM      5  C   UNL     1       9.448  -4.630  -4.526  0.00  0.00    +0.085 C 
ATOM      6  C   UNL     1      10.469  -2.551  -3.792  0.00  0.00    +0.105 C 
ENDROOT
BRANCH   3   7
ATOM      7  C   UNL     1       7.798  -3.432  -1.743  0.00  0.00    -0.012 A 
ATOM      8  C   UNL     1       6.774  -2.736  -1.128  0.00  0.00    +0.115 A 
ATOM      9  N   UNL     1       6.421  -3.011   0.112  0.00  0.00    -0.263 NA
ATOM     10  C   UNL     1       7.022  -3.953   0.811  0.00  0.00    +0.111 A 
ATOM     11  C   UNL     1       8.054  -4.692   0.263  0.00  0.00    +0.020 A 
ATOM     12  C   UNL     1       8.450  -4.434  -1.040  0.00  0.00    +0.008 A 
ENDBRANCH   3   7
TORSDOF 1
ENDMDL
MODEL 5
REMARK VINA RESULT:    -3.561     10.310     11.462
REMARK INTER + INTRA:          -4.012
REMARK INTER:                  -3.813
REMARK INTRA:                  -0.199
REMARK UNBOUND:                -0.243
REMARK  Name = Nicotine.pdb
REMARK  2 active torsions:
REMARK  status: ('A' for Active; 'I' for Inactive)
REMARK    1  A    between atoms: C_3  and  C_6
REMARK    2  A    between atoms: N_4  and  C_12
REMARK                            x       y       z     vdW  Elec       q    Type
REMARK                         _______ _______ _______ _____ _____    ______ ____
ROOT
ATOM      1  C   UNL     1       9.273  -1.996  -0.559  0.00  0.00    +0.017 C 
ATOM      2  C   UNL     1       8.725  -2.123  -2.005  0.00  0.00    +0.025 C 
ATOM      3  C   UNL     1       7.437  -2.953  -1.816  0.00  0.00    +0.088 C 
ATOM      4  N   UNL     1       7.574  -3.690  -0.547  0.00  0.00    -0.298 NA
ATOM      5  C   UNL     1       8.893  -3.373   0.042  0.00  0.00    +0.085 C 
ATOM      6  C   UNL     1       6.487  -3.349   0.380  0.00  0.00    +0.105 C 
ENDROOT
BRANCH   3   7
ATOM      7  C   UNL     1       7.281  -3.923  -2.959  0.00  0.00    -0.012 A 
ATOM      8  C   UNL     1       7.493  -3.510  -4.261  0.00  0.00    +0.115 A 
ATOM      9  N   UNL     1       7.359  -4.352  -5.266  0.00  0.00    -0.263 NA
ATOM     10  C   UNL     1       7.019  -5.611  -5.075  0.00  0.00    +0.111 A 
ATOM     11  C   UNL     1       6.791  -6.097  -3.801  0.00  0.00    +0.020 A 
ATOM     12  C   UNL     1       6.928  -5.242  -2.718  0.00  0.00    +0.008 A 
ENDBRANCH   3   7
TORSDOF 1
ENDMDL
MODEL 6
REMARK VINA RESULT:    -3.528      1.551      4.799
REMARK INTER + INTRA:          -3.977
REMARK INTER:                  -3.730
REMARK INTRA:                  -0.247
REMARK UNBOUND:                -0.243
REMARK  Name = Nicotine.pdb
REMARK  2 active torsions:
REMARK  status: ('A' for Active; 'I' for Inactive)
REMARK    1  A    between atoms: C_3  and  C_6
REMARK    2  A    between atoms: N_4  and  C_12
REMARK                            x       y       z     vdW  Elec       q    Type
REMARK                         _______ _______ _______ _____ _____    ______ ____
ROOT
ATOM      1  C   UNL     1       4.646   4.031   5.050  0.00  0.00    +0.017 C 
ATOM      2  C   UNL     1       4.489   5.075   3.913  0.00  0.00    +0.025 C 
ATOM      3  C   UNL     1       3.082   4.770   3.355  0.00  0.00    +0.088 C 
ATOM      4  N   UNL     1       2.758   3.380   3.722  0.00  0.00    -0.298 NA
ATOM      5  C   UNL     1       3.906   2.807   4.456  0.00  0.00    +0.085 C 
ATOM      6  C   UNL     1       1.533   3.321   4.530  0.00  0.00    +0.105 C 
ENDROOT
BRANCH   3   7
ATOM      7  C   UNL     1       3.082   4.919   1.855  0.00  0.00    -0.012 A 
ATOM      8  C   UNL     1       1.903   4.810   1.142  0.00  0.00    +0.115 A 
ATOM      9  N   UNL     1       1.894   4.939  -0.170  0.00  0.00    -0.263 NA
ATOM     10  C   UNL     1       2.998   5.175  -0.851  0.00  0.00    +0.111 A 
ATOM     11  C   UNL     1       4.215   5.298  -0.206  0.00  0.00    +0.020 A 
ATOM     12  C   UNL     1       4.263   5.174   1.174  0.00  0.00    +0.008 A 
ENDBRANCH   3   7
TORSDOF 1
ENDMDL
MODEL 7
REMARK VINA RESULT:    -3.520      0.842      1.103
REMARK INTER + INTRA:          -3.969
REMARK INTER:                  -3.746
REMARK INTRA:                  -0.224
REMARK UNBOUND:                -0.243
REMARK  Name = Nicotine.pdb
REMARK  2 active torsions:
REMARK  status: ('A' for Active; 'I' for Inactive)
REMARK    1  A    between atoms: C_3  and  C_6
REMARK    2  A    between atoms: N_4  and  C_12
REMARK                            x       y       z     vdW  Elec       q    Type
REMARK                         _______ _______ _______ _____ _____    ______ ____
ROOT
ATOM      1  C   UNL     1       2.769   5.663   1.321  0.00  0.00    +0.017 C 
ATOM      2  C   UNL     1       1.968   4.858   2.377  0.00  0.00    +0.025 C 
ATOM      3  C   UNL     1       2.929   4.814   3.583  0.00  0.00    +0.088 C 
ATOM      4  N   UNL     1       4.291   5.034   3.065  0.00  0.00    -0.298 NA
ATOM      5  C   UNL     1       4.217   5.185   1.596  0.00  0.00    +0.085 C 
ATOM      6  C   UNL     1       4.908   6.214   3.685  0.00  0.00    +0.105 C 
ENDROOT
BRANCH   3   7
ATOM      7  C   UNL     1       2.847   3.469   4.257  0.00  0.00    -0.012 A 
ATOM      8  C   UNL     1       3.979   2.690   4.403  0.00  0.00    +0.115 A 
ATOM      9  N   UNL     1       3.915   1.511   4.991  0.00  0.00    -0.263 NA
ATOM     10  C   UNL     1       2.780   1.031   5.460  0.00  0.00    +0.111 A 
ATOM     11  C   UNL     1       1.607   1.754   5.350  0.00  0.00    +0.020 A 
ATOM     12  C   UNL     1       1.636   2.999   4.742  0.00  0.00    +0.008 A 
ENDBRANCH   3   7
TORSDOF 1
ENDMDL
MODEL 8
REMARK VINA RESULT:    -3.271      1.513      2.205
REMARK INTER + INTRA:          -3.705
REMARK INTER:                  -3.484
REMARK INTRA:                  -0.221
REMARK UNBOUND:                -0.243
REMARK  Name = Nicotine.pdb
REMARK  2 active torsions:
REMARK  status: ('A' for Active; 'I' for Inactive)
REMARK    1  A    between atoms: C_3  and  C_6
REMARK    2  A    between atoms: N_4  and  C_12
REMARK                            x       y       z     vdW  Elec       q    Type
REMARK                         _______ _______ _______ _____ _____    ______ ____
ROOT
ATOM      1  C   UNL     1       2.932   5.246  -0.671  0.00  0.00    +0.017 C 
ATOM      2  C   UNL     1       2.237   4.929   0.680  0.00  0.00    +0.025 C 
ATOM      3  C   UNL     1       3.249   5.451   1.722  0.00  0.00    +0.088 C 
ATOM      4  N   UNL     1       4.568   5.496   1.066  0.00  0.00    -0.298 NA
ATOM      5  C   UNL     1       4.422   5.004  -0.321  0.00  0.00    +0.085 C 
ATOM      6  C   UNL     1       5.120   6.857   1.086  0.00  0.00    +0.105 C 
ENDROOT
BRANCH   3   7
ATOM      7  C   UNL     1       3.294   4.518   2.904  0.00  0.00    -0.012 A 
ATOM      8  C   UNL     1       4.506   4.061   3.388  0.00  0.00    +0.115 A 
ATOM      9  N   UNL     1       4.555   3.244   4.422  0.00  0.00    -0.263 NA
ATOM     10  C   UNL     1       3.461   2.832   5.032  0.00  0.00    +0.111 A 
ATOM     11  C   UNL     1       2.213   3.247   4.605  0.00  0.00    +0.020 A 
ATOM     12  C   UNL     1       2.123   4.111   3.524  0.00  0.00    +0.008 A 
ENDBRANCH   3   7
TORSDOF 1
ENDMDL
MODEL 9
REMARK VINA RESULT:    -3.242      3.598      5.549
REMARK INTER + INTRA:          -3.675
REMARK INTER:                  -3.427
REMARK INTRA:                  -0.248
REMARK UNBOUND:                -0.243
REMARK  Name = Nicotine.pdb
REMARK  2 active torsions:
REMARK  status: ('A' for Active; 'I' for Inactive)
REMARK    1  A    between atoms: C_3  and  C_6
REMARK    2  A    between atoms: N_4  and  C_12
REMARK                            x       y       z     vdW  Elec       q    Type
REMARK                         _______ _______ _______ _____ _____    ______ ____
ROOT
ATOM      1  C   UNL     1       7.659   5.313  -1.749  0.00  0.00    +0.017 C 
ATOM      2  C   UNL     1       6.303   6.000  -1.441  0.00  0.00    +0.025 C 
ATOM      3  C   UNL     1       6.038   5.602   0.027  0.00  0.00    +0.088 C 
ATOM      4  N   UNL     1       6.822   4.383   0.297  0.00  0.00    -0.298 NA
ATOM      5  C   UNL     1       7.535   3.998  -0.939  0.00  0.00    +0.085 C 
ATOM      6  C   UNL     1       7.763   4.596   1.404  0.00  0.00    +0.105 C 
ENDROOT
BRANCH   3   7
ATOM      7  C   UNL     1       4.571   5.324   0.226  0.00  0.00    -0.012 A 
ATOM      8  C   UNL     1       4.071   5.079   1.491  0.00  0.00    +0.115 A 
ATOM      9  N   UNL     1       2.788   4.835   1.674  0.00  0.00    -0.263 NA
ATOM     10  C   UNL     1       1.936   4.814   0.668  0.00  0.00    +0.111 A 
ATOM     11  C   UNL     1       2.363   5.051  -0.626  0.00  0.00    +0.020 A 
ATOM     12  C   UNL     1       3.704   5.316  -0.856  0.00  0.00    +0.008 A 
ENDBRANCH   3   7
TORSDOF 1
ENDMDL
MODEL 10
REMARK VINA RESULT:    -3.240      2.529      4.368
REMARK INTER + INTRA:          -3.672
REMARK INTER:                  -3.487
REMARK INTRA:                  -0.185
REMARK UNBOUND:                -0.243
REMARK  Name = Nicotine.pdb
REMARK  2 active torsions:
REMARK  status: ('A' for Active; 'I' for Inactive)
REMARK    1  A    between atoms: C_3  and  C_6
REMARK    2  A    between atoms: N_4  and  C_12
REMARK                            x       y       z     vdW  Elec       q    Type
REMARK                         _______ _______ _______ _____ _____    ______ ____
ROOT
ATOM      1  C   UNL     1       5.754   5.240  -1.878  0.00  0.00    +0.017 C 
ATOM      2  C   UNL     1       4.439   5.610  -1.142  0.00  0.00    +0.025 C 
ATOM      3  C   UNL     1       4.905   5.832   0.312  0.00  0.00    +0.088 C 
ATOM      4  N   UNL     1       6.176   5.105   0.480  0.00  0.00    -0.298 NA
ATOM      5  C   UNL     1       6.501   4.425  -0.793  0.00  0.00    +0.085 C 
ATOM      6  C   UNL     1       7.256   6.015   0.881  0.00  0.00    +0.105 C 
ENDROOT
BRANCH   3   7
ATOM      7  C   UNL     1       3.874   5.293   1.270  0.00  0.00    -0.012 A 
ATOM      8  C   UNL     1       2.577   5.072   0.848  0.00  0.00    +0.115 A 
ATOM      9  N   UNL     1       1.668   4.600   1.680  0.00  0.00    -0.263 NA
ATOM     10  C   UNL     1       1.956   4.322   2.936  0.00  0.00    +0.111 A 
ATOM     11  C   UNL     1       3.233   4.517   3.429  0.00  0.00    +0.020 A 
ATOM     12  C   UNL     1       4.216   5.007   2.583  0.00  0.00    +0.008 A 
ENDBRANCH   3   7
TORSDOF 1
ENDMDL
