MODEL 1
REMARK VINA RESULT:    -3.549      0.000      0.000
REMARK INTER + INTRA:          -3.972
REMARK INTER:                  -3.756
REMARK INTRA:                  -0.216
REMARK UNBOUND:                -0.216
REMARK  Name = Nicotine.pdb
REMARK  2 active torsions:
REMARK  status: ('A' for Active; 'I' for Inactive)
REMARK    1  A    between atoms: C_3  and  C_6
REMARK    2  A    between atoms: N_4  and  C_12
REMARK                            x       y       z     vdW  Elec       q    Type
REMARK                         _______ _______ _______ _____ _____    ______ ____
ROOT
ATOM      1  C   UNL     1      -4.906   2.539  -3.725  0.00  0.00    +0.017 C 
ATOM      2  C   UNL     1      -5.165   1.424  -4.772  0.00  0.00    +0.025 C 
ATOM      3  C   UNL     1      -5.127   0.135  -3.924  0.00  0.00    +0.088 C 
ATOM      4  N   UNL     1      -4.361   0.439  -2.702  0.00  0.00    -0.298 NA
ATOM      5  C   UNL     1      -3.904   1.843  -2.769  0.00  0.00    +0.085 C 
ATOM      6  C   UNL     1      -5.171   0.204  -1.500  0.00  0.00    +0.105 C 
ENDROOT
BRANCH   3   7
ATOM      7  C   UNL     1      -4.448  -0.967  -4.696  0.00  0.00    -0.012 A 
ATOM      8  C   UNL     1      -3.848  -2.019  -4.031  0.00  0.00    +0.115 A 
ATOM      9  N   UNL     1      -3.252  -2.987  -4.699  0.00  0.00    -0.263 NA
ATOM     10  C   UNL     1      -3.203  -2.992  -6.016  0.00  0.00    +0.111 A 
ATOM     11  C   UNL     1      -3.781  -1.973  -6.750  0.00  0.00    +0.020 A 
ATOM     12  C   UNL     1      -4.422  -0.941  -6.082  0.00  0.00    +0.008 A 
ENDBRANCH   3   7
TORSDOF 1
ENDMDL
MODEL 2
REMARK VINA RESULT:    -3.217     16.379     17.369
REMARK INTER + INTRA:          -3.621
REMARK INTER:                  -3.381
REMARK INTRA:                  -0.240
REMARK UNBOUND:                -0.216
REMARK  Name = Nicotine.pdb
REMARK  2 active torsions:
REMARK  status: ('A' for Active; 'I' for Inactive)
REMARK    1  A    between atoms: C_3  and  C_6
REMARK    2  A    between atoms: N_4  and  C_12
REMARK                            x       y       z     vdW  Elec       q    Type
REMARK                         _______ _______ _______ _____ _____    ______ ____
ROOT
ATOM      1  C   UNL     1       8.828   5.704   3.238  0.00  0.00    +0.017 C 
ATOM      2  C   UNL     1       8.364   4.374   3.889  0.00  0.00    +0.025 C 
ATOM      3  C   UNL     1       9.409   4.149   5.002  0.00  0.00    +0.088 C 
ATOM      4  N   UNL     1      10.613   4.914   4.632  0.00  0.00    -0.298 NA
ATOM      5  C   UNL     1      10.369   5.577   3.333  0.00  0.00    +0.085 C 
ATOM      6  C   UNL     1      10.954   5.895   5.670  0.00  0.00    +0.105 C 
ENDROOT
BRANCH   3   7
ATOM      7  C   UNL     1       9.741   2.683   5.105  0.00  0.00    -0.012 A 
ATOM      8  C   UNL     1      10.657   2.238   6.039  0.00  0.00    +0.115 A 
ATOM      9  N   UNL     1      10.954   0.956   6.135  0.00  0.00    -0.263 NA
ATOM     10  C   UNL     1      10.395   0.055   5.352  0.00  0.00    +0.111 A 
ATOM     11  C   UNL     1       9.470   0.426   4.394  0.00  0.00    +0.020 A 
ATOM     12  C   UNL     1       9.129   1.763   4.267  0.00  0.00    +0.008 A 
ENDBRANCH   3   7
TORSDOF 1
ENDMDL
MODEL 3
REMARK VINA RESULT:    -2.761      3.379      5.339
REMARK INTER + INTRA:          -3.139
REMARK INTER:                  -2.891
REMARK INTRA:                  -0.248
REMARK UNBOUND:                -0.216
REMARK  Name = Nicotine.pdb
REMARK  2 active torsions:
REMARK  status: ('A' for Active; 'I' for Inactive)
REMARK    1  A    between atoms: C_3  and  C_6
REMARK    2  A    between atoms: N_4  and  C_12
REMARK                            x       y       z     vdW  Elec       q    Type
REMARK                         _______ _______ _______ _____ _____    ______ ____
ROOT
ATOM      1  C   UNL     1      -3.960  -1.601  -6.339  0.00  0.00    +0.017 C 
ATOM      2  C   UNL     1      -2.702  -1.623  -7.247  0.00  0.00    +0.025 C 
ATOM      3  C   UNL     1      -2.267  -3.103  -7.204  0.00  0.00    +0.088 C 
ATOM      4  N   UNL     1      -2.837  -3.690  -5.977  0.00  0.00    -0.298 NA
ATOM      5  C   UNL     1      -3.578  -2.637  -5.252  0.00  0.00    +0.085 C 
ATOM      6  C   UNL     1      -3.711  -4.827  -6.294  0.00  0.00    +0.105 C 
ENDROOT
BRANCH   3   7
ATOM      7  C   UNL     1      -0.764  -3.196  -7.167  0.00  0.00    -0.012 A 
ATOM      8  C   UNL     1      -0.137  -4.424  -7.256  0.00  0.00    +0.115 A 
ATOM      9  N   UNL     1       1.179  -4.514  -7.225  0.00  0.00    -0.263 NA
ATOM     10  C   UNL     1       1.944  -3.446  -7.110  0.00  0.00    +0.111 A 
ATOM     11  C   UNL     1       1.388  -2.184  -7.016  0.00  0.00    +0.020 A 
ATOM     12  C   UNL     1       0.008  -2.050  -7.051  0.00  0.00    +0.008 A 
ENDBRANCH   3   7
TORSDOF 1
ENDMDL
MODEL 4
REMARK VINA RESULT:    -1.705      3.568      6.182
REMARK INTER + INTRA:          -2.021
REMARK INTER:                  -1.828
REMARK INTRA:                  -0.193
REMARK UNBOUND:                -0.216
REMARK  Name = Nicotine.pdb
REMARK  2 active torsions:
REMARK  status: ('A' for Active; 'I' for Inactive)
REMARK    1  A    between atoms: C_3  and  C_6
REMARK    2  A    between atoms: N_4  and  C_12
REMARK                            x       y       z     vdW  Elec       q    Type
REMARK                         _______ _______ _______ _____ _____    ______ ____
ROOT
ATOM      1  C   UNL     1       2.431  -2.699  -5.614  0.00  0.00    +0.017 C 
ATOM      2  C   UNL     1       1.033  -2.458  -4.985  0.00  0.00    +0.025 C 
ATOM      3  C   UNL     1       0.120  -3.402  -5.795  0.00  0.00    +0.088 C 
ATOM      4  N   UNL     1       0.797  -3.672  -7.076  0.00  0.00    -0.298 NA
ATOM      5  C   UNL     1       2.069  -2.920  -7.104  0.00  0.00    +0.085 C 
ATOM      6  C   UNL     1       1.032  -5.111  -7.256  0.00  0.00    +0.105 C 
ENDROOT
BRANCH   3   7
ATOM      7  C   UNL     1      -1.210  -2.740  -6.046  0.00  0.00    -0.012 A 
ATOM      8  C   UNL     1      -2.306  -3.055  -5.266  0.00  0.00    +0.115 A 
ATOM      9  N   UNL     1      -3.474  -2.480  -5.479  0.00  0.00    -0.263 NA
ATOM     10  C   UNL     1      -3.643  -1.589  -6.435  0.00  0.00    +0.111 A 
ATOM     11  C   UNL     1      -2.592  -1.222  -7.255  0.00  0.00    +0.020 A 
ATOM     12  C   UNL     1      -1.348  -1.802  -7.058  0.00  0.00    +0.008 A 
ENDBRANCH   3   7
TORSDOF 1
ENDMDL
MODEL 5
REMARK VINA RESULT:    -1.416      3.608      4.868
REMARK INTER + INTRA:          -1.715
REMARK INTER:                  -1.504
REMARK INTRA:                  -0.211
REMARK UNBOUND:                -0.216
REMARK  Name = Nicotine.pdb
REMARK  2 active torsions:
REMARK  status: ('A' for Active; 'I' for Inactive)
REMARK    1  A    between atoms: C_3  and  C_6
REMARK    2  A    between atoms: N_4  and  C_12
REMARK                            x       y       z     vdW  Elec       q    Type
REMARK                         _______ _______ _______ _____ _____    ______ ____
ROOT
ATOM      1  C   UNL     1      -4.801  -3.391  -4.001  0.00  0.00    +0.017 C 
ATOM      2  C   UNL     1      -3.338  -2.894  -4.144  0.00  0.00    +0.025 C 
ATOM      3  C   UNL     1      -3.186  -2.693  -5.666  0.00  0.00    +0.088 C 
ATOM      4  N   UNL     1      -4.208  -3.530  -6.321  0.00  0.00    -0.298 NA
ATOM      5  C   UNL     1      -4.963  -4.254  -5.277  0.00  0.00    +0.085 C 
ATOM      6  C   UNL     1      -5.105  -2.715  -7.151  0.00  0.00    +0.105 C 
ENDROOT
BRANCH   3   7
ATOM      7  C   UNL     1      -1.811  -3.124  -6.106  0.00  0.00    -0.012 A 
ATOM      8  C   UNL     1      -0.700  -2.381  -5.754  0.00  0.00    +0.115 A 
ATOM      9  N   UNL     1       0.508  -2.751  -6.134  0.00  0.00    -0.263 NA
ATOM     10  C   UNL     1       0.704  -3.834  -6.859  0.00  0.00    +0.111 A 
ATOM     11  C   UNL     1      -0.359  -4.627  -7.249  0.00  0.00    +0.020 A 
ATOM     12  C   UNL     1      -1.642  -4.273  -6.863  0.00  0.00    +0.008 A 
ENDBRANCH   3   7
TORSDOF 1
ENDMDL
MODEL 6
REMARK VINA RESULT:    -1.205      1.769      2.478
REMARK INTER + INTRA:          -1.492
REMARK INTER:                  -1.242
REMARK INTRA:                  -0.250
REMARK UNBOUND:                -0.216
REMARK  Name = Nicotine.pdb
REMARK  2 active torsions:
REMARK  status: ('A' for Active; 'I' for Inactive)
REMARK    1  A    between atoms: C_3  and  C_6
REMARK    2  A    between atoms: N_4  and  C_12
REMARK                            x       y       z     vdW  Elec       q    Type
REMARK                         _______ _______ _______ _____ _____    ______ ____
ROOT
ATOM      1  C   UNL     1      -4.335   0.328  -4.093  0.00  0.00    +0.017 C 
ATOM      2  C   UNL     1      -4.679  -0.548  -5.326  0.00  0.00    +0.025 C 
ATOM      3  C   UNL     1      -4.925  -1.939  -4.706  0.00  0.00    +0.088 C 
ATOM      4  N   UNL     1      -4.231  -1.967  -3.406  0.00  0.00    -0.298 NA
ATOM      5  C   UNL     1      -3.548  -0.671  -3.209  0.00  0.00    +0.085 C 
ATOM      6  C   UNL     1      -5.171  -2.240  -2.311  0.00  0.00    +0.105 C 
ENDROOT
BRANCH   3   7
ATOM      7  C   UNL     1      -4.369  -3.010  -5.609  0.00  0.00    -0.012 A 
ATOM      8  C   UNL     1      -5.044  -4.205  -5.774  0.00  0.00    +0.115 A 
ATOM      9  N   UNL     1      -4.564  -5.147  -6.563  0.00  0.00    -0.263 NA
ATOM     10  C   UNL     1      -3.432  -4.990  -7.221  0.00  0.00    +0.111 A 
ATOM     11  C   UNL     1      -2.703  -3.821  -7.106  0.00  0.00    +0.020 A 
ATOM     12  C   UNL     1      -3.179  -2.806  -6.290  0.00  0.00    +0.008 A 
ENDBRANCH   3   7
TORSDOF 1
ENDMDL
