MODEL 1
REMARK VINA RESULT:    -3.228      0.000      0.000
REMARK INTER + INTRA:          -3.672
REMARK INTER:                  -3.416
REMARK INTRA:                  -0.256
REMARK UNBOUND:                -0.256
REMARK  Name = Nicotine.pdb
REMARK  2 active torsions:
REMARK  status: ('A' for Active; 'I' for Inactive)
REMARK    1  A    between atoms: C_3  and  C_6
REMARK    2  A    between atoms: N_4  and  C_12
REMARK                            x       y       z     vdW  Elec       q    Type
REMARK                         _______ _______ _______ _____ _____    ______ ____
ROOT
ATOM      1  C   UNL     1       7.573  -0.519   3.568  0.00  0.00    +0.017 C 
ATOM      2  C   UNL     1       8.577   0.232   2.654  0.00  0.00    +0.025 C 
ATOM      3  C   UNL     1       8.159   1.709   2.819  0.00  0.00    +0.088 C 
ATOM      4  N   UNL     1       6.758   1.718   3.275  0.00  0.00    -0.298 NA
ATOM      5  C   UNL     1       6.285   0.320   3.374  0.00  0.00    +0.085 C 
ATOM      6  C   UNL     1       6.627   2.411   4.563  0.00  0.00    +0.105 C 
ENDROOT
BRANCH   3   7
ATOM      7  C   UNL     1       8.275   2.425   1.498  0.00  0.00    -0.012 A 
ATOM      8  C   UNL     1       8.340   3.805   1.455  0.00  0.00    +0.115 A 
ATOM      9  N   UNL     1       8.442   4.440   0.303  0.00  0.00    -0.263 NA
ATOM     10  C   UNL     1       8.484   3.791  -0.844  0.00  0.00    +0.111 A 
ATOM     11  C   UNL     1       8.424   2.411  -0.879  0.00  0.00    +0.020 A 
ATOM     12  C   UNL     1       8.322   1.709   0.312  0.00  0.00    +0.008 A 
ENDBRANCH   3   7
TORSDOF 1
ENDMDL
MODEL 2
REMARK VINA RESULT:    -2.958      1.844      4.849
REMARK INTER + INTRA:          -3.386
REMARK INTER:                  -3.130
REMARK INTRA:                  -0.256
REMARK UNBOUND:                -0.256
REMARK  Name = Nicotine.pdb
REMARK  2 active torsions:
REMARK  status: ('A' for Active; 'I' for Inactive)
REMARK    1  A    between atoms: C_3  and  C_6
REMARK    2  A    between atoms: N_4  and  C_12
REMARK                            x       y       z     vdW  Elec       q    Type
REMARK                         _______ _______ _______ _____ _____    ______ ____
ROOT
ATOM      1  C   UNL     1       8.511   2.821  -0.836  0.00  0.00    +0.017 C 
ATOM      2  C   UNL     1       8.252   2.697   0.689  0.00  0.00    +0.025 C 
ATOM      3  C   UNL     1       9.116   1.482   1.090  0.00  0.00    +0.088 C 
ATOM      4  N   UNL     1       9.340   0.684  -0.129  0.00  0.00    -0.298 NA
ATOM      5  C   UNL     1       8.635   1.334  -1.254  0.00  0.00    +0.085 C 
ATOM      6  C   UNL     1      10.774   0.547  -0.414  0.00  0.00    +0.105 C 
ENDROOT
BRANCH   3   7
ATOM      7  C   UNL     1       8.391   0.656   2.120  0.00  0.00    -0.012 A 
ATOM      8  C   UNL     1       9.092  -0.202   2.947  0.00  0.00    +0.115 A 
ATOM      9  N   UNL     1       8.465  -0.929   3.851  0.00  0.00    -0.263 NA
ATOM     10  C   UNL     1       7.157  -0.869   4.004  0.00  0.00    +0.111 A 
ATOM     11  C   UNL     1       6.390  -0.034   3.214  0.00  0.00    +0.020 A 
ATOM     12  C   UNL     1       7.015   0.750   2.255  0.00  0.00    +0.008 A 
ENDBRANCH   3   7
TORSDOF 1
ENDMDL
MODEL 3
REMARK VINA RESULT:    -2.868      2.937      4.634
REMARK INTER + INTRA:          -3.291
REMARK INTER:                  -3.103
REMARK INTRA:                  -0.189
REMARK UNBOUND:                -0.256
REMARK  Name = Nicotine.pdb
REMARK  2 active torsions:
REMARK  status: ('A' for Active; 'I' for Inactive)
REMARK    1  A    between atoms: C_3  and  C_6
REMARK    2  A    between atoms: N_4  and  C_12
REMARK                            x       y       z     vdW  Elec       q    Type
REMARK                         _______ _______ _______ _____ _____    ______ ____
ROOT
ATOM      1  C   UNL     1       8.782   1.412  -1.035  0.00  0.00    +0.017 C 
ATOM      2  C   UNL     1       9.443   2.511  -1.909  0.00  0.00    +0.025 C 
ATOM      3  C   UNL     1       9.197   3.798  -1.093  0.00  0.00    +0.088 C 
ATOM      4  N   UNL     1       8.048   3.541  -0.207  0.00  0.00    -0.298 NA
ATOM      5  C   UNL     1       7.560   2.168  -0.455  0.00  0.00    +0.085 C 
ATOM      6  C   UNL     1       8.419   3.721   1.203  0.00  0.00    +0.105 C 
ENDROOT
BRANCH   3   7
ATOM      7  C   UNL     1       8.884   4.942  -2.022  0.00  0.00    -0.012 A 
ATOM      8  C   UNL     1       9.486   5.019  -3.264  0.00  0.00    +0.115 A 
ATOM      9  N   UNL     1       9.216   6.017  -4.084  0.00  0.00    -0.263 NA
ATOM     10  C   UNL     1       8.371   6.973  -3.756  0.00  0.00    +0.111 A 
ATOM     11  C   UNL     1       7.730   6.963  -2.531  0.00  0.00    +0.020 A 
ATOM     12  C   UNL     1       7.984   5.927  -1.645  0.00  0.00    +0.008 A 
ENDBRANCH   3   7
TORSDOF 1
ENDMDL
MODEL 4
REMARK VINA RESULT:    -2.814      1.472      4.523
REMARK INTER + INTRA:          -3.234
REMARK INTER:                  -3.020
REMARK INTRA:                  -0.214
REMARK UNBOUND:                -0.256
REMARK  Name = Nicotine.pdb
REMARK  2 active torsions:
REMARK  status: ('A' for Active; 'I' for Inactive)
REMARK    1  A    between atoms: C_3  and  C_6
REMARK    2  A    between atoms: N_4  and  C_12
REMARK                            x       y       z     vdW  Elec       q    Type
REMARK                         _______ _______ _______ _____ _____    ______ ____
ROOT
ATOM      1  C   UNL     1       9.848   4.116   1.637  0.00  0.00    +0.017 C 
ATOM      2  C   UNL     1      10.028   2.666   2.157  0.00  0.00    +0.025 C 
ATOM      3  C   UNL     1       9.022   1.863   1.304  0.00  0.00    +0.088 C 
ATOM      4  N   UNL     1       8.009   2.814   0.814  0.00  0.00    -0.298 NA
ATOM      5  C   UNL     1       8.327   4.157   1.344  0.00  0.00    +0.085 C 
ATOM      6  C   UNL     1       7.962   2.825  -0.654  0.00  0.00    +0.105 C 
ENDROOT
BRANCH   3   7
ATOM      7  C   UNL     1       8.366   0.802   2.149  0.00  0.00    -0.012 A 
ATOM      8  C   UNL     1       9.115  -0.229   2.683  0.00  0.00    +0.115 A 
ATOM      9  N   UNL     1       8.548  -1.162   3.423  0.00  0.00    -0.263 NA
ATOM     10  C   UNL     1       7.256  -1.151   3.682  0.00  0.00    +0.111 A 
ATOM     11  C   UNL     1       6.442  -0.151   3.182  0.00  0.00    +0.020 A 
ATOM     12  C   UNL     1       7.004   0.850   2.404  0.00  0.00    +0.008 A 
ENDBRANCH   3   7
TORSDOF 1
ENDMDL
MODEL 5
REMARK VINA RESULT:    -2.772      3.301      6.128
REMARK INTER + INTRA:          -3.190
REMARK INTER:                  -2.966
REMARK INTRA:                  -0.224
REMARK UNBOUND:                -0.256
REMARK  Name = Nicotine.pdb
REMARK  2 active torsions:
REMARK  status: ('A' for Active; 'I' for Inactive)
REMARK    1  A    between atoms: C_3  and  C_6
REMARK    2  A    between atoms: N_4  and  C_12
REMARK                            x       y       z     vdW  Elec       q    Type
REMARK                         _______ _______ _______ _____ _____    ______ ____
ROOT
ATOM      1  C   UNL     1       7.095   0.724   2.755  0.00  0.00    +0.017 C 
ATOM      2  C   UNL     1       6.520  -0.639   3.221  0.00  0.00    +0.025 C 
ATOM      3  C   UNL     1       7.634  -1.192   4.134  0.00  0.00    +0.088 C 
ATOM      4  N   UNL     1       8.888  -0.520   3.749  0.00  0.00    -0.298 NA
ATOM      5  C   UNL     1       8.604   0.400   2.626  0.00  0.00    +0.085 C 
ATOM      6  C   UNL     1       9.471   0.202   4.887  0.00  0.00    +0.105 C 
ENDROOT
BRANCH   3   7
ATOM      7  C   UNL     1       7.767  -2.680   3.938  0.00  0.00    -0.012 A 
ATOM      8  C   UNL     1       8.980  -3.231   3.572  0.00  0.00    +0.115 A 
ATOM      9  N   UNL     1       9.105  -4.533   3.398  0.00  0.00    -0.263 NA
ATOM     10  C   UNL     1       8.087  -5.355   3.565  0.00  0.00    +0.111 A 
ATOM     11  C   UNL     1       6.843  -4.876   3.932  0.00  0.00    +0.020 A 
ATOM     12  C   UNL     1       6.676  -3.514   4.129  0.00  0.00    +0.008 A 
ENDBRANCH   3   7
TORSDOF 1
ENDMDL
MODEL 6
REMARK VINA RESULT:    -2.730      1.767      2.207
REMARK INTER + INTRA:          -3.146
REMARK INTER:                  -2.900
REMARK INTRA:                  -0.246
REMARK UNBOUND:                -0.256
REMARK  Name = Nicotine.pdb
REMARK  2 active torsions:
REMARK  status: ('A' for Active; 'I' for Inactive)
REMARK    1  A    between atoms: C_3  and  C_6
REMARK    2  A    between atoms: N_4  and  C_12
REMARK                            x       y       z     vdW  Elec       q    Type
REMARK                         _______ _______ _______ _____ _____    ______ ____
ROOT
ATOM      1  C   UNL     1       9.293   0.593   4.418  0.00  0.00    +0.017 C 
ATOM      2  C   UNL     1       9.487   1.576   3.234  0.00  0.00    +0.025 C 
ATOM      3  C   UNL     1       8.257   1.296   2.344  0.00  0.00    +0.088 C 
ATOM      4  N   UNL     1       7.778  -0.058   2.675  0.00  0.00    -0.298 NA
ATOM      5  C   UNL     1       8.668  -0.634   3.706  0.00  0.00    +0.085 C 
ATOM      6  C   UNL     1       6.386  -0.026   3.139  0.00  0.00    +0.105 C 
ENDROOT
BRANCH   3   7
ATOM      7  C   UNL     1       8.650   1.361   0.891  0.00  0.00    -0.012 A 
ATOM      8  C   UNL     1       7.832   1.991  -0.027  0.00  0.00    +0.115 A 
ATOM      9  N   UNL     1       8.168   2.053  -1.300  0.00  0.00    -0.263 NA
ATOM     10  C   UNL     1       9.289   1.522  -1.748  0.00  0.00    +0.111 A 
ATOM     11  C   UNL     1      10.158   0.876  -0.888  0.00  0.00    +0.020 A 
ATOM     12  C   UNL     1       9.840   0.796   0.459  0.00  0.00    +0.008 A 
ENDBRANCH   3   7
TORSDOF 1
ENDMDL
MODEL 7
REMARK VINA RESULT:    -2.696      2.571      4.285
REMARK INTER + INTRA:          -3.109
REMARK INTER:                  -2.855
REMARK INTRA:                  -0.254
REMARK UNBOUND:                -0.256
REMARK  Name = Nicotine.pdb
REMARK  2 active torsions:
REMARK  status: ('A' for Active; 'I' for Inactive)
REMARK    1  A    between atoms: C_3  and  C_6
REMARK    2  A    between atoms: N_4  and  C_12
REMARK                            x       y       z     vdW  Elec       q    Type
REMARK                         _______ _______ _______ _____ _____    ______ ____
ROOT
ATOM      1  C   UNL     1       9.699  -3.265   5.218  0.00  0.00    +0.017 C 
ATOM      2  C   UNL     1       9.273  -1.774   5.154  0.00  0.00    +0.025 C 
ATOM      3  C   UNL     1       7.930  -1.829   4.397  0.00  0.00    +0.088 C 
ATOM      4  N   UNL     1       7.913  -3.086   3.627  0.00  0.00    -0.298 NA
ATOM      5  C   UNL     1       9.191  -3.794   3.854  0.00  0.00    +0.085 C 
ATOM      6  C   UNL     1       6.770  -3.924   4.011  0.00  0.00    +0.105 C 
ENDROOT
BRANCH   3   7
ATOM      7  C   UNL     1       7.820  -0.652   3.462  0.00  0.00    -0.012 A 
ATOM      8  C   UNL     1       6.588  -0.084   3.195  0.00  0.00    +0.115 A 
ATOM      9  N   UNL     1       6.483   0.946   2.379  0.00  0.00    -0.263 NA
ATOM     10  C   UNL     1       7.537   1.473   1.788  0.00  0.00    +0.111 A 
ATOM     11  C   UNL     1       8.802   0.958   2.007  0.00  0.00    +0.020 A 
ATOM     12  C   UNL     1       8.952  -0.121   2.864  0.00  0.00    +0.008 A 
ENDBRANCH   3   7
TORSDOF 1
ENDMDL
MODEL 8
REMARK VINA RESULT:    -2.670      1.329      4.439
REMARK INTER + INTRA:          -3.082
REMARK INTER:                  -2.872
REMARK INTRA:                  -0.211
REMARK UNBOUND:                -0.256
REMARK  Name = Nicotine.pdb
REMARK  2 active torsions:
REMARK  status: ('A' for Active; 'I' for Inactive)
REMARK    1  A    between atoms: C_3  and  C_6
REMARK    2  A    between atoms: N_4  and  C_12
REMARK                            x       y       z     vdW  Elec       q    Type
REMARK                         _______ _______ _______ _____ _____    ______ ____
ROOT
ATOM      1  C   UNL     1      10.150   3.962   0.753  0.00  0.00    +0.017 C 
ATOM      2  C   UNL     1       9.979   3.029   1.981  0.00  0.00    +0.025 C 
ATOM      3  C   UNL     1       8.714   2.218   1.627  0.00  0.00    +0.088 C 
ATOM      4  N   UNL     1       7.954   3.003   0.638  0.00  0.00    -0.298 NA
ATOM      5  C   UNL     1       8.676   4.268   0.386  0.00  0.00    +0.085 C 
ATOM      6  C   UNL     1       7.767   2.246  -0.606  0.00  0.00    +0.105 C 
ENDROOT
BRANCH   3   7
ATOM      7  C   UNL     1       7.880   2.003   2.863  0.00  0.00    -0.012 A 
ATOM      8  C   UNL     1       7.777   2.996   3.818  0.00  0.00    +0.115 A 
ATOM      9  N   UNL     1       7.049   2.816   4.903  0.00  0.00    -0.263 NA
ATOM     10  C   UNL     1       6.396   1.692   5.121  0.00  0.00    +0.111 A 
ATOM     11  C   UNL     1       6.452   0.653   4.210  0.00  0.00    +0.020 A 
ATOM     12  C   UNL     1       7.203   0.808   3.055  0.00  0.00    +0.008 A 
ENDBRANCH   3   7
TORSDOF 1
ENDMDL
MODEL 9
REMARK VINA RESULT:    -2.503      1.470      4.761
REMARK INTER + INTRA:          -2.905
REMARK INTER:                  -2.689
REMARK INTRA:                  -0.216
REMARK UNBOUND:                -0.256
REMARK  Name = Nicotine.pdb
REMARK  2 active torsions:
REMARK  status: ('A' for Active; 'I' for Inactive)
REMARK    1  A    between atoms: C_3  and  C_6
REMARK    2  A    between atoms: N_4  and  C_12
REMARK                            x       y       z     vdW  Elec       q    Type
REMARK                         _______ _______ _______ _____ _____    ______ ____
ROOT
ATOM      1  C   UNL     1      10.102   2.785  -2.534  0.00  0.00    +0.017 C 
ATOM      2  C   UNL     1       9.183   2.016  -1.549  0.00  0.00    +0.025 C 
ATOM      3  C   UNL     1       8.380   3.147  -0.870  0.00  0.00    +0.088 C 
ATOM      4  N   UNL     1       9.163   4.387  -1.017  0.00  0.00    -0.298 NA
ATOM      5  C   UNL     1      10.418   4.070  -1.730  0.00  0.00    +0.085 C 
ATOM      6  C   UNL     1       8.394   5.414  -1.733  0.00  0.00    +0.105 C 
ENDROOT
BRANCH   3   7
ATOM      7  C   UNL     1       8.185   2.831   0.590  0.00  0.00    -0.012 A 
ATOM      8  C   UNL     1       8.267   3.833   1.539  0.00  0.00    +0.115 A 
ATOM      9  N   UNL     1       8.097   3.566   2.819  0.00  0.00    -0.263 NA
ATOM     10  C   UNL     1       7.846   2.344   3.244  0.00  0.00    +0.111 A 
ATOM     11  C   UNL     1       7.750   1.290   2.354  0.00  0.00    +0.020 A 
ATOM     12  C   UNL     1       7.917   1.534   1.000  0.00  0.00    +0.008 A 
ENDBRANCH   3   7
TORSDOF 1
ENDMDL
