MODEL 1
REMARK VINA RESULT:    18.720      0.000      0.000
REMARK INTER + INTRA:          19.592
REMARK INTER:                  19.815
REMARK INTRA:                  -0.223
REMARK UNBOUND:                -0.223
REMARK  Name = Nicotine.pdb
REMARK  2 active torsions:
REMARK  status: ('A' for Active; 'I' for Inactive)
REMARK    1  A    between atoms: C_3  and  C_6
REMARK    2  A    between atoms: N_4  and  C_12
REMARK                            x       y       z     vdW  Elec       q    Type
REMARK                         _______ _______ _______ _____ _____    ______ ____
ROOT
ATOM      1  C   UNL     1       2.007   0.204  -1.637  0.00  0.00    +0.017 C 
ATOM      2  C   UNL     1       1.220   1.319  -2.375  0.00  0.00    +0.025 C 
ATOM      3  C   UNL     1       2.302   2.386  -2.647  0.00  0.00    +0.088 C 
ATOM      4  N   UNL     1       3.387   2.166  -1.674  0.00  0.00    -0.298 NA
ATOM      5  C   UNL     1       3.014   1.033  -0.801  0.00  0.00    +0.085 C 
ATOM      6  C   UNL     1       4.662   1.909  -2.356  0.00  0.00    +0.105 C 
ENDROOT
BRANCH   3   7
ATOM      7  C   UNL     1       1.720   3.764  -2.466  0.00  0.00    -0.012 A 
ATOM      8  C   UNL     1       1.779   4.688  -3.492  0.00  0.00    +0.115 A 
ATOM      9  N   UNL     1       1.272   5.897  -3.341  0.00  0.00    -0.263 NA
ATOM     10  C   UNL     1       0.694   6.270  -2.217  0.00  0.00    +0.111 A 
ATOM     11  C   UNL     1       0.597   5.400  -1.147  0.00  0.00    +0.020 A 
ATOM     12  C   UNL     1       1.114   4.120  -1.270  0.00  0.00    +0.008 A 
ENDBRANCH   3   7
TORSDOF 1
ENDMDL
MODEL 2
REMARK VINA RESULT:    21.193      1.194      1.954
REMARK INTER + INTRA:          22.210
REMARK INTER:                  22.411
REMARK INTRA:                  -0.202
REMARK UNBOUND:                -0.223
REMARK  Name = Nicotine.pdb
REMARK  2 active torsions:
REMARK  status: ('A' for Active; 'I' for Inactive)
REMARK    1  A    between atoms: C_3  and  C_6
REMARK    2  A    between atoms: N_4  and  C_12
REMARK                            x       y       z     vdW  Elec       q    Type
REMARK                         _______ _______ _______ _____ _____    ______ ____
ROOT
ATOM      1  C   UNL     1       3.490   1.072  -2.002  0.00  0.00    +0.017 C 
ATOM      2  C   UNL     1       3.480   2.596  -1.711  0.00  0.00    +0.025 C 
ATOM      3  C   UNL     1       2.011   2.865  -1.320  0.00  0.00    +0.088 C 
ATOM      4  N   UNL     1       1.200   1.776  -1.894  0.00  0.00    -0.298 NA
ATOM      5  C   UNL     1       2.094   0.866  -2.641  0.00  0.00    +0.085 C 
ATOM      6  C   UNL     1       0.468   1.054  -0.846  0.00  0.00    +0.105 C 
ENDROOT
BRANCH   3   7
ATOM      7  C   UNL     1       1.564   4.190  -1.882  0.00  0.00    -0.012 A 
ATOM      8  C   UNL     1       1.861   4.531  -3.188  0.00  0.00    +0.115 A 
ATOM      9  N   UNL     1       1.474   5.688  -3.687  0.00  0.00    -0.263 NA
ATOM     10  C   UNL     1       0.795   6.561  -2.969  0.00  0.00    +0.111 A 
ATOM     11  C   UNL     1       0.461   6.289  -1.655  0.00  0.00    +0.020 A 
ATOM     12  C   UNL     1       0.846   5.079  -1.098  0.00  0.00    +0.008 A 
ENDBRANCH   3   7
TORSDOF 1
ENDMDL
