MODEL 1
REMARK VINA RESULT:    -4.284      0.000      0.000
REMARK INTER + INTRA:          -4.719
REMARK INTER:                  -4.535
REMARK INTRA:                  -0.184
REMARK UNBOUND:                -0.184
REMARK  Name = Nicotine.pdb
REMARK  2 active torsions:
REMARK  status: ('A' for Active; 'I' for Inactive)
REMARK    1  A    between atoms: C_3  and  C_6
REMARK    2  A    between atoms: N_4  and  C_12
REMARK                            x       y       z     vdW  Elec       q    Type
REMARK                         _______ _______ _______ _____ _____    ______ ____
ROOT
ATOM      1  C   UNL     1       7.200   5.807   3.677  0.00  0.00    +0.017 C 
ATOM      2  C   UNL     1       6.615   4.913   2.552  0.00  0.00    +0.025 C 
ATOM      3  C   UNL     1       6.934   3.485   3.041  0.00  0.00    +0.088 C 
ATOM      4  N   UNL     1       8.059   3.589   3.988  0.00  0.00    -0.298 NA
ATOM      5  C   UNL     1       8.463   5.008   4.086  0.00  0.00    +0.085 C 
ATOM      6  C   UNL     1       7.690   3.054   5.306  0.00  0.00    +0.105 C 
ENDROOT
BRANCH   3   7
ATOM      7  C   UNL     1       7.325   2.618   1.873  0.00  0.00    -0.012 A 
ATOM      8  C   UNL     1       6.879   2.918   0.599  0.00  0.00    +0.115 A 
ATOM      9  N   UNL     1       7.216   2.165  -0.429  0.00  0.00    -0.263 NA
ATOM     10  C   UNL     1       7.985   1.103  -0.288  0.00  0.00    +0.111 A 
ATOM     11  C   UNL     1       8.469   0.741   0.955  0.00  0.00    +0.020 A 
ATOM     12  C   UNL     1       8.140   1.512   2.059  0.00  0.00    +0.008 A 
ENDBRANCH   3   7
TORSDOF 1
ENDMDL
MODEL 2
REMARK VINA RESULT:    -4.201      2.770      5.776
REMARK INTER + INTRA:          -4.631
REMARK INTER:                  -4.415
REMARK INTRA:                  -0.215
REMARK UNBOUND:                -0.184
REMARK  Name = Nicotine.pdb
REMARK  2 active torsions:
REMARK  status: ('A' for Active; 'I' for Inactive)
REMARK    1  A    between atoms: C_3  and  C_6
REMARK    2  A    between atoms: N_4  and  C_12
REMARK                            x       y       z     vdW  Elec       q    Type
REMARK                         _______ _______ _______ _____ _____    ______ ____
ROOT
ATOM      1  C   UNL     1       5.877  -2.333  -2.002  0.00  0.00    +0.017 C 
ATOM      2  C   UNL     1       6.865  -1.141  -1.909  0.00  0.00    +0.025 C 
ATOM      3  C   UNL     1       7.290  -1.157  -0.426  0.00  0.00    +0.088 C 
ATOM      4  N   UNL     1       6.237  -1.866   0.323  0.00  0.00    -0.298 NA
ATOM      5  C   UNL     1       5.173  -2.264  -0.624  0.00  0.00    +0.085 C 
ATOM      6  C   UNL     1       6.784  -3.036   1.023  0.00  0.00    +0.105 C 
ENDROOT
BRANCH   3   7
ATOM      7  C   UNL     1       7.423   0.254   0.085  0.00  0.00    -0.012 A 
ATOM      8  C   UNL     1       6.812   1.299  -0.582  0.00  0.00    +0.115 A 
ATOM      9  N   UNL     1       6.923   2.537  -0.141  0.00  0.00    -0.263 NA
ATOM     10  C   UNL     1       7.614   2.828   0.943  0.00  0.00    +0.111 A 
ATOM     11  C   UNL     1       8.252   1.835   1.663  0.00  0.00    +0.020 A 
ATOM     12  C   UNL     1       8.153   0.520   1.233  0.00  0.00    +0.008 A 
ENDBRANCH   3   7
TORSDOF 1
ENDMDL
MODEL 3
REMARK VINA RESULT:    -4.133      2.812      5.509
REMARK INTER + INTRA:          -4.559
REMARK INTER:                  -4.311
REMARK INTRA:                  -0.248
REMARK UNBOUND:                -0.184
REMARK  Name = Nicotine.pdb
REMARK  2 active torsions:
REMARK  status: ('A' for Active; 'I' for Inactive)
REMARK    1  A    between atoms: C_3  and  C_6
REMARK    2  A    between atoms: N_4  and  C_12
REMARK                            x       y       z     vdW  Elec       q    Type
REMARK                         _______ _______ _______ _____ _____    ______ ____
ROOT
ATOM      1  C   UNL     1       5.308  -2.721   1.174  0.00  0.00    +0.017 C 
ATOM      2  C   UNL     1       5.053  -1.193   1.262  0.00  0.00    +0.025 C 
ATOM      3  C   UNL     1       6.048  -0.615   0.234  0.00  0.00    +0.088 C 
ATOM      4  N   UNL     1       7.114  -1.616   0.049  0.00  0.00    -0.298 NA
ATOM      5  C   UNL     1       6.837  -2.769   0.931  0.00  0.00    +0.085 C 
ATOM      6  C   UNL     1       7.204  -2.036  -1.356  0.00  0.00    +0.105 C 
ENDROOT
BRANCH   3   7
ATOM      7  C   UNL     1       6.635   0.671   0.756  0.00  0.00    -0.012 A 
ATOM      8  C   UNL     1       7.460   1.439  -0.045  0.00  0.00    +0.115 A 
ATOM      9  N   UNL     1       7.978   2.565   0.404  0.00  0.00    -0.263 NA
ATOM     10  C   UNL     1       7.734   3.003   1.623  0.00  0.00    +0.111 A 
ATOM     11  C   UNL     1       6.918   2.289   2.482  0.00  0.00    +0.020 A 
ATOM     12  C   UNL     1       6.352   1.102   2.043  0.00  0.00    +0.008 A 
ENDBRANCH   3   7
TORSDOF 1
ENDMDL
MODEL 4
REMARK VINA RESULT:    -4.048      3.151      6.507
REMARK INTER + INTRA:          -4.469
REMARK INTER:                  -4.247
REMARK INTRA:                  -0.223
REMARK UNBOUND:                -0.184
REMARK  Name = Nicotine.pdb
REMARK  2 active torsions:
REMARK  status: ('A' for Active; 'I' for Inactive)
REMARK    1  A    between atoms: C_3  and  C_6
REMARK    2  A    between atoms: N_4  and  C_12
REMARK                            x       y       z     vdW  Elec       q    Type
REMARK                         _______ _______ _______ _____ _____    ______ ____
ROOT
ATOM      1  C   UNL     1       6.665  -2.218  -3.527  0.00  0.00    +0.017 C 
ATOM      2  C   UNL     1       7.229  -2.006  -2.097  0.00  0.00    +0.025 C 
ATOM      3  C   UNL     1       6.237  -0.998  -1.478  0.00  0.00    +0.088 C 
ATOM      4  N   UNL     1       5.577  -0.295  -2.593  0.00  0.00    -0.298 NA
ATOM      5  C   UNL     1       6.132  -0.803  -3.865  0.00  0.00    +0.085 C 
ATOM      6  C   UNL     1       4.121  -0.478  -2.543  0.00  0.00    +0.105 C 
ENDROOT
BRANCH   3   7
ATOM      7  C   UNL     1       6.981  -0.011  -0.616  0.00  0.00    -0.012 A 
ATOM      8  C   UNL     1       6.935   1.341  -0.902  0.00  0.00    +0.115 A 
ATOM      9  N   UNL     1       7.583   2.211  -0.153  0.00  0.00    -0.263 NA
ATOM     10  C   UNL     1       8.294   1.833   0.891  0.00  0.00    +0.111 A 
ATOM     11  C   UNL     1       8.387   0.498   1.239  0.00  0.00    +0.020 A 
ATOM     12  C   UNL     1       7.715  -0.445   0.477  0.00  0.00    +0.008 A 
ENDBRANCH   3   7
TORSDOF 1
ENDMDL
MODEL 5
REMARK VINA RESULT:    -3.928      3.059      6.255
REMARK INTER + INTRA:          -4.342
REMARK INTER:                  -4.142
REMARK INTRA:                  -0.200
REMARK UNBOUND:                -0.184
REMARK  Name = Nicotine.pdb
REMARK  2 active torsions:
REMARK  status: ('A' for Active; 'I' for Inactive)
REMARK    1  A    between atoms: C_3  and  C_6
REMARK    2  A    between atoms: N_4  and  C_12
REMARK                            x       y       z     vdW  Elec       q    Type
REMARK                         _______ _______ _______ _____ _____    ______ ____
ROOT
ATOM      1  C   UNL     1       4.238  -1.007  -2.566  0.00  0.00    +0.017 C 
ATOM      2  C   UNL     1       4.983   0.271  -2.099  0.00  0.00    +0.025 C 
ATOM      3  C   UNL     1       6.460  -0.176  -2.081  0.00  0.00    +0.088 C 
ATOM      4  N   UNL     1       6.471  -1.645  -1.967  0.00  0.00    -0.298 NA
ATOM      5  C   UNL     1       5.073  -2.122  -1.888  0.00  0.00    +0.085 C 
ATOM      6  C   UNL     1       7.174  -2.257  -3.102  0.00  0.00    +0.105 C 
ENDROOT
BRANCH   3   7
ATOM      7  C   UNL     1       7.167   0.437  -0.899  0.00  0.00    -0.012 A 
ATOM      8  C   UNL     1       7.005   1.778  -0.606  0.00  0.00    +0.115 A 
ATOM      9  N   UNL     1       7.619   2.322   0.426  0.00  0.00    -0.263 NA
ATOM     10  C   UNL     1       8.406   1.617   1.215  0.00  0.00    +0.111 A 
ATOM     11  C   UNL     1       8.615   0.269   0.985  0.00  0.00    +0.020 A 
ATOM     12  C   UNL     1       7.982  -0.338  -0.088  0.00  0.00    +0.008 A 
ENDBRANCH   3   7
TORSDOF 1
ENDMDL
MODEL 6
REMARK VINA RESULT:    -3.884      4.167      5.953
REMARK INTER + INTRA:          -4.296
REMARK INTER:                  -4.084
REMARK INTRA:                  -0.212
REMARK UNBOUND:                -0.184
REMARK  Name = Nicotine.pdb
REMARK  2 active torsions:
REMARK  status: ('A' for Active; 'I' for Inactive)
REMARK    1  A    between atoms: C_3  and  C_6
REMARK    2  A    between atoms: N_4  and  C_12
REMARK                            x       y       z     vdW  Elec       q    Type
REMARK                         _______ _______ _______ _____ _____    ______ ____
ROOT
ATOM      1  C   UNL     1       6.274  -1.929   1.573  0.00  0.00    +0.017 C 
ATOM      2  C   UNL     1       6.445  -2.474   0.130  0.00  0.00    +0.025 C 
ATOM      3  C   UNL     1       7.360  -1.422  -0.532  0.00  0.00    +0.088 C 
ATOM      4  N   UNL     1       7.221  -0.174   0.240  0.00  0.00    -0.298 NA
ATOM      5  C   UNL     1       6.246  -0.399   1.328  0.00  0.00    +0.085 C 
ATOM      6  C   UNL     1       8.518   0.262   0.775  0.00  0.00    +0.105 C 
ENDROOT
BRANCH   3   7
ATOM      7  C   UNL     1       6.931  -1.195  -1.958  0.00  0.00    -0.012 A 
ATOM      8  C   UNL     1       6.353   0.004  -2.332  0.00  0.00    +0.115 A 
ATOM      9  N   UNL     1       5.976   0.211  -3.578  0.00  0.00    -0.263 NA
ATOM     10  C   UNL     1       6.131  -0.707  -4.511  0.00  0.00    +0.111 A 
ATOM     11  C   UNL     1       6.702  -1.930  -4.213  0.00  0.00    +0.020 A 
ATOM     12  C   UNL     1       7.117  -2.182  -2.914  0.00  0.00    +0.008 A 
ENDBRANCH   3   7
TORSDOF 1
ENDMDL
MODEL 7
REMARK VINA RESULT:    -3.799      1.528      2.180
REMARK INTER + INTRA:          -4.205
REMARK INTER:                  -3.978
REMARK INTRA:                  -0.227
REMARK UNBOUND:                -0.184
REMARK  Name = Nicotine.pdb
REMARK  2 active torsions:
REMARK  status: ('A' for Active; 'I' for Inactive)
REMARK    1  A    between atoms: C_3  and  C_6
REMARK    2  A    between atoms: N_4  and  C_12
REMARK                            x       y       z     vdW  Elec       q    Type
REMARK                         _______ _______ _______ _____ _____    ______ ____
ROOT
ATOM      1  C   UNL     1       7.735   4.825   5.524  0.00  0.00    +0.017 C 
ATOM      2  C   UNL     1       8.287   4.439   4.126  0.00  0.00    +0.025 C 
ATOM      3  C   UNL     1       7.150   4.866   3.174  0.00  0.00    +0.088 C 
ATOM      4  N   UNL     1       5.911   4.921   3.969  0.00  0.00    -0.298 NA
ATOM      5  C   UNL     1       6.225   4.523   5.358  0.00  0.00    +0.085 C 
ATOM      6  C   UNL     1       5.315   6.263   3.927  0.00  0.00    +0.105 C 
ENDROOT
BRANCH   3   7
ATOM      7  C   UNL     1       7.005   3.858   2.064  0.00  0.00    -0.012 A 
ATOM      8  C   UNL     1       5.923   3.913   1.206  0.00  0.00    +0.115 A 
ATOM      9  N   UNL     1       5.788   3.035   0.232  0.00  0.00    -0.263 NA
ATOM     10  C   UNL     1       6.671   2.075   0.037  0.00  0.00    +0.111 A 
ATOM     11  C   UNL     1       7.779   1.957   0.855  0.00  0.00    +0.020 A 
ATOM     12  C   UNL     1       7.957   2.866   1.886  0.00  0.00    +0.008 A 
ENDBRANCH   3   7
TORSDOF 1
ENDMDL
MODEL 8
REMARK VINA RESULT:    -3.792      1.749      2.460
REMARK INTER + INTRA:          -4.198
REMARK INTER:                  -3.998
REMARK INTRA:                  -0.200
REMARK UNBOUND:                -0.184
REMARK  Name = Nicotine.pdb
REMARK  2 active torsions:
REMARK  status: ('A' for Active; 'I' for Inactive)
REMARK    1  A    between atoms: C_3  and  C_6
REMARK    2  A    between atoms: N_4  and  C_12
REMARK                            x       y       z     vdW  Elec       q    Type
REMARK                         _______ _______ _______ _____ _____    ______ ____
ROOT
ATOM      1  C   UNL     1       7.275   4.873   3.752  0.00  0.00    +0.017 C 
ATOM      2  C   UNL     1       8.070   3.771   3.004  0.00  0.00    +0.025 C 
ATOM      3  C   UNL     1       7.165   3.448   1.797  0.00  0.00    +0.088 C 
ATOM      4  N   UNL     1       5.797   3.869   2.152  0.00  0.00    -0.298 NA
ATOM      5  C   UNL     1       5.813   4.411   3.527  0.00  0.00    +0.085 C 
ATOM      6  C   UNL     1       5.288   4.863   1.199  0.00  0.00    +0.105 C 
ENDROOT
BRANCH   3   7
ATOM      7  C   UNL     1       7.191   1.968   1.518  0.00  0.00    -0.012 A 
ATOM      8  C   UNL     1       6.122   1.169   1.880  0.00  0.00    +0.115 A 
ATOM      9  N   UNL     1       6.137  -0.128   1.639  0.00  0.00    -0.263 NA
ATOM     10  C   UNL     1       7.161  -0.711   1.050  0.00  0.00    +0.111 A 
ATOM     11  C   UNL     1       8.266   0.023   0.660  0.00  0.00    +0.020 A 
ATOM     12  C   UNL     1       8.284   1.390   0.891  0.00  0.00    +0.008 A 
ENDBRANCH   3   7
TORSDOF 1
ENDMDL
MODEL 9
REMARK VINA RESULT:    -3.666      3.730      5.846
REMARK INTER + INTRA:          -4.065
REMARK INTER:                  -3.838
REMARK INTRA:                  -0.227
REMARK UNBOUND:                -0.184
REMARK  Name = Nicotine.pdb
REMARK  2 active torsions:
REMARK  status: ('A' for Active; 'I' for Inactive)
REMARK    1  A    between atoms: C_3  and  C_6
REMARK    2  A    between atoms: N_4  and  C_12
REMARK                            x       y       z     vdW  Elec       q    Type
REMARK                         _______ _______ _______ _____ _____    ______ ____
ROOT
ATOM      1  C   UNL     1       4.272  -3.053  -0.119  0.00  0.00    +0.017 C 
ATOM      2  C   UNL     1       5.657  -2.683   0.472  0.00  0.00    +0.025 C 
ATOM      3  C   UNL     1       5.323  -1.533   1.447  0.00  0.00    +0.088 C 
ATOM      4  N   UNL     1       4.042  -0.949   1.010  0.00  0.00    -0.298 NA
ATOM      5  C   UNL     1       3.585  -1.666  -0.200  0.00  0.00    +0.085 C 
ATOM      6  C   UNL     1       3.037  -1.024   2.078  0.00  0.00    +0.105 C 
ENDROOT
BRANCH   3   7
ATOM      7  C   UNL     1       6.407  -0.488   1.398  0.00  0.00    -0.012 A 
ATOM      8  C   UNL     1       6.230   0.733   2.020  0.00  0.00    +0.115 A 
ATOM      9  N   UNL     1       7.174   1.653   1.982  0.00  0.00    -0.263 NA
ATOM     10  C   UNL     1       8.316   1.449   1.357  0.00  0.00    +0.111 A 
ATOM     11  C   UNL     1       8.566   0.251   0.713  0.00  0.00    +0.020 A 
ATOM     12  C   UNL     1       7.598  -0.742   0.735  0.00  0.00    +0.008 A 
ENDBRANCH   3   7
TORSDOF 1
ENDMDL
MODEL 10
REMARK VINA RESULT:    -3.578      2.828      3.445
REMARK INTER + INTRA:          -3.972
REMARK INTER:                  -3.760
REMARK INTRA:                  -0.211
REMARK UNBOUND:                -0.184
REMARK  Name = Nicotine.pdb
REMARK  2 active torsions:
REMARK  status: ('A' for Active; 'I' for Inactive)
REMARK    1  A    between atoms: C_3  and  C_6
REMARK    2  A    between atoms: N_4  and  C_12
REMARK                            x       y       z     vdW  Elec       q    Type
REMARK                         _______ _______ _______ _____ _____    ______ ____
ROOT
ATOM      1  C   UNL     1       7.229   3.453   1.364  0.00  0.00    +0.017 C 
ATOM      2  C   UNL     1       6.588   2.255   0.614  0.00  0.00    +0.025 C 
ATOM      3  C   UNL     1       5.862   1.489   1.740  0.00  0.00    +0.088 C 
ATOM      4  N   UNL     1       6.507   1.865   3.011  0.00  0.00    -0.298 NA
ATOM      5  C   UNL     1       7.610   2.806   2.719  0.00  0.00    +0.085 C 
ATOM      6  C   UNL     1       5.537   2.463   3.938  0.00  0.00    +0.105 C 
ENDROOT
BRANCH   3   7
ATOM      7  C   UNL     1       5.992   0.005   1.517  0.00  0.00    -0.012 A 
ATOM      8  C   UNL     1       7.156  -0.523   0.990  0.00  0.00    +0.115 A 
ATOM      9  N   UNL     1       7.278  -1.821   0.791  0.00  0.00    -0.263 NA
ATOM     10  C   UNL     1       6.306  -2.662   1.085  0.00  0.00    +0.111 A 
ATOM     11  C   UNL     1       5.114  -2.207   1.616  0.00  0.00    +0.020 A 
ATOM     12  C   UNL     1       4.950  -0.850   1.843  0.00  0.00    +0.008 A 
ENDBRANCH   3   7
TORSDOF 1
ENDMDL
