MODEL 1
REMARK VINA RESULT:    -1.990      0.000      0.000
REMARK INTER + INTRA:          -2.336
REMARK INTER:                  -2.106
REMARK INTRA:                  -0.230
REMARK UNBOUND:                -0.230
REMARK  Name = Nicotine.pdb
REMARK  2 active torsions:
REMARK  status: ('A' for Active; 'I' for Inactive)
REMARK    1  A    between atoms: C_3  and  C_6
REMARK    2  A    between atoms: N_4  and  C_12
REMARK                            x       y       z     vdW  Elec       q    Type
REMARK                         _______ _______ _______ _____ _____    ______ ____
ROOT
ATOM      1  C   UNL     1      10.004  -0.443   4.986  0.00  0.00    +0.017 C 
ATOM      2  C   UNL     1      10.861   0.787   5.385  0.00  0.00    +0.025 C 
ATOM      3  C   UNL     1       9.801   1.826   5.809  0.00  0.00    +0.088 C 
ATOM      4  N   UNL     1       8.532   1.442   5.166  0.00  0.00    -0.298 NA
ATOM      5  C   UNL     1       8.765   0.234   4.347  0.00  0.00    +0.085 C 
ATOM      6  C   UNL     1       7.483   1.206   6.167  0.00  0.00    +0.105 C 
ENDROOT
BRANCH   3   7
ATOM      7  C   UNL     1      10.216   3.199   5.349  0.00  0.00    -0.012 A 
ATOM      8  C   UNL     1      10.256   4.253   6.242  0.00  0.00    +0.115 A 
ATOM      9  N   UNL     1      10.619   5.458   5.848  0.00  0.00    -0.263 NA
ATOM     10  C   UNL     1      10.954   5.707   4.597  0.00  0.00    +0.111 A 
ATOM     11  C   UNL     1      10.938   4.702   3.647  0.00  0.00    +0.020 A 
ATOM     12  C   UNL     1      10.568   3.421   4.026  0.00  0.00    +0.008 A 
ENDBRANCH   3   7
TORSDOF 1
ENDMDL
MODEL 2
REMARK VINA RESULT:    -1.684      1.566      2.285
REMARK INTER + INTRA:          -2.013
REMARK INTER:                  -1.798
REMARK INTRA:                  -0.215
REMARK UNBOUND:                -0.230
REMARK  Name = Nicotine.pdb
REMARK  2 active torsions:
REMARK  status: ('A' for Active; 'I' for Inactive)
REMARK    1  A    between atoms: C_3  and  C_6
REMARK    2  A    between atoms: N_4  and  C_12
REMARK                            x       y       z     vdW  Elec       q    Type
REMARK                         _______ _______ _______ _____ _____    ______ ____
ROOT
ATOM      1  C   UNL     1       9.453   0.733   3.680  0.00  0.00    +0.017 C 
ATOM      2  C   UNL     1      10.224   1.782   2.836  0.00  0.00    +0.025 C 
ATOM      3  C   UNL     1      10.882   2.675   3.910  0.00  0.00    +0.088 C 
ATOM      4  N   UNL     1      10.103   2.514   5.150  0.00  0.00    -0.298 NA
ATOM      5  C   UNL     1       8.983   1.585   4.885  0.00  0.00    +0.085 C 
ATOM      6  C   UNL     1      10.949   2.020   6.244  0.00  0.00    +0.105 C 
ENDROOT
BRANCH   3   7
ATOM      7  C   UNL     1      10.852   4.115   3.468  0.00  0.00    -0.012 A 
ATOM      8  C   UNL     1      10.739   5.130   4.399  0.00  0.00    +0.115 A 
ATOM      9  N   UNL     1      10.712   6.393   4.020  0.00  0.00    -0.263 NA
ATOM     10  C   UNL     1      10.791   6.738   2.751  0.00  0.00    +0.111 A 
ATOM     11  C   UNL     1      10.907   5.778   1.762  0.00  0.00    +0.020 A 
ATOM     12  C   UNL     1      10.944   4.440   2.123  0.00  0.00    +0.008 A 
ENDBRANCH   3   7
TORSDOF 1
ENDMDL
MODEL 3
REMARK VINA RESULT:    -1.486      1.515      2.590
REMARK INTER + INTRA:          -1.803
REMARK INTER:                  -1.556
REMARK INTRA:                  -0.248
REMARK UNBOUND:                -0.230
REMARK  Name = Nicotine.pdb
REMARK  2 active torsions:
REMARK  status: ('A' for Active; 'I' for Inactive)
REMARK    1  A    between atoms: C_3  and  C_6
REMARK    2  A    between atoms: N_4  and  C_12
REMARK                            x       y       z     vdW  Elec       q    Type
REMARK                         _______ _______ _______ _____ _____    ______ ____
ROOT
ATOM      1  C   UNL     1       8.291  -1.024   5.934  0.00  0.00    +0.017 C 
ATOM      2  C   UNL     1       8.156   0.423   5.391  0.00  0.00    +0.025 C 
ATOM      3  C   UNL     1       9.476   0.628   4.618  0.00  0.00    +0.088 C 
ATOM      4  N   UNL     1      10.454  -0.334   5.158  0.00  0.00    -0.298 NA
ATOM      5  C   UNL     1       9.807  -1.102   6.243  0.00  0.00    +0.085 C 
ATOM      6  C   UNL     1      10.953  -1.227   4.105  0.00  0.00    +0.105 C 
ENDROOT
BRANCH   3   7
ATOM      7  C   UNL     1       9.975   2.036   4.819  0.00  0.00    -0.012 A 
ATOM      8  C   UNL     1      10.515   2.743   3.762  0.00  0.00    +0.115 A 
ATOM      9  N   UNL     1      10.953   3.976   3.929  0.00  0.00    -0.263 NA
ATOM     10  C   UNL     1      10.896   4.579   5.100  0.00  0.00    +0.111 A 
ATOM     11  C   UNL     1      10.368   3.934   6.203  0.00  0.00    +0.020 A 
ATOM     12  C   UNL     1       9.893   2.639   6.064  0.00  0.00    +0.008 A 
ENDBRANCH   3   7
TORSDOF 1
ENDMDL
MODEL 4
REMARK VINA RESULT:    -0.291     11.849     13.407
REMARK INTER + INTRA:          -0.538
REMARK INTER:                  -0.319
REMARK INTRA:                  -0.219
REMARK UNBOUND:                -0.230
REMARK  Name = Nicotine.pdb
REMARK  2 active torsions:
REMARK  status: ('A' for Active; 'I' for Inactive)
REMARK    1  A    between atoms: C_3  and  C_6
REMARK    2  A    between atoms: N_4  and  C_12
REMARK                            x       y       z     vdW  Elec       q    Type
REMARK                         _______ _______ _______ _____ _____    ______ ____
ROOT
ATOM      1  C   UNL     1       4.772   5.717  -7.255  0.00  0.00    +0.017 C 
ATOM      2  C   UNL     1       4.128   4.318  -7.071  0.00  0.00    +0.025 C 
ATOM      3  C   UNL     1       5.119   3.600  -6.131  0.00  0.00    +0.088 C 
ATOM      4  N   UNL     1       6.418   4.283  -6.262  0.00  0.00    -0.298 NA
ATOM      5  C   UNL     1       6.281   5.369  -7.256  0.00  0.00    +0.085 C 
ATOM      6  C   UNL     1       6.872   4.807  -4.967  0.00  0.00    +0.105 C 
ENDROOT
BRANCH   3   7
ATOM      7  C   UNL     1       5.255   2.155  -6.535  0.00  0.00    -0.012 A 
ATOM      8  C   UNL     1       6.500   1.557  -6.585  0.00  0.00    +0.115 A 
ATOM      9  N   UNL     1       6.627   0.292  -6.938  0.00  0.00    -0.263 NA
ATOM     10  C   UNL     1       5.583  -0.447  -7.256  0.00  0.00    +0.111 A 
ATOM     11  C   UNL     1       4.306   0.082  -7.229  0.00  0.00    +0.020 A 
ATOM     12  C   UNL     1       4.133   1.407  -6.858  0.00  0.00    +0.008 A 
ENDBRANCH   3   7
TORSDOF 1
ENDMDL
MODEL 5
REMARK VINA RESULT:     0.562      1.443      2.389
REMARK INTER + INTRA:           0.365
REMARK INTER:                   0.598
REMARK INTRA:                  -0.233
REMARK UNBOUND:                -0.230
REMARK  Name = Nicotine.pdb
REMARK  2 active torsions:
REMARK  status: ('A' for Active; 'I' for Inactive)
REMARK    1  A    between atoms: C_3  and  C_6
REMARK    2  A    between atoms: N_4  and  C_12
REMARK                            x       y       z     vdW  Elec       q    Type
REMARK                         _______ _______ _______ _____ _____    ______ ____
ROOT
ATOM      1  C   UNL     1       9.574   0.667   5.964  0.00  0.00    +0.017 C 
ATOM      2  C   UNL     1       9.068   2.132   6.038  0.00  0.00    +0.025 C 
ATOM      3  C   UNL     1       9.520   2.725   4.687  0.00  0.00    +0.088 C 
ATOM      4  N   UNL     1      10.635   1.895   4.197  0.00  0.00    -0.298 NA
ATOM      5  C   UNL     1      10.907   0.836   5.193  0.00  0.00    +0.085 C 
ATOM      6  C   UNL     1      10.324   1.316   2.884  0.00  0.00    +0.105 C 
ENDROOT
BRANCH   3   7
ATOM      7  C   UNL     1       9.983   4.146   4.880  0.00  0.00    -0.012 A 
ATOM      8  C   UNL     1      10.544   4.847   3.829  0.00  0.00    +0.115 A 
ATOM      9  N   UNL     1      10.952   6.091   3.989  0.00  0.00    -0.263 NA
ATOM     10  C   UNL     1      10.843   6.712   5.147  0.00  0.00    +0.111 A 
ATOM     11  C   UNL     1      10.292   6.075   6.243  0.00  0.00    +0.020 A 
ATOM     12  C   UNL     1       9.847   4.768   6.111  0.00  0.00    +0.008 A 
ENDBRANCH   3   7
TORSDOF 1
ENDMDL
