MODEL 1
REMARK VINA RESULT:    -0.117      0.000      0.000
REMARK INTER + INTRA:          -0.319
REMARK INTER:                  -0.124
REMARK INTRA:                  -0.195
REMARK UNBOUND:                -0.195
REMARK  Name = Nicotine.pdb
REMARK  2 active torsions:
REMARK  status: ('A' for Active; 'I' for Inactive)
REMARK    1  A    between atoms: C_3  and  C_6
REMARK    2  A    between atoms: N_4  and  C_12
REMARK                            x       y       z     vdW  Elec       q    Type
REMARK                         _______ _______ _______ _____ _____    ______ ____
ROOT
ATOM      1  C   UNL     1       0.210  -4.643   3.291  0.00  0.00    +0.017 C 
ATOM      2  C   UNL     1      -0.140  -3.925   1.961  0.00  0.00    +0.025 C 
ATOM      3  C   UNL     1      -1.435  -4.634   1.514  0.00  0.00    +0.088 C 
ATOM      4  N   UNL     1      -1.464  -5.951   2.177  0.00  0.00    -0.298 NA
ATOM      5  C   UNL     1      -0.237  -6.095   2.989  0.00  0.00    +0.085 C 
ATOM      6  C   UNL     1      -2.666  -6.097   3.007  0.00  0.00    +0.105 C 
ENDROOT
BRANCH   3   7
ATOM      7  C   UNL     1      -1.432  -4.812   0.018  0.00  0.00    -0.012 A 
ATOM      8  C   UNL     1      -1.924  -3.817  -0.806  0.00  0.00    +0.115 A 
ATOM      9  N   UNL     1      -1.925  -3.964  -2.116  0.00  0.00    -0.263 NA
ATOM     10  C   UNL     1      -1.462  -5.057  -2.691  0.00  0.00    +0.111 A 
ATOM     11  C   UNL     1      -0.954  -6.095  -1.932  0.00  0.00    +0.020 A 
ATOM     12  C   UNL     1      -0.931  -5.973  -0.551  0.00  0.00    +0.008 A 
ENDBRANCH   3   7
TORSDOF 1
ENDMDL
MODEL 2
REMARK VINA RESULT:     0.288      1.635      4.411
REMARK INTER + INTRA:           0.110
REMARK INTER:                   0.295
REMARK INTRA:                  -0.185
REMARK UNBOUND:                -0.195
REMARK  Name = Nicotine.pdb
REMARK  2 active torsions:
REMARK  status: ('A' for Active; 'I' for Inactive)
REMARK    1  A    between atoms: C_3  and  C_6
REMARK    2  A    between atoms: N_4  and  C_12
REMARK                            x       y       z     vdW  Elec       q    Type
REMARK                         _______ _______ _______ _____ _____    ______ ____
ROOT
ATOM      1  C   UNL     1      -1.416  -4.561  -2.144  0.00  0.00    +0.017 C 
ATOM      2  C   UNL     1      -0.462  -5.379  -1.233  0.00  0.00    +0.025 C 
ATOM      3  C   UNL     1      -1.427  -6.041  -0.226  0.00  0.00    +0.088 C 
ATOM      4  N   UNL     1      -2.659  -5.232  -0.205  0.00  0.00    -0.298 NA
ATOM      5  C   UNL     1      -2.490  -4.092  -1.130  0.00  0.00    +0.085 C 
ATOM      6  C   UNL     1      -3.827  -6.042  -0.574  0.00  0.00    +0.105 C 
ENDROOT
BRANCH   3   7
ATOM      7  C   UNL     1      -0.801  -6.061   1.145  0.00  0.00    -0.012 A 
ATOM      8  C   UNL     1       0.574  -6.070   1.286  0.00  0.00    +0.115 A 
ATOM      9  N   UNL     1       1.129  -6.087   2.482  0.00  0.00    -0.263 NA
ATOM     10  C   UNL     1       0.403  -6.097   3.583  0.00  0.00    +0.111 A 
ATOM     11  C   UNL     1      -0.978  -6.088   3.521  0.00  0.00    +0.020 A 
ATOM     12  C   UNL     1      -1.597  -6.064   2.281  0.00  0.00    +0.008 A 
ENDBRANCH   3   7
TORSDOF 1
ENDMDL
MODEL 3
REMARK VINA RESULT:     0.400      1.321      2.102
REMARK INTER + INTRA:           0.228
REMARK INTER:                   0.432
REMARK INTRA:                  -0.203
REMARK UNBOUND:                -0.195
REMARK  Name = Nicotine.pdb
REMARK  2 active torsions:
REMARK  status: ('A' for Active; 'I' for Inactive)
REMARK    1  A    between atoms: C_3  and  C_6
REMARK    2  A    between atoms: N_4  and  C_12
REMARK                            x       y       z     vdW  Elec       q    Type
REMARK                         _______ _______ _______ _____ _____    ______ ____
ROOT
ATOM      1  C   UNL     1      -1.937  -5.816   2.897  0.00  0.00    +0.017 C 
ATOM      2  C   UNL     1      -2.586  -6.097   1.516  0.00  0.00    +0.025 C 
ATOM      3  C   UNL     1      -1.380  -6.070   0.554  0.00  0.00    +0.088 C 
ATOM      4  N   UNL     1      -0.314  -5.291   1.210  0.00  0.00    -0.298 NA
ATOM      5  C   UNL     1      -0.815  -4.817   2.518  0.00  0.00    +0.085 C 
ATOM      6  C   UNL     1       0.903  -6.096   1.372  0.00  0.00    +0.105 C 
ENDROOT
BRANCH   3   7
ATOM      7  C   UNL     1      -1.774  -5.411  -0.743  0.00  0.00    -0.012 A 
ATOM      8  C   UNL     1      -1.341  -4.132  -1.037  0.00  0.00    +0.115 A 
ATOM      9  N   UNL     1      -1.681  -3.548  -2.169  0.00  0.00    -0.263 NA
ATOM     10  C   UNL     1      -2.441  -4.153  -3.060  0.00  0.00    +0.111 A 
ATOM     11  C   UNL     1      -2.911  -5.434  -2.836  0.00  0.00    +0.020 A 
ATOM     12  C   UNL     1      -2.570  -6.082  -1.659  0.00  0.00    +0.008 A 
ENDBRANCH   3   7
TORSDOF 1
ENDMDL
MODEL 4
REMARK VINA RESULT:     0.668      1.423      4.544
REMARK INTER + INTRA:           0.512
REMARK INTER:                   0.722
REMARK INTRA:                  -0.209
REMARK UNBOUND:                -0.195
REMARK  Name = Nicotine.pdb
REMARK  2 active torsions:
REMARK  status: ('A' for Active; 'I' for Inactive)
REMARK    1  A    between atoms: C_3  and  C_6
REMARK    2  A    between atoms: N_4  and  C_12
REMARK                            x       y       z     vdW  Elec       q    Type
REMARK                         _______ _______ _______ _____ _____    ______ ____
ROOT
ATOM      1  C   UNL     1      -3.416  -6.097  -2.054  0.00  0.00    +0.017 C 
ATOM      2  C   UNL     1      -3.240  -6.081  -0.512  0.00  0.00    +0.025 C 
ATOM      3  C   UNL     1      -2.187  -4.974  -0.295  0.00  0.00    +0.088 C 
ATOM      4  N   UNL     1      -1.446  -4.821  -1.560  0.00  0.00    -0.298 NA
ATOM      5  C   UNL     1      -1.975  -5.797  -2.537  0.00  0.00    +0.085 C 
ATOM      6  C   UNL     1      -1.557  -3.449  -2.073  0.00  0.00    +0.105 C 
ENDROOT
BRANCH   3   7
ATOM      7  C   UNL     1      -1.242  -5.375   0.808  0.00  0.00    -0.012 A 
ATOM      8  C   UNL     1      -1.669  -5.389   2.123  0.00  0.00    +0.115 A 
ATOM      9  N   UNL     1      -0.848  -5.738   3.095  0.00  0.00    -0.263 NA
ATOM     10  C   UNL     1       0.401  -6.085   2.856  0.00  0.00    +0.111 A 
ATOM     11  C   UNL     1       0.898  -6.095   1.566  0.00  0.00    +0.020 A 
ATOM     12  C   UNL     1       0.064  -5.739   0.518  0.00  0.00    +0.008 A 
ENDBRANCH   3   7
TORSDOF 1
ENDMDL
MODEL 5
REMARK VINA RESULT:     0.787      1.565      2.030
REMARK INTER + INTRA:           0.638
REMARK INTER:                   0.834
REMARK INTRA:                  -0.197
REMARK UNBOUND:                -0.195
REMARK  Name = Nicotine.pdb
REMARK  2 active torsions:
REMARK  status: ('A' for Active; 'I' for Inactive)
REMARK    1  A    between atoms: C_3  and  C_6
REMARK    2  A    between atoms: N_4  and  C_12
REMARK                            x       y       z     vdW  Elec       q    Type
REMARK                         _______ _______ _______ _____ _____    ______ ____
ROOT
ATOM      1  C   UNL     1       1.211  -6.096   2.342  0.00  0.00    +0.017 C 
ATOM      2  C   UNL     1       0.882  -6.097   0.826  0.00  0.00    +0.025 C 
ATOM      3  C   UNL     1      -0.146  -4.954   0.693  0.00  0.00    +0.088 C 
ATOM      4  N   UNL     1      -0.751  -4.753   2.022  0.00  0.00    -0.298 NA
ATOM      5  C   UNL     1      -0.162  -5.733   2.960  0.00  0.00    +0.085 C 
ATOM      6  C   UNL     1      -0.539  -3.379   2.495  0.00  0.00    +0.105 C 
ENDROOT
BRANCH   3   7
ATOM      7  C   UNL     1      -1.210  -5.335  -0.303  0.00  0.00    -0.012 A 
ATOM      8  C   UNL     1      -2.452  -5.761   0.129  0.00  0.00    +0.115 A 
ATOM      9  N   UNL     1      -3.389  -6.097  -0.736  0.00  0.00    -0.263 NA
ATOM     10  C   UNL     1      -3.183  -6.041  -2.037  0.00  0.00    +0.111 A 
ATOM     11  C   UNL     1      -1.966  -5.624  -2.544  0.00  0.00    +0.020 A 
ATOM     12  C   UNL     1      -0.959  -5.258  -1.664  0.00  0.00    +0.008 A 
ENDBRANCH   3   7
TORSDOF 1
ENDMDL
