MODEL 1
REMARK VINA RESULT:    -5.182      0.000      0.000
REMARK INTER + INTRA:          -5.700
REMARK INTER:                  -5.485
REMARK INTRA:                  -0.215
REMARK UNBOUND:                -0.215
REMARK  Name = Nicotine.pdb
REMARK  2 active torsions:
REMARK  status: ('A' for Active; 'I' for Inactive)
REMARK    1  A    between atoms: C_3  and  C_6
REMARK    2  A    between atoms: N_4  and  C_12
REMARK                            x       y       z     vdW  Elec       q    Type
REMARK                         _______ _______ _______ _____ _____    ______ ____
ROOT
ATOM      1  C   UNL     1       7.537   3.753   1.880  0.00  0.00    +0.017 C 
ATOM      2  C   UNL     1       6.055   3.714   1.421  0.00  0.00    +0.025 C 
ATOM      3  C   UNL     1       5.351   4.629   2.446  0.00  0.00    +0.088 C 
ATOM      4  N   UNL     1       6.205   4.679   3.646  0.00  0.00    -0.298 NA
ATOM      5  C   UNL     1       7.386   3.820   3.420  0.00  0.00    +0.085 C 
ATOM      6  C   UNL     1       6.606   6.059   3.950  0.00  0.00    +0.105 C 
ENDROOT
BRANCH   3   7
ATOM      7  C   UNL     1       4.001   4.060   2.798  0.00  0.00    -0.012 A 
ATOM      8  C   UNL     1       3.464   4.262   4.055  0.00  0.00    +0.115 A 
ATOM      9  N   UNL     1       2.283   3.768   4.372  0.00  0.00    -0.263 NA
ATOM     10  C   UNL     1       1.572   3.066   3.511  0.00  0.00    +0.111 A 
ATOM     11  C   UNL     1       2.045   2.823   2.235  0.00  0.00    +0.020 A 
ATOM     12  C   UNL     1       3.280   3.331   1.865  0.00  0.00    +0.008 A 
ENDBRANCH   3   7
TORSDOF 1
ENDMDL
MODEL 2
REMARK VINA RESULT:    -4.524      1.392      4.287
REMARK INTER + INTRA:          -5.003
REMARK INTER:                  -4.783
REMARK INTRA:                  -0.220
REMARK UNBOUND:                -0.215
REMARK  Name = Nicotine.pdb
REMARK  2 active torsions:
REMARK  status: ('A' for Active; 'I' for Inactive)
REMARK    1  A    between atoms: C_3  and  C_6
REMARK    2  A    between atoms: N_4  and  C_12
REMARK                            x       y       z     vdW  Elec       q    Type
REMARK                         _______ _______ _______ _____ _____    ______ ____
ROOT
ATOM      1  C   UNL     1       2.200   3.644   3.873  0.00  0.00    +0.017 C 
ATOM      2  C   UNL     1       3.324   3.124   2.939  0.00  0.00    +0.025 C 
ATOM      3  C   UNL     1       4.573   3.160   3.846  0.00  0.00    +0.088 C 
ATOM      4  N   UNL     1       4.300   4.125   4.927  0.00  0.00    -0.298 NA
ATOM      5  C   UNL     1       2.955   4.702   4.714  0.00  0.00    +0.085 C 
ATOM      6  C   UNL     1       4.395   3.482   6.244  0.00  0.00    +0.105 C 
ENDROOT
BRANCH   3   7
ATOM      7  C   UNL     1       5.772   3.606   3.050  0.00  0.00    -0.012 A 
ATOM      8  C   UNL     1       6.910   4.054   3.693  0.00  0.00    +0.115 A 
ATOM      9  N   UNL     1       7.964   4.446   3.004  0.00  0.00    -0.263 NA
ATOM     10  C   UNL     1       7.977   4.426   1.686  0.00  0.00    +0.111 A 
ATOM     11  C   UNL     1       6.875   3.990   0.974  0.00  0.00    +0.020 A 
ATOM     12  C   UNL     1       5.750   3.566   1.665  0.00  0.00    +0.008 A 
ENDBRANCH   3   7
TORSDOF 1
ENDMDL
MODEL 3
REMARK VINA RESULT:    -4.502      1.389      2.427
REMARK INTER + INTRA:          -4.980
REMARK INTER:                  -4.771
REMARK INTRA:                  -0.210
REMARK UNBOUND:                -0.215
REMARK  Name = Nicotine.pdb
REMARK  2 active torsions:
REMARK  status: ('A' for Active; 'I' for Inactive)
REMARK    1  A    between atoms: C_3  and  C_6
REMARK    2  A    between atoms: N_4  and  C_12
REMARK                            x       y       z     vdW  Elec       q    Type
REMARK                         _______ _______ _______ _____ _____    ______ ____
ROOT
ATOM      1  C   UNL     1       5.394   6.852   4.937  0.00  0.00    +0.017 C 
ATOM      2  C   UNL     1       4.128   5.971   5.110  0.00  0.00    +0.025 C 
ATOM      3  C   UNL     1       4.593   4.591   4.599  0.00  0.00    +0.088 C 
ATOM      4  N   UNL     1       5.749   4.820   3.712  0.00  0.00    -0.298 NA
ATOM      5  C   UNL     1       6.001   6.275   3.634  0.00  0.00    +0.085 C 
ATOM      6  C   UNL     1       6.936   4.105   4.198  0.00  0.00    +0.105 C 
ENDROOT
BRANCH   3   7
ATOM      7  C   UNL     1       3.480   3.927   3.831  0.00  0.00    -0.012 A 
ATOM      8  C   UNL     1       2.237   3.756   4.409  0.00  0.00    +0.115 A 
ATOM      9  N   UNL     1       1.257   3.176   3.744  0.00  0.00    -0.263 NA
ATOM     10  C   UNL     1       1.420   2.739   2.511  0.00  0.00    +0.111 A 
ATOM     11  C   UNL     1       2.635   2.876   1.867  0.00  0.00    +0.020 A 
ATOM     12  C   UNL     1       3.687   3.486   2.533  0.00  0.00    +0.008 A 
ENDBRANCH   3   7
TORSDOF 1
ENDMDL
MODEL 4
REMARK VINA RESULT:    -4.214      1.962      2.747
REMARK INTER + INTRA:          -4.675
REMARK INTER:                  -4.462
REMARK INTRA:                  -0.213
REMARK UNBOUND:                -0.215
REMARK  Name = Nicotine.pdb
REMARK  2 active torsions:
REMARK  status: ('A' for Active; 'I' for Inactive)
REMARK    1  A    between atoms: C_3  and  C_6
REMARK    2  A    between atoms: N_4  and  C_12
REMARK                            x       y       z     vdW  Elec       q    Type
REMARK                         _______ _______ _______ _____ _____    ______ ____
ROOT
ATOM      1  C   UNL     1       8.151   3.770   0.438  0.00  0.00    +0.017 C 
ATOM      2  C   UNL     1       6.725   3.713   1.047  0.00  0.00    +0.025 C 
ATOM      3  C   UNL     1       6.902   4.413   2.411  0.00  0.00    +0.088 C 
ATOM      4  N   UNL     1       8.331   4.327   2.764  0.00  0.00    -0.298 NA
ATOM      5  C   UNL     1       9.036   3.587   1.696  0.00  0.00    +0.085 C 
ATOM      6  C   UNL     1       8.910   5.664   2.948  0.00  0.00    +0.105 C 
ENDROOT
BRANCH   3   7
ATOM      7  C   UNL     1       6.072   3.716   3.457  0.00  0.00    -0.012 A 
ATOM      8  C   UNL     1       4.704   3.600   3.300  0.00  0.00    +0.115 A 
ATOM      9  N   UNL     1       3.969   2.991   4.210  0.00  0.00    -0.263 NA
ATOM     10  C   UNL     1       4.504   2.472   5.298  0.00  0.00    +0.111 A 
ATOM     11  C   UNL     1       5.865   2.549   5.524  0.00  0.00    +0.020 A 
ATOM     12  C   UNL     1       6.670   3.178   4.586  0.00  0.00    +0.008 A 
ENDBRANCH   3   7
TORSDOF 1
ENDMDL
MODEL 5
REMARK VINA RESULT:    -4.204      1.984      3.141
REMARK INTER + INTRA:          -4.664
REMARK INTER:                  -4.441
REMARK INTRA:                  -0.223
REMARK UNBOUND:                -0.215
REMARK  Name = Nicotine.pdb
REMARK  2 active torsions:
REMARK  status: ('A' for Active; 'I' for Inactive)
REMARK    1  A    between atoms: C_3  and  C_6
REMARK    2  A    between atoms: N_4  and  C_12
REMARK                            x       y       z     vdW  Elec       q    Type
REMARK                         _______ _______ _______ _____ _____    ______ ____
ROOT
ATOM      1  C   UNL     1       9.348   3.245  -0.315  0.00  0.00    +0.017 C 
ATOM      2  C   UNL     1       7.829   3.349  -0.018  0.00  0.00    +0.025 C 
ATOM      3  C   UNL     1       7.769   4.381   1.129  0.00  0.00    +0.088 C 
ATOM      4  N   UNL     1       9.093   4.390   1.777  0.00  0.00    -0.298 NA
ATOM      5  C   UNL     1       9.955   3.397   1.102  0.00  0.00    +0.085 C 
ATOM      6  C   UNL     1       9.694   5.729   1.729  0.00  0.00    +0.105 C 
ENDROOT
BRANCH   3   7
ATOM      7  C   UNL     1       6.712   3.980   2.124  0.00  0.00    -0.012 A 
ATOM      8  C   UNL     1       7.046   3.754   3.446  0.00  0.00    +0.115 A 
ATOM      9  N   UNL     1       6.127   3.404   4.324  0.00  0.00    -0.263 NA
ATOM     10  C   UNL     1       4.862   3.255   3.982  0.00  0.00    +0.111 A 
ATOM     11  C   UNL     1       4.453   3.465   2.678  0.00  0.00    +0.020 A 
ATOM     12  C   UNL     1       5.390   3.840   1.728  0.00  0.00    +0.008 A 
ENDBRANCH   3   7
TORSDOF 1
ENDMDL
MODEL 6
REMARK VINA RESULT:    -4.098      1.839      4.759
REMARK INTER + INTRA:          -4.553
REMARK INTER:                  -4.337
REMARK INTRA:                  -0.216
REMARK UNBOUND:                -0.215
REMARK  Name = Nicotine.pdb
REMARK  2 active torsions:
REMARK  status: ('A' for Active; 'I' for Inactive)
REMARK    1  A    between atoms: C_3  and  C_6
REMARK    2  A    between atoms: N_4  and  C_12
REMARK                            x       y       z     vdW  Elec       q    Type
REMARK                         _______ _______ _______ _____ _____    ______ ____
ROOT
ATOM      1  C   UNL     1       3.821   4.164   3.156  0.00  0.00    +0.017 C 
ATOM      2  C   UNL     1       4.887   3.623   2.166  0.00  0.00    +0.025 C 
ATOM      3  C   UNL     1       6.196   3.723   2.977  0.00  0.00    +0.088 C 
ATOM      4  N   UNL     1       5.981   4.730   4.032  0.00  0.00    -0.298 NA
ATOM      5  C   UNL     1       4.613   5.273   3.893  0.00  0.00    +0.085 C 
ATOM      6  C   UNL     1       6.185   4.149   5.365  0.00  0.00    +0.105 C 
ENDROOT
BRANCH   3   7
ATOM      7  C   UNL     1       7.325   4.154   2.077  0.00  0.00    -0.012 A 
ATOM      8  C   UNL     1       8.305   5.009   2.545  0.00  0.00    +0.115 A 
ATOM      9  N   UNL     1       9.297   5.390   1.764  0.00  0.00    -0.263 NA
ATOM     10  C   UNL     1       9.394   4.977   0.516  0.00  0.00    +0.111 A 
ATOM     11  C   UNL     1       8.452   4.120  -0.022  0.00  0.00    +0.020 A 
ATOM     12  C   UNL     1       7.398   3.693   0.771  0.00  0.00    +0.008 A 
ENDBRANCH   3   7
TORSDOF 1
ENDMDL
MODEL 7
REMARK VINA RESULT:    -3.759      2.200      4.314
REMARK INTER + INTRA:          -4.193
REMARK INTER:                  -3.963
REMARK INTRA:                  -0.230
REMARK UNBOUND:                -0.215
REMARK  Name = Nicotine.pdb
REMARK  2 active torsions:
REMARK  status: ('A' for Active; 'I' for Inactive)
REMARK    1  A    between atoms: C_3  and  C_6
REMARK    2  A    between atoms: N_4  and  C_12
REMARK                            x       y       z     vdW  Elec       q    Type
REMARK                         _______ _______ _______ _____ _____    ______ ____
ROOT
ATOM      1  C   UNL     1       4.926   4.833   1.817  0.00  0.00    +0.017 C 
ATOM      2  C   UNL     1       5.462   3.484   2.365  0.00  0.00    +0.025 C 
ATOM      3  C   UNL     1       5.288   3.636   3.891  0.00  0.00    +0.088 C 
ATOM      4  N   UNL     1       5.232   5.080   4.183  0.00  0.00    -0.298 NA
ATOM      5  C   UNL     1       5.389   5.823   2.915  0.00  0.00    +0.085 C 
ATOM      6  C   UNL     1       3.973   5.435   4.850  0.00  0.00    +0.105 C 
ENDROOT
BRANCH   3   7
ATOM      7  C   UNL     1       6.459   3.012   4.605  0.00  0.00    -0.012 A 
ATOM      8  C   UNL     1       6.253   2.091   5.614  0.00  0.00    +0.115 A 
ATOM      9  N   UNL     1       7.272   1.540   6.244  0.00  0.00    -0.263 NA
ATOM     10  C   UNL     1       8.519   1.842   5.941  0.00  0.00    +0.111 A 
ATOM     11  C   UNL     1       8.803   2.755   4.943  0.00  0.00    +0.020 A 
ATOM     12  C   UNL     1       7.757   3.351   4.255  0.00  0.00    +0.008 A 
ENDBRANCH   3   7
TORSDOF 1
ENDMDL
MODEL 8
REMARK VINA RESULT:    -3.738      1.628      4.587
REMARK INTER + INTRA:          -4.171
REMARK INTER:                  -3.980
REMARK INTRA:                  -0.191
REMARK UNBOUND:                -0.215
REMARK  Name = Nicotine.pdb
REMARK  2 active torsions:
REMARK  status: ('A' for Active; 'I' for Inactive)
REMARK    1  A    between atoms: C_3  and  C_6
REMARK    2  A    between atoms: N_4  and  C_12
REMARK                            x       y       z     vdW  Elec       q    Type
REMARK                         _______ _______ _______ _____ _____    ______ ____
ROOT
ATOM      1  C   UNL     1       3.548   3.335   2.225  0.00  0.00    +0.017 C 
ATOM      2  C   UNL     1       5.010   3.724   1.878  0.00  0.00    +0.025 C 
ATOM      3  C   UNL     1       5.728   3.628   3.240  0.00  0.00    +0.088 C 
ATOM      4  N   UNL     1       4.698   3.758   4.287  0.00  0.00    -0.298 NA
ATOM      5  C   UNL     1       3.386   3.956   3.635  0.00  0.00    +0.085 C 
ATOM      6  C   UNL     1       4.681   2.577   5.160  0.00  0.00    +0.105 C 
ENDROOT
BRANCH   3   7
ATOM      7  C   UNL     1       6.736   4.740   3.369  0.00  0.00    -0.012 A 
ATOM      8  C   UNL     1       6.431   5.880   4.089  0.00  0.00    +0.115 A 
ATOM      9  N   UNL     1       7.307   6.858   4.206  0.00  0.00    -0.263 NA
ATOM     10  C   UNL     1       8.499   6.792   3.647  0.00  0.00    +0.111 A 
ATOM     11  C   UNL     1       8.875   5.683   2.912  0.00  0.00    +0.020 A 
ATOM     12  C   UNL     1       7.982   4.632   2.771  0.00  0.00    +0.008 A 
ENDBRANCH   3   7
TORSDOF 1
ENDMDL
MODEL 9
REMARK VINA RESULT:    -3.586      2.465      4.618
REMARK INTER + INTRA:          -4.010
REMARK INTER:                  -3.795
REMARK INTRA:                  -0.215
REMARK UNBOUND:                -0.215
REMARK  Name = Nicotine.pdb
REMARK  2 active torsions:
REMARK  status: ('A' for Active; 'I' for Inactive)
REMARK    1  A    between atoms: C_3  and  C_6
REMARK    2  A    between atoms: N_4  and  C_12
REMARK                            x       y       z     vdW  Elec       q    Type
REMARK                         _______ _______ _______ _____ _____    ______ ____
ROOT
ATOM      1  C   UNL     1       4.942   5.205   2.550  0.00  0.00    +0.017 C 
ATOM      2  C   UNL     1       5.814   5.027   3.821  0.00  0.00    +0.025 C 
ATOM      3  C   UNL     1       7.052   4.274   3.289  0.00  0.00    +0.088 C 
ATOM      4  N   UNL     1       6.652   3.603   2.039  0.00  0.00    -0.298 NA
ATOM      5  C   UNL     1       5.222   3.885   1.790  0.00  0.00    +0.085 C 
ATOM      6  C   UNL     1       7.482   4.050   0.912  0.00  0.00    +0.105 C 
ENDROOT
BRANCH   3   7
ATOM      7  C   UNL     1       7.504   3.252   4.299  0.00  0.00    -0.012 A 
ATOM      8  C   UNL     1       6.611   2.735   5.218  0.00  0.00    +0.115 A 
ATOM      9  N   UNL     1       6.998   1.840   6.106  0.00  0.00    -0.263 NA
ATOM     10  C   UNL     1       8.242   1.405   6.154  0.00  0.00    +0.111 A 
ATOM     11  C   UNL     1       9.191   1.876   5.267  0.00  0.00    +0.020 A 
ATOM     12  C   UNL     1       8.820   2.814   4.316  0.00  0.00    +0.008 A 
ENDBRANCH   3   7
TORSDOF 1
ENDMDL
MODEL 10
REMARK VINA RESULT:    -3.521      3.648      6.245
REMARK INTER + INTRA:          -3.941
REMARK INTER:                  -3.727
REMARK INTRA:                  -0.214
REMARK UNBOUND:                -0.215
REMARK  Name = Nicotine.pdb
REMARK  2 active torsions:
REMARK  status: ('A' for Active; 'I' for Inactive)
REMARK    1  A    between atoms: C_3  and  C_6
REMARK    2  A    between atoms: N_4  and  C_12
REMARK                            x       y       z     vdW  Elec       q    Type
REMARK                         _______ _______ _______ _____ _____    ______ ____
ROOT
ATOM      1  C   UNL     1       8.933   5.367   2.474  0.00  0.00    +0.017 C 
ATOM      2  C   UNL     1       9.425   5.147   1.019  0.00  0.00    +0.025 C 
ATOM      3  C   UNL     1       8.305   4.284   0.400  0.00  0.00    +0.088 C 
ATOM      4  N   UNL     1       7.601   3.620   1.511  0.00  0.00    -0.298 NA
ATOM      5  C   UNL     1       8.249   4.011   2.781  0.00  0.00    +0.085 C 
ATOM      6  C   UNL     1       6.175   3.971   1.518  0.00  0.00    +0.105 C 
ENDROOT
BRANCH   3   7
ATOM      7  C   UNL     1       8.902   3.252  -0.521  0.00  0.00    -0.012 A 
ATOM      8  C   UNL     1      10.181   2.776  -0.301  0.00  0.00    +0.115 A 
ATOM      9  N   UNL     1      10.711   1.872  -1.103  0.00  0.00    -0.263 NA
ATOM     10  C   UNL     1      10.050   1.390  -2.137  0.00  0.00    +0.111 A 
ATOM     11  C   UNL     1       8.766   1.819  -2.419  0.00  0.00    +0.020 A 
ATOM     12  C   UNL     1       8.174   2.764  -1.595  0.00  0.00    +0.008 A 
ENDBRANCH   3   7
TORSDOF 1
ENDMDL
