MODEL 1
REMARK VINA RESULT:    -3.161      0.000      0.000
REMARK INTER + INTRA:          -3.562
REMARK INTER:                  -3.345
REMARK INTRA:                  -0.216
REMARK UNBOUND:                -0.216
REMARK  Name = Nicotine.pdb
REMARK  2 active torsions:
REMARK  status: ('A' for Active; 'I' for Inactive)
REMARK    1  A    between atoms: C_3  and  C_6
REMARK    2  A    between atoms: N_4  and  C_12
REMARK                            x       y       z     vdW  Elec       q    Type
REMARK                         _______ _______ _______ _____ _____    ______ ____
ROOT
ATOM      1  C   UNL     1      10.146  -1.055  -4.145  0.00  0.00    +0.017 C 
ATOM      2  C   UNL     1       9.581   0.233  -3.491  0.00  0.00    +0.025 C 
ATOM      3  C   UNL     1       9.210   1.107  -4.708  0.00  0.00    +0.088 C 
ATOM      4  N   UNL     1      10.010   0.627  -5.850  0.00  0.00    -0.298 NA
ATOM      5  C   UNL     1      10.871  -0.482  -5.388  0.00  0.00    +0.085 C 
ATOM      6  C   UNL     1       9.144   0.197  -6.955  0.00  0.00    +0.105 C 
ENDROOT
BRANCH   3   7
ATOM      7  C   UNL     1       9.537   2.550  -4.422  0.00  0.00    -0.012 A 
ATOM      8  C   UNL     1       9.750   3.437  -5.459  0.00  0.00    +0.115 A 
ATOM      9  N   UNL     1      10.037   4.702  -5.217  0.00  0.00    -0.263 NA
ATOM     10  C   UNL     1      10.132   5.168  -3.988  0.00  0.00    +0.111 A 
ATOM     11  C   UNL     1       9.931   4.340  -2.900  0.00  0.00    +0.020 A 
ATOM     12  C   UNL     1       9.623   3.005  -3.115  0.00  0.00    +0.008 A 
ENDBRANCH   3   7
TORSDOF 1
ENDMDL
MODEL 2
REMARK VINA RESULT:    -3.125      7.470      8.522
REMARK INTER + INTRA:          -3.524
REMARK INTER:                  -3.316
REMARK INTRA:                  -0.209
REMARK UNBOUND:                -0.216
REMARK  Name = Nicotine.pdb
REMARK  2 active torsions:
REMARK  status: ('A' for Active; 'I' for Inactive)
REMARK    1  A    between atoms: C_3  and  C_6
REMARK    2  A    between atoms: N_4  and  C_12
REMARK                            x       y       z     vdW  Elec       q    Type
REMARK                         _______ _______ _______ _____ _____    ______ ____
ROOT
ATOM      1  C   UNL     1       7.952  -5.257   0.693  0.00  0.00    +0.017 C 
ATOM      2  C   UNL     1       8.066  -6.097  -0.607  0.00  0.00    +0.025 C 
ATOM      3  C   UNL     1       9.389  -5.600  -1.226  0.00  0.00    +0.088 C 
ATOM      4  N   UNL     1       9.657  -4.262  -0.669  0.00  0.00    -0.298 NA
ATOM      5  C   UNL     1       8.551  -3.901   0.243  0.00  0.00    +0.085 C 
ATOM      6  C   UNL     1      10.948  -4.231   0.030  0.00  0.00    +0.105 C 
ENDROOT
BRANCH   3   7
ATOM      7  C   UNL     1       9.254  -5.515  -2.724  0.00  0.00    -0.012 A 
ATOM      8  C   UNL     1       8.082  -5.055  -3.295  0.00  0.00    +0.115 A 
ATOM      9  N   UNL     1       7.955  -4.977  -4.606  0.00  0.00    -0.263 NA
ATOM     10  C   UNL     1       8.931  -5.331  -5.419  0.00  0.00    +0.111 A 
ATOM     11  C   UNL     1      10.132  -5.800  -4.920  0.00  0.00    +0.020 A 
ATOM     12  C   UNL     1      10.304  -5.891  -3.548  0.00  0.00    +0.008 A 
ENDBRANCH   3   7
TORSDOF 1
ENDMDL
MODEL 3
REMARK VINA RESULT:    -3.076      5.926      8.461
REMARK INTER + INTRA:          -3.472
REMARK INTER:                  -3.285
REMARK INTRA:                  -0.187
REMARK UNBOUND:                -0.216
REMARK  Name = Nicotine.pdb
REMARK  2 active torsions:
REMARK  status: ('A' for Active; 'I' for Inactive)
REMARK    1  A    between atoms: C_3  and  C_6
REMARK    2  A    between atoms: N_4  and  C_12
REMARK                            x       y       z     vdW  Elec       q    Type
REMARK                         _______ _______ _______ _____ _____    ______ ____
ROOT
ATOM      1  C   UNL     1       8.384  -5.303  -4.435  0.00  0.00    +0.017 C 
ATOM      2  C   UNL     1       7.778  -5.525  -3.024  0.00  0.00    +0.025 C 
ATOM      3  C   UNL     1       8.509  -4.472  -2.163  0.00  0.00    +0.088 C 
ATOM      4  N   UNL     1       9.763  -4.133  -2.859  0.00  0.00    -0.298 NA
ATOM      5  C   UNL     1       9.851  -4.944  -4.092  0.00  0.00    +0.085 C 
ATOM      6  C   UNL     1       9.824  -2.698  -3.166  0.00  0.00    +0.105 C 
ENDROOT
BRANCH   3   7
ATOM      7  C   UNL     1       8.814  -5.045  -0.803  0.00  0.00    -0.012 A 
ATOM      8  C   UNL     1      10.057  -5.587  -0.536  0.00  0.00    +0.115 A 
ATOM      9  N   UNL     1      10.332  -6.089   0.652  0.00  0.00    -0.263 NA
ATOM     10  C   UNL     1       9.443  -6.097   1.625  0.00  0.00    +0.111 A 
ATOM     11  C   UNL     1       8.178  -5.572   1.432  0.00  0.00    +0.020 A 
ATOM     12  C   UNL     1       7.854  -5.029   0.198  0.00  0.00    +0.008 A 
ENDBRANCH   3   7
TORSDOF 1
ENDMDL
MODEL 4
REMARK VINA RESULT:    -3.025      1.491      4.885
REMARK INTER + INTRA:          -3.418
REMARK INTER:                  -3.202
REMARK INTRA:                  -0.216
REMARK UNBOUND:                -0.216
REMARK  Name = Nicotine.pdb
REMARK  2 active torsions:
REMARK  status: ('A' for Active; 'I' for Inactive)
REMARK    1  A    between atoms: C_3  and  C_6
REMARK    2  A    between atoms: N_4  and  C_12
REMARK                            x       y       z     vdW  Elec       q    Type
REMARK                         _______ _______ _______ _____ _____    ______ ____
ROOT
ATOM      1  C   UNL     1       9.816   6.882  -2.501  0.00  0.00    +0.017 C 
ATOM      2  C   UNL     1      10.261   5.397  -2.442  0.00  0.00    +0.025 C 
ATOM      3  C   UNL     1      10.514   5.051  -3.924  0.00  0.00    +0.088 C 
ATOM      4  N   UNL     1       9.744   6.011  -4.735  0.00  0.00    -0.298 NA
ATOM      5  C   UNL     1       9.010   6.915  -3.823  0.00  0.00    +0.085 C 
ATOM      6  C   UNL     1      10.626   6.770  -5.632  0.00  0.00    +0.105 C 
ENDROOT
BRANCH   3   7
ATOM      7  C   UNL     1      10.048   3.647  -4.210  0.00  0.00    -0.012 A 
ATOM      8  C   UNL     1       9.724   3.267  -5.498  0.00  0.00    +0.115 A 
ATOM      9  N   UNL     1       9.315   2.040  -5.757  0.00  0.00    -0.263 NA
ATOM     10  C   UNL     1       9.199   1.133  -4.807  0.00  0.00    +0.111 A 
ATOM     11  C   UNL     1       9.506   1.440  -3.495  0.00  0.00    +0.020 A 
ATOM     12  C   UNL     1       9.944   2.719  -3.185  0.00  0.00    +0.008 A 
ENDBRANCH   3   7
TORSDOF 1
ENDMDL
MODEL 5
REMARK VINA RESULT:    -2.651      1.657      2.834
REMARK INTER + INTRA:          -3.022
REMARK INTER:                  -2.766
REMARK INTRA:                  -0.256
REMARK UNBOUND:                -0.216
REMARK  Name = Nicotine.pdb
REMARK  2 active torsions:
REMARK  status: ('A' for Active; 'I' for Inactive)
REMARK    1  A    between atoms: C_3  and  C_6
REMARK    2  A    between atoms: N_4  and  C_12
REMARK                            x       y       z     vdW  Elec       q    Type
REMARK                         _______ _______ _______ _____ _____    ______ ____
ROOT
ATOM      1  C   UNL     1       9.881   1.681  -6.623  0.00  0.00    +0.017 C 
ATOM      2  C   UNL     1      10.714   2.819  -5.978  0.00  0.00    +0.025 C 
ATOM      3  C   UNL     1      10.521   2.576  -4.466  0.00  0.00    +0.088 C 
ATOM      4  N   UNL     1       9.281   1.795  -4.304  0.00  0.00    -0.298 NA
ATOM      5  C   UNL     1       8.690   1.568  -5.640  0.00  0.00    +0.085 C 
ATOM      6  C   UNL     1       9.546   0.522  -3.621  0.00  0.00    +0.105 C 
ENDROOT
BRANCH   3   7
ATOM      7  C   UNL     1      10.395   3.894  -3.746  0.00  0.00    -0.012 A 
ATOM      8  C   UNL     1      10.678   3.983  -2.396  0.00  0.00    +0.115 A 
ATOM      9  N   UNL     1      10.571   5.132  -1.759  0.00  0.00    -0.263 NA
ATOM     10  C   UNL     1      10.193   6.234  -2.376  0.00  0.00    +0.111 A 
ATOM     11  C   UNL     1       9.895   6.223  -3.726  0.00  0.00    +0.020 A 
ATOM     12  C   UNL     1      10.001   5.033  -4.430  0.00  0.00    +0.008 A 
ENDBRANCH   3   7
TORSDOF 1
ENDMDL
MODEL 6
REMARK VINA RESULT:    -2.646      1.573      4.607
REMARK INTER + INTRA:          -3.017
REMARK INTER:                  -2.762
REMARK INTRA:                  -0.256
REMARK UNBOUND:                -0.216
REMARK  Name = Nicotine.pdb
REMARK  2 active torsions:
REMARK  status: ('A' for Active; 'I' for Inactive)
REMARK    1  A    between atoms: C_3  and  C_6
REMARK    2  A    between atoms: N_4  and  C_12
REMARK                            x       y       z     vdW  Elec       q    Type
REMARK                         _______ _______ _______ _____ _____    ______ ____
ROOT
ATOM      1  C   UNL     1       9.497   3.181  -7.256  0.00  0.00    +0.017 C 
ATOM      2  C   UNL     1       8.874   1.873  -6.699  0.00  0.00    +0.025 C 
ATOM      3  C   UNL     1       9.290   1.898  -5.212  0.00  0.00    +0.088 C 
ATOM      4  N   UNL     1      10.471   2.772  -5.103  0.00  0.00    -0.298 NA
ATOM      5  C   UNL     1      10.818   3.266  -6.452  0.00  0.00    +0.085 C 
ATOM      6  C   UNL     1      10.218   3.888  -4.182  0.00  0.00    +0.105 C 
ENDROOT
BRANCH   3   7
ATOM      7  C   UNL     1       9.636   0.505  -4.754  0.00  0.00    -0.012 A 
ATOM      8  C   UNL     1       9.499   0.152  -3.425  0.00  0.00    +0.115 A 
ATOM      9  N   UNL     1       9.800  -1.065  -3.015  0.00  0.00    -0.263 NA
ATOM     10  C   UNL     1      10.241  -1.987  -3.848  0.00  0.00    +0.111 A 
ATOM     11  C   UNL     1      10.403  -1.707  -5.192  0.00  0.00    +0.020 A 
ATOM     12  C   UNL     1      10.092  -0.440  -5.660  0.00  0.00    +0.008 A 
ENDBRANCH   3   7
TORSDOF 1
ENDMDL
MODEL 7
REMARK VINA RESULT:    -2.635      1.964      5.111
REMARK INTER + INTRA:          -3.005
REMARK INTER:                  -2.790
REMARK INTRA:                  -0.215
REMARK UNBOUND:                -0.216
REMARK  Name = Nicotine.pdb
REMARK  2 active torsions:
REMARK  status: ('A' for Active; 'I' for Inactive)
REMARK    1  A    between atoms: C_3  and  C_6
REMARK    2  A    between atoms: N_4  and  C_12
REMARK                            x       y       z     vdW  Elec       q    Type
REMARK                         _______ _______ _______ _____ _____    ______ ____
ROOT
ATOM      1  C   UNL     1       9.560   2.370  -4.217  0.00  0.00    +0.017 C 
ATOM      2  C   UNL     1      10.202   1.141  -3.520  0.00  0.00    +0.025 C 
ATOM      3  C   UNL     1      10.467   0.175  -4.695  0.00  0.00    +0.088 C 
ATOM      4  N   UNL     1       9.557   0.558  -5.789  0.00  0.00    -0.298 NA
ATOM      5  C   UNL     1       8.728   1.696  -5.336  0.00  0.00    +0.085 C 
ATOM      6  C   UNL     1      10.308   0.903  -7.003  0.00  0.00    +0.105 C 
ENDROOT
BRANCH   3   7
ATOM      7  C   UNL     1      10.187  -1.242  -4.266  0.00  0.00    -0.012 A 
ATOM      8  C   UNL     1       9.486  -1.494  -3.102  0.00  0.00    +0.115 A 
ATOM      9  N   UNL     1       9.237  -2.732  -2.719  0.00  0.00    -0.263 NA
ATOM     10  C   UNL     1       9.643  -3.770  -3.423  0.00  0.00    +0.111 A 
ATOM     11  C   UNL     1      10.349  -3.595  -4.599  0.00  0.00    +0.020 A 
ATOM     12  C   UNL     1      10.625  -2.309  -5.036  0.00  0.00    +0.008 A 
ENDBRANCH   3   7
TORSDOF 1
ENDMDL
MODEL 8
REMARK VINA RESULT:    -2.460      5.661      6.928
REMARK INTER + INTRA:          -2.821
REMARK INTER:                  -2.627
REMARK INTRA:                  -0.194
REMARK UNBOUND:                -0.216
REMARK  Name = Nicotine.pdb
REMARK  2 active torsions:
REMARK  status: ('A' for Active; 'I' for Inactive)
REMARK    1  A    between atoms: C_3  and  C_6
REMARK    2  A    between atoms: N_4  and  C_12
REMARK                            x       y       z     vdW  Elec       q    Type
REMARK                         _______ _______ _______ _____ _____    ______ ____
ROOT
ATOM      1  C   UNL     1      10.369  -2.905  -7.177  0.00  0.00    +0.017 C 
ATOM      2  C   UNL     1      10.634  -2.856  -5.649  0.00  0.00    +0.025 C 
ATOM      3  C   UNL     1      10.294  -4.290  -5.192  0.00  0.00    +0.088 C 
ATOM      4  N   UNL     1       9.398  -4.873  -6.207  0.00  0.00    -0.298 NA
ATOM      5  C   UNL     1       9.150  -3.858  -7.253  0.00  0.00    +0.085 C 
ATOM      6  C   UNL     1       9.977  -6.093  -6.783  0.00  0.00    +0.105 C 
ENDROOT
BRANCH   3   7
ATOM      7  C   UNL     1       9.600  -4.251  -3.855  0.00  0.00    -0.012 A 
ATOM      8  C   UNL     1       9.500  -3.065  -3.154  0.00  0.00    +0.115 A 
ATOM      9  N   UNL     1       8.894  -3.022  -1.983  0.00  0.00    -0.263 NA
ATOM     10  C   UNL     1       8.364  -4.098  -1.438  0.00  0.00    +0.111 A 
ATOM     11  C   UNL     1       8.424  -5.321  -2.081  0.00  0.00    +0.020 A 
ATOM     12  C   UNL     1       9.049  -5.403  -3.316  0.00  0.00    +0.008 A 
ENDBRANCH   3   7
TORSDOF 1
ENDMDL
MODEL 9
REMARK VINA RESULT:    -2.354      2.041      5.177
REMARK INTER + INTRA:          -2.708
REMARK INTER:                  -2.487
REMARK INTRA:                  -0.221
REMARK UNBOUND:                -0.216
REMARK  Name = Nicotine.pdb
REMARK  2 active torsions:
REMARK  status: ('A' for Active; 'I' for Inactive)
REMARK    1  A    between atoms: C_3  and  C_6
REMARK    2  A    between atoms: N_4  and  C_12
REMARK                            x       y       z     vdW  Elec       q    Type
REMARK                         _______ _______ _______ _____ _____    ______ ____
ROOT
ATOM      1  C   UNL     1       9.399   1.645  -3.594  0.00  0.00    +0.017 C 
ATOM      2  C   UNL     1       9.953   0.196  -3.587  0.00  0.00    +0.025 C 
ATOM      3  C   UNL     1      10.531   0.038  -5.009  0.00  0.00    +0.088 C 
ATOM      4  N   UNL     1       9.859   1.031  -5.867  0.00  0.00    -0.298 NA
ATOM      5  C   UNL     1       8.878   1.773  -5.048  0.00  0.00    +0.085 C 
ATOM      6  C   UNL     1      10.832   1.944  -6.480  0.00  0.00    +0.105 C 
ENDROOT
BRANCH   3   7
ATOM      7  C   UNL     1      10.259  -1.352  -5.522  0.00  0.00    -0.012 A 
ATOM      8  C   UNL     1       9.732  -1.541  -6.786  0.00  0.00    +0.115 A 
ATOM      9  N   UNL     1       9.492  -2.755  -7.242  0.00  0.00    -0.263 NA
ATOM     10  C   UNL     1       9.741  -3.829  -6.519  0.00  0.00    +0.111 A 
ATOM     11  C   UNL     1      10.269  -3.719  -5.246  0.00  0.00    +0.020 A 
ATOM     12  C   UNL     1      10.540  -2.459  -4.735  0.00  0.00    +0.008 A 
ENDBRANCH   3   7
TORSDOF 1
ENDMDL
MODEL 10
REMARK VINA RESULT:    -2.309      1.315      4.401
REMARK INTER + INTRA:          -2.661
REMARK INTER:                  -2.459
REMARK INTRA:                  -0.202
REMARK UNBOUND:                -0.216
REMARK  Name = Nicotine.pdb
REMARK  2 active torsions:
REMARK  status: ('A' for Active; 'I' for Inactive)
REMARK    1  A    between atoms: C_3  and  C_6
REMARK    2  A    between atoms: N_4  and  C_12
REMARK                            x       y       z     vdW  Elec       q    Type
REMARK                         _______ _______ _______ _____ _____    ______ ____
ROOT
ATOM      1  C   UNL     1      10.691   3.961  -2.284  0.00  0.00    +0.017 C 
ATOM      2  C   UNL     1      10.891   2.658  -3.101  0.00  0.00    +0.025 C 
ATOM      3  C   UNL     1      10.841   3.152  -4.562  0.00  0.00    +0.088 C 
ATOM      4  N   UNL     1      10.117   4.436  -4.564  0.00  0.00    -0.298 NA
ATOM      5  C   UNL     1       9.698   4.743  -3.180  0.00  0.00    +0.085 C 
ATOM      6  C   UNL     1      10.954   5.512  -5.112  0.00  0.00    +0.105 C 
ENDROOT
BRANCH   3   7
ATOM      7  C   UNL     1      10.111   2.150  -5.418  0.00  0.00    -0.012 A 
ATOM      8  C   UNL     1      10.421   0.805  -5.338  0.00  0.00    +0.115 A 
ATOM      9  N   UNL     1       9.787  -0.079  -6.084  0.00  0.00    -0.263 NA
ATOM     10  C   UNL     1       8.841   0.278  -6.929  0.00  0.00    +0.111 A 
ATOM     11  C   UNL     1       8.477   1.605  -7.064  0.00  0.00    +0.020 A 
ATOM     12  C   UNL     1       9.117   2.563  -6.292  0.00  0.00    +0.008 A 
ENDBRANCH   3   7
TORSDOF 1
ENDMDL
