MODEL 1
REMARK VINA RESULT:    -4.344      0.000      0.000
REMARK INTER + INTRA:          -4.851
REMARK INTER:                  -4.598
REMARK INTRA:                  -0.254
REMARK UNBOUND:                -0.254
REMARK  Name = Nicotine.pdb
REMARK  2 active torsions:
REMARK  status: ('A' for Active; 'I' for Inactive)
REMARK    1  A    between atoms: C_3  and  C_6
REMARK    2  A    between atoms: N_4  and  C_12
REMARK                            x       y       z     vdW  Elec       q    Type
REMARK                         _______ _______ _______ _____ _____    ______ ____
ROOT
ATOM      1  C   UNL     1      -2.472   6.948  -6.384  0.00  0.00    +0.017 C 
ATOM      2  C   UNL     1      -2.236   6.331  -4.980  0.00  0.00    +0.025 C 
ATOM      3  C   UNL     1      -3.236   5.156  -4.944  0.00  0.00    +0.088 C 
ATOM      4  N   UNL     1      -4.289   5.449  -5.932  0.00  0.00    -0.298 NA
ATOM      5  C   UNL     1      -4.000   6.758  -6.556  0.00  0.00    +0.085 C 
ATOM      6  C   UNL     1      -4.371   4.389  -6.946  0.00  0.00    +0.105 C 
ENDROOT
BRANCH   3   7
ATOM      7  C   UNL     1      -3.839   5.039  -3.568  0.00  0.00    -0.012 A 
ATOM      8  C   UNL     1      -4.189   3.801  -3.062  0.00  0.00    +0.115 A 
ATOM      9  N   UNL     1      -4.718   3.689  -1.859  0.00  0.00    -0.263 NA
ATOM     10  C   UNL     1      -4.934   4.743  -1.096  0.00  0.00    +0.111 A 
ATOM     11  C   UNL     1      -4.609   6.013  -1.535  0.00  0.00    +0.020 A 
ATOM     12  C   UNL     1      -4.046   6.169  -2.792  0.00  0.00    +0.008 A 
ENDBRANCH   3   7
TORSDOF 1
ENDMDL
MODEL 2
REMARK VINA RESULT:    -3.771      1.379      2.334
REMARK INTER + INTRA:          -4.245
REMARK INTER:                  -4.053
REMARK INTRA:                  -0.192
REMARK UNBOUND:                -0.254
REMARK  Name = Nicotine.pdb
REMARK  2 active torsions:
REMARK  status: ('A' for Active; 'I' for Inactive)
REMARK    1  A    between atoms: C_3  and  C_6
REMARK    2  A    between atoms: N_4  and  C_12
REMARK                            x       y       z     vdW  Elec       q    Type
REMARK                         _______ _______ _______ _____ _____    ______ ____
ROOT
ATOM      1  C   UNL     1      -4.692   6.493  -6.230  0.00  0.00    +0.017 C 
ATOM      2  C   UNL     1      -5.119   6.828  -4.777  0.00  0.00    +0.025 C 
ATOM      3  C   UNL     1      -3.833   6.560  -3.966  0.00  0.00    +0.088 C 
ATOM      4  N   UNL     1      -3.001   5.637  -4.759  0.00  0.00    -0.298 NA
ATOM      5  C   UNL     1      -3.724   5.305  -6.005  0.00  0.00    +0.085 C 
ATOM      6  C   UNL     1      -1.690   6.229  -5.052  0.00  0.00    +0.105 C 
ENDROOT
BRANCH   3   7
ATOM      7  C   UNL     1      -4.183   5.929  -2.643  0.00  0.00    -0.012 A 
ATOM      8  C   UNL     1      -4.281   6.704  -1.503  0.00  0.00    +0.115 A 
ATOM      9  N   UNL     1      -4.587   6.160  -0.342  0.00  0.00    -0.263 NA
ATOM     10  C   UNL     1      -4.810   4.866  -0.220  0.00  0.00    +0.111 A 
ATOM     11  C   UNL     1      -4.732   4.028  -1.316  0.00  0.00    +0.020 A 
ATOM     12  C   UNL     1      -4.418   4.565  -2.555  0.00  0.00    +0.008 A 
ENDBRANCH   3   7
TORSDOF 1
ENDMDL
MODEL 3
REMARK VINA RESULT:    -3.152      1.411      4.648
REMARK INTER + INTRA:          -3.590
REMARK INTER:                  -3.374
REMARK INTRA:                  -0.216
REMARK UNBOUND:                -0.254
REMARK  Name = Nicotine.pdb
REMARK  2 active torsions:
REMARK  status: ('A' for Active; 'I' for Inactive)
REMARK    1  A    between atoms: C_3  and  C_6
REMARK    2  A    between atoms: N_4  and  C_12
REMARK                            x       y       z     vdW  Elec       q    Type
REMARK                         _______ _______ _______ _____ _____    ______ ____
ROOT
ATOM      1  C   UNL     1      -4.361   3.906  -1.313  0.00  0.00    +0.017 C 
ATOM      2  C   UNL     1      -3.876   3.756  -2.779  0.00  0.00    +0.025 C 
ATOM      3  C   UNL     1      -3.617   5.215  -3.210  0.00  0.00    +0.088 C 
ATOM      4  N   UNL     1      -4.414   6.081  -2.323  0.00  0.00    -0.298 NA
ATOM      5  C   UNL     1      -5.171   5.224  -1.385  0.00  0.00    +0.085 C 
ATOM      6  C   UNL     1      -3.556   7.027  -1.598  0.00  0.00    +0.105 C 
ENDROOT
BRANCH   3   7
ATOM      7  C   UNL     1      -4.045   5.411  -4.641  0.00  0.00    -0.012 A 
ATOM      8  C   UNL     1      -4.404   6.665  -5.097  0.00  0.00    +0.115 A 
ATOM      9  N   UNL     1      -4.781   6.846  -6.349  0.00  0.00    -0.263 NA
ATOM     10  C   UNL     1      -4.830   5.847  -7.208  0.00  0.00    +0.111 A 
ATOM     11  C   UNL     1      -4.485   4.565  -6.824  0.00  0.00    +0.020 A 
ATOM     12  C   UNL     1      -4.079   4.338  -5.518  0.00  0.00    +0.008 A 
ENDBRANCH   3   7
TORSDOF 1
ENDMDL
MODEL 4
REMARK VINA RESULT:    -3.093      1.487      4.439
REMARK INTER + INTRA:          -3.528
REMARK INTER:                  -3.353
REMARK INTRA:                  -0.175
REMARK UNBOUND:                -0.254
REMARK  Name = Nicotine.pdb
REMARK  2 active torsions:
REMARK  status: ('A' for Active; 'I' for Inactive)
REMARK    1  A    between atoms: C_3  and  C_6
REMARK    2  A    between atoms: N_4  and  C_12
REMARK                            x       y       z     vdW  Elec       q    Type
REMARK                         _______ _______ _______ _____ _____    ______ ____
ROOT
ATOM      1  C   UNL     1      -4.886   5.418  -1.961  0.00  0.00    +0.017 C 
ATOM      2  C   UNL     1      -4.641   6.348  -3.179  0.00  0.00    +0.025 C 
ATOM      3  C   UNL     1      -4.254   5.359  -4.299  0.00  0.00    +0.088 C 
ATOM      4  N   UNL     1      -3.767   4.130  -3.647  0.00  0.00    -0.298 NA
ATOM      5  C   UNL     1      -3.812   4.324  -2.182  0.00  0.00    +0.085 C 
ATOM      6  C   UNL     1      -4.568   2.967  -4.050  0.00  0.00    +0.105 C 
ENDROOT
BRANCH   3   7
ATOM      7  C   UNL     1      -3.165   5.954  -5.154  0.00  0.00    -0.012 A 
ATOM      8  C   UNL     1      -1.928   6.241  -4.610  0.00  0.00    +0.115 A 
ATOM      9  N   UNL     1      -0.969   6.762  -5.351  0.00  0.00    -0.263 NA
ATOM     10  C   UNL     1      -1.149   7.028  -6.630  0.00  0.00    +0.111 A 
ATOM     11  C   UNL     1      -2.361   6.767  -7.243  0.00  0.00    +0.020 A 
ATOM     12  C   UNL     1      -3.390   6.215  -6.497  0.00  0.00    +0.008 A 
ENDBRANCH   3   7
TORSDOF 1
ENDMDL
