MODEL 1
REMARK VINA RESULT:    -2.249      0.000      0.000
REMARK INTER + INTRA:          -2.591
REMARK INTER:                  -2.381
REMARK INTRA:                  -0.211
REMARK UNBOUND:                -0.211
REMARK  Name = Nicotine.pdb
REMARK  2 active torsions:
REMARK  status: ('A' for Active; 'I' for Inactive)
REMARK    1  A    between atoms: C_3  and  C_6
REMARK    2  A    between atoms: N_4  and  C_12
REMARK                            x       y       z     vdW  Elec       q    Type
REMARK                         _______ _______ _______ _____ _____    ______ ____
ROOT
ATOM      1  C   UNL     1      10.382  -6.097  -1.990  0.00  0.00    +0.017 C 
ATOM      2  C   UNL     1       8.873  -5.849  -1.729  0.00  0.00    +0.025 C 
ATOM      3  C   UNL     1       8.882  -4.886  -0.524  0.00  0.00    +0.088 C 
ATOM      4  N   UNL     1      10.177  -5.055   0.160  0.00  0.00    -0.298 NA
ATOM      5  C   UNL     1      10.953  -6.093  -0.550  0.00  0.00    +0.085 C 
ATOM      6  C   UNL     1      10.916  -3.787   0.211  0.00  0.00    +0.105 C 
ENDROOT
BRANCH   3   7
ATOM      7  C   UNL     1       7.755  -5.229   0.416  0.00  0.00    -0.012 A 
ATOM      8  C   UNL     1       6.444  -4.988   0.052  0.00  0.00    +0.115 A 
ATOM      9  N   UNL     1       5.452  -5.286   0.868  0.00  0.00    -0.263 NA
ATOM     10  C   UNL     1       5.667  -5.820   2.055  0.00  0.00    +0.111 A 
ATOM     11  C   UNL     1       6.952  -6.089   2.487  0.00  0.00    +0.020 A 
ATOM     12  C   UNL     1       8.020  -5.795   1.654  0.00  0.00    +0.008 A 
ENDBRANCH   3   7
TORSDOF 1
ENDMDL
MODEL 2
REMARK VINA RESULT:    -2.184      1.397      4.353
REMARK INTER + INTRA:          -2.522
REMARK INTER:                  -2.327
REMARK INTRA:                  -0.195
REMARK UNBOUND:                -0.211
REMARK  Name = Nicotine.pdb
REMARK  2 active torsions:
REMARK  status: ('A' for Active; 'I' for Inactive)
REMARK    1  A    between atoms: C_3  and  C_6
REMARK    2  A    between atoms: N_4  and  C_12
REMARK                            x       y       z     vdW  Elec       q    Type
REMARK                         _______ _______ _______ _____ _____    ______ ____
ROOT
ATOM      1  C   UNL     1       5.279  -4.956   0.945  0.00  0.00    +0.017 C 
ATOM      2  C   UNL     1       6.186  -5.590  -0.142  0.00  0.00    +0.025 C 
ATOM      3  C   UNL     1       7.426  -6.041   0.660  0.00  0.00    +0.088 C 
ATOM      4  N   UNL     1       7.464  -5.237   1.894  0.00  0.00    -0.298 NA
ATOM      5  C   UNL     1       6.324  -4.296   1.878  0.00  0.00    +0.085 C 
ATOM      6  C   UNL     1       7.423  -6.096   3.085  0.00  0.00    +0.105 C 
ENDROOT
BRANCH   3   7
ATOM      7  C   UNL     1       8.674  -5.803  -0.149  0.00  0.00    -0.012 A 
ATOM      8  C   UNL     1       8.700  -6.097  -1.499  0.00  0.00    +0.115 A 
ATOM      9  N   UNL     1       9.789  -5.891  -2.214  0.00  0.00    -0.263 NA
ATOM     10  C   UNL     1      10.888  -5.401  -1.677  0.00  0.00    +0.111 A 
ATOM     11  C   UNL     1      10.938  -5.082  -0.332  0.00  0.00    +0.020 A 
ATOM     12  C   UNL     1       9.810  -5.280   0.450  0.00  0.00    +0.008 A 
ENDBRANCH   3   7
TORSDOF 1
ENDMDL
