MODEL 1
REMARK VINA RESULT:     3.959      0.000      0.000
REMARK INTER + INTRA:           3.952
REMARK INTER:                   4.191
REMARK INTRA:                  -0.239
REMARK UNBOUND:                -0.239
REMARK  Name = Nicotine.pdb
REMARK  2 active torsions:
REMARK  status: ('A' for Active; 'I' for Inactive)
REMARK    1  A    between atoms: C_3  and  C_6
REMARK    2  A    between atoms: N_4  and  C_12
REMARK                            x       y       z     vdW  Elec       q    Type
REMARK                         _______ _______ _______ _____ _____    ______ ____
ROOT
ATOM      1  C   UNL     1      -0.160   6.485  -5.392  0.00  0.00    +0.017 C 
ATOM      2  C   UNL     1       1.200   6.804  -4.718  0.00  0.00    +0.025 C 
ATOM      3  C   UNL     1       1.634   5.438  -4.146  0.00  0.00    +0.088 C 
ATOM      4  N   UNL     1       0.417   4.620  -3.997  0.00  0.00    -0.298 NA
ATOM      5  C   UNL     1      -0.747   5.426  -4.425  0.00  0.00    +0.085 C 
ATOM      6  C   UNL     1       0.516   3.380  -4.778  0.00  0.00    +0.105 C 
ENDROOT
BRANCH   3   7
ATOM      7  C   UNL     1       2.293   5.629  -2.805  0.00  0.00    -0.012 A 
ATOM      8  C   UNL     1       2.749   4.539  -2.088  0.00  0.00    +0.115 A 
ATOM      9  N   UNL     1       3.326   4.697  -0.913  0.00  0.00    -0.263 NA
ATOM     10  C   UNL     1       3.491   5.890  -0.377  0.00  0.00    +0.111 A 
ATOM     11  C   UNL     1       3.061   7.027  -1.036  0.00  0.00    +0.020 A 
ATOM     12  C   UNL     1       2.454   6.900  -2.276  0.00  0.00    +0.008 A 
ENDBRANCH   3   7
TORSDOF 1
ENDMDL
MODEL 2
REMARK VINA RESULT:     6.387      1.019      1.783
REMARK INTER + INTRA:           6.522
REMARK INTER:                   6.718
REMARK INTRA:                  -0.196
REMARK UNBOUND:                -0.239
REMARK  Name = Nicotine.pdb
REMARK  2 active torsions:
REMARK  status: ('A' for Active; 'I' for Inactive)
REMARK    1  A    between atoms: C_3  and  C_6
REMARK    2  A    between atoms: N_4  and  C_12
REMARK                            x       y       z     vdW  Elec       q    Type
REMARK                         _______ _______ _______ _____ _____    ______ ____
ROOT
ATOM      1  C   UNL     1      -0.669   4.242  -4.154  0.00  0.00    +0.017 C 
ATOM      2  C   UNL     1      -0.221   4.742  -2.755  0.00  0.00    +0.025 C 
ATOM      3  C   UNL     1       0.798   5.851  -3.093  0.00  0.00    +0.088 C 
ATOM      4  N   UNL     1       1.291   5.590  -4.457  0.00  0.00    -0.298 NA
ATOM      5  C   UNL     1       0.645   4.361  -4.965  0.00  0.00    +0.085 C 
ATOM      6  C   UNL     1       1.023   6.731  -5.342  0.00  0.00    +0.105 C 
ENDROOT
BRANCH   3   7
ATOM      7  C   UNL     1       1.944   5.809  -2.115  0.00  0.00    -0.012 A 
ATOM      8  C   UNL     1       2.576   4.614  -1.829  0.00  0.00    +0.115 A 
ATOM      9  N   UNL     1       3.580   4.569  -0.975  0.00  0.00    -0.263 NA
ATOM     10  C   UNL     1       4.018   5.652  -0.363  0.00  0.00    +0.111 A 
ATOM     11  C   UNL     1       3.436   6.883  -0.599  0.00  0.00    +0.020 A 
ATOM     12  C   UNL     1       2.381   6.970  -1.495  0.00  0.00    +0.008 A 
ENDBRANCH   3   7
TORSDOF 1
ENDMDL
