MODEL 1
REMARK VINA RESULT:    -3.371      0.000      0.000
REMARK INTER + INTRA:          -3.792
REMARK INTER:                  -3.569
REMARK INTRA:                  -0.223
REMARK UNBOUND:                -0.223
REMARK  Name = Nicotine.pdb
REMARK  2 active torsions:
REMARK  status: ('A' for Active; 'I' for Inactive)
REMARK    1  A    between atoms: C_3  and  C_6
REMARK    2  A    between atoms: N_4  and  C_12
REMARK                            x       y       z     vdW  Elec       q    Type
REMARK                         _______ _______ _______ _____ _____    ______ ____
ROOT
ATOM      1  C   UNL     1       8.467  -6.050   2.308  0.00  0.00    +0.017 C 
ATOM      2  C   UNL     1       9.518  -5.386   1.380  0.00  0.00    +0.025 C 
ATOM      3  C   UNL     1       8.676  -4.376   0.570  0.00  0.00    +0.088 C 
ATOM      4  N   UNL     1       7.278  -4.839   0.614  0.00  0.00    -0.298 NA
ATOM      5  C   UNL     1       7.222  -6.097   1.388  0.00  0.00    +0.085 C 
ATOM      6  C   UNL     1       6.402  -3.817   1.203  0.00  0.00    +0.105 C 
ENDROOT
BRANCH   3   7
ATOM      7  C   UNL     1       9.160  -4.332  -0.856  0.00  0.00    -0.012 A 
ATOM      8  C   UNL     1       8.296  -4.621  -1.896  0.00  0.00    +0.115 A 
ATOM      9  N   UNL     1       8.711  -4.585  -3.147  0.00  0.00    -0.263 NA
ATOM     10  C   UNL     1       9.955  -4.276  -3.456  0.00  0.00    +0.111 A 
ATOM     11  C   UNL     1      10.875  -3.975  -2.470  0.00  0.00    +0.020 A 
ATOM     12  C   UNL     1      10.474  -3.997  -1.143  0.00  0.00    +0.008 A 
ENDBRANCH   3   7
TORSDOF 1
ENDMDL
MODEL 2
REMARK VINA RESULT:    -1.916      1.393      4.677
REMARK INTER + INTRA:          -2.251
REMARK INTER:                  -2.028
REMARK INTRA:                  -0.223
REMARK UNBOUND:                -0.223
REMARK  Name = Nicotine.pdb
REMARK  2 active torsions:
REMARK  status: ('A' for Active; 'I' for Inactive)
REMARK    1  A    between atoms: C_3  and  C_6
REMARK    2  A    between atoms: N_4  and  C_12
REMARK                            x       y       z     vdW  Elec       q    Type
REMARK                         _______ _______ _______ _____ _____    ______ ____
ROOT
ATOM      1  C   UNL     1       9.041  -4.919  -3.114  0.00  0.00    +0.017 C 
ATOM      2  C   UNL     1       8.025  -4.894  -1.942  0.00  0.00    +0.025 C 
ATOM      3  C   UNL     1       8.827  -4.232  -0.802  0.00  0.00    +0.088 C 
ATOM      4  N   UNL     1      10.257  -4.418  -1.109  0.00  0.00    -0.298 NA
ATOM      5  C   UNL     1      10.372  -5.183  -2.368  0.00  0.00    +0.085 C 
ATOM      6  C   UNL     1      10.946  -3.125  -1.212  0.00  0.00    +0.105 C 
ENDROOT
BRANCH   3   7
ATOM      7  C   UNL     1       8.493  -4.893   0.511  0.00  0.00    -0.012 A 
ATOM      8  C   UNL     1       9.500  -5.361   1.334  0.00  0.00    +0.115 A 
ATOM      9  N   UNL     1       9.216  -5.940   2.484  0.00  0.00    -0.263 NA
ATOM     10  C   UNL     1       7.972  -6.097   2.893  0.00  0.00    +0.111 A 
ATOM     11  C   UNL     1       6.913  -5.654   2.123  0.00  0.00    +0.020 A 
ATOM     12  C   UNL     1       7.173  -5.035   0.910  0.00  0.00    +0.008 A 
ENDBRANCH   3   7
TORSDOF 1
ENDMDL
MODEL 3
REMARK VINA RESULT:    -1.849      1.097      1.903
REMARK INTER + INTRA:          -2.181
REMARK INTER:                  -1.994
REMARK INTRA:                  -0.187
REMARK UNBOUND:                -0.223
REMARK  Name = Nicotine.pdb
REMARK  2 active torsions:
REMARK  status: ('A' for Active; 'I' for Inactive)
REMARK    1  A    between atoms: C_3  and  C_6
REMARK    2  A    between atoms: N_4  and  C_12
REMARK                            x       y       z     vdW  Elec       q    Type
REMARK                         _______ _______ _______ _____ _____    ______ ____
ROOT
ATOM      1  C   UNL     1       6.463  -4.663   1.046  0.00  0.00    +0.017 C 
ATOM      2  C   UNL     1       6.828  -4.988  -0.426  0.00  0.00    +0.025 C 
ATOM      3  C   UNL     1       8.337  -5.304  -0.349  0.00  0.00    +0.088 C 
ATOM      4  N   UNL     1       8.856  -4.660   0.872  0.00  0.00    -0.298 NA
ATOM      5  C   UNL     1       7.745  -3.943   1.534  0.00  0.00    +0.085 C 
ATOM      6  C   UNL     1       9.458  -5.649   1.775  0.00  0.00    +0.105 C 
ENDROOT
BRANCH   3   7
ATOM      7  C   UNL     1       9.040  -4.750  -1.561  0.00  0.00    -0.012 A 
ATOM      8  C   UNL     1       8.388  -4.684  -2.778  0.00  0.00    +0.115 A 
ATOM      9  N   UNL     1       8.996  -4.200  -3.843  0.00  0.00    -0.263 NA
ATOM     10  C   UNL     1      10.239  -3.763  -3.794  0.00  0.00    +0.111 A 
ATOM     11  C   UNL     1      10.954  -3.797  -2.611  0.00  0.00    +0.020 A 
ATOM     12  C   UNL     1      10.346  -4.294  -1.469  0.00  0.00    +0.008 A 
ENDBRANCH   3   7
TORSDOF 1
ENDMDL
MODEL 4
REMARK VINA RESULT:    -0.569      2.132      3.476
REMARK INTER + INTRA:          -0.825
REMARK INTER:                  -0.624
REMARK INTRA:                  -0.201
REMARK UNBOUND:                -0.223
REMARK  Name = Nicotine.pdb
REMARK  2 active torsions:
REMARK  status: ('A' for Active; 'I' for Inactive)
REMARK    1  A    between atoms: C_3  and  C_6
REMARK    2  A    between atoms: N_4  and  C_12
REMARK                            x       y       z     vdW  Elec       q    Type
REMARK                         _______ _______ _______ _____ _____    ______ ____
ROOT
ATOM      1  C   UNL     1       7.807  -4.901  -0.837  0.00  0.00    +0.017 C 
ATOM      2  C   UNL     1       7.968  -4.954  -2.379  0.00  0.00    +0.025 C 
ATOM      3  C   UNL     1       9.493  -5.104  -2.564  0.00  0.00    +0.088 C 
ATOM      4  N   UNL     1      10.133  -4.599  -1.336  0.00  0.00    -0.298 NA
ATOM      5  C   UNL     1       9.078  -4.123  -0.416  0.00  0.00    +0.085 C 
ATOM      6  C   UNL     1      10.954  -5.640  -0.703  0.00  0.00    +0.105 C 
ENDROOT
BRANCH   3   7
ATOM      7  C   UNL     1       9.948  -4.294  -3.750  0.00  0.00    -0.012 A 
ATOM      8  C   UNL     1       9.805  -4.791  -5.032  0.00  0.00    +0.115 A 
ATOM      9  N   UNL     1      10.201  -4.089  -6.076  0.00  0.00    -0.263 NA
ATOM     10  C   UNL     1      10.743  -2.895  -5.943  0.00  0.00    +0.111 A 
ATOM     11  C   UNL     1      10.918  -2.332  -4.692  0.00  0.00    +0.020 A 
ATOM     12  C   UNL     1      10.509  -3.039  -3.571  0.00  0.00    +0.008 A 
ENDBRANCH   3   7
TORSDOF 1
ENDMDL
