MODEL 1
REMARK VINA RESULT:    11.232      0.000      0.000
REMARK INTER + INTRA:          11.664
REMARK INTER:                  11.889
REMARK INTRA:                  -0.224
REMARK UNBOUND:                -0.224
REMARK  Name = Nicotine.pdb
REMARK  2 active torsions:
REMARK  status: ('A' for Active; 'I' for Inactive)
REMARK    1  A    between atoms: C_3  and  C_6
REMARK    2  A    between atoms: N_4  and  C_12
REMARK                            x       y       z     vdW  Elec       q    Type
REMARK                         _______ _______ _______ _____ _____    ______ ____
ROOT
ATOM      1  C   UNL     1      -0.143  -3.113  -1.909  0.00  0.00    +0.017 C 
ATOM      2  C   UNL     1      -0.593  -2.768  -0.465  0.00  0.00    +0.025 C 
ATOM      3  C   UNL     1      -0.231  -1.273  -0.337  0.00  0.00    +0.088 C 
ATOM      4  N   UNL     1       0.813  -0.989  -1.338  0.00  0.00    -0.298 NA
ATOM      5  C   UNL     1       1.128  -2.241  -2.058  0.00  0.00    +0.085 C 
ATOM      6  C   UNL     1       0.378   0.060  -2.270  0.00  0.00    +0.105 C 
ENDROOT
BRANCH   3   7
ATOM      7  C   UNL     1       0.293  -0.990   1.047  0.00  0.00    -0.012 A 
ATOM      8  C   UNL     1       1.528  -0.393   1.218  0.00  0.00    +0.115 A 
ATOM      9  N   UNL     1       1.994  -0.141   2.426  0.00  0.00    -0.263 NA
ATOM     10  C   UNL     1       1.309  -0.445   3.510  0.00  0.00    +0.111 A 
ATOM     11  C   UNL     1       0.066  -1.043   3.418  0.00  0.00    +0.020 A 
ATOM     12  C   UNL     1      -0.459  -1.318   2.164  0.00  0.00    +0.008 A 
ENDBRANCH   3   7
TORSDOF 1
ENDMDL
MODEL 2
REMARK VINA RESULT:    11.883      3.270      5.064
REMARK INTER + INTRA:          12.354
REMARK INTER:                  12.608
REMARK INTRA:                  -0.254
REMARK UNBOUND:                -0.224
REMARK  Name = Nicotine.pdb
REMARK  2 active torsions:
REMARK  status: ('A' for Active; 'I' for Inactive)
REMARK    1  A    between atoms: C_3  and  C_6
REMARK    2  A    between atoms: N_4  and  C_12
REMARK                            x       y       z     vdW  Elec       q    Type
REMARK                         _______ _______ _______ _____ _____    ______ ____
ROOT
ATOM      1  C   UNL     1       1.167  -0.406   2.360  0.00  0.00    +0.017 C 
ATOM      2  C   UNL     1       0.573   0.022   3.728  0.00  0.00    +0.025 C 
ATOM      3  C   UNL     1      -0.404  -1.127   4.058  0.00  0.00    +0.088 C 
ATOM      4  N   UNL     1      -0.750  -1.784   2.785  0.00  0.00    -0.298 NA
ATOM      5  C   UNL     1      -0.055  -1.080   1.686  0.00  0.00    +0.085 C 
ATOM      6  C   UNL     1      -0.389  -3.207   2.811  0.00  0.00    +0.105 C 
ENDROOT
BRANCH   3   7
ATOM      7  C   UNL     1      -1.646  -0.573   4.706  0.00  0.00    -0.012 A 
ATOM      8  C   UNL     1      -2.336  -1.317   5.644  0.00  0.00    +0.115 A 
ATOM      9  N   UNL     1      -3.424  -0.840   6.216  0.00  0.00    -0.263 NA
ATOM     10  C   UNL     1      -3.896   0.354   5.920  0.00  0.00    +0.111 A 
ATOM     11  C   UNL     1      -3.259   1.156   4.991  0.00  0.00    +0.020 A 
ATOM     12  C   UNL     1      -2.109   0.691   4.373  0.00  0.00    +0.008 A 
ENDBRANCH   3   7
TORSDOF 1
ENDMDL
MODEL 3
REMARK VINA RESULT:    12.913      3.886      6.456
REMARK INTER + INTRA:          13.444
REMARK INTER:                  13.633
REMARK INTRA:                  -0.188
REMARK UNBOUND:                -0.224
REMARK  Name = Nicotine.pdb
REMARK  2 active torsions:
REMARK  status: ('A' for Active; 'I' for Inactive)
REMARK    1  A    between atoms: C_3  and  C_6
REMARK    2  A    between atoms: N_4  and  C_12
REMARK                            x       y       z     vdW  Elec       q    Type
REMARK                         _______ _______ _______ _____ _____    ______ ____
ROOT
ATOM      1  C   UNL     1      -4.830   0.215   6.075  0.00  0.00    +0.017 C 
ATOM      2  C   UNL     1      -3.705  -0.833   5.868  0.00  0.00    +0.025 C 
ATOM      3  C   UNL     1      -2.442   0.041   5.711  0.00  0.00    +0.088 C 
ATOM      4  N   UNL     1      -2.888   1.380   5.286  0.00  0.00    -0.298 NA
ATOM      5  C   UNL     1      -4.360   1.366   5.151  0.00  0.00    +0.085 C 
ATOM      6  C   UNL     1      -2.456   2.407   6.244  0.00  0.00    +0.105 C 
ENDROOT
BRANCH   3   7
ATOM      7  C   UNL     1      -1.534  -0.554   4.665  0.00  0.00    -0.012 A 
ATOM      8  C   UNL     1      -1.462  -1.924   4.500  0.00  0.00    +0.115 A 
ATOM      9  N   UNL     1      -0.670  -2.453   3.588  0.00  0.00    -0.263 NA
ATOM     10  C   UNL     1       0.079  -1.705   2.802  0.00  0.00    +0.111 A 
ATOM     11  C   UNL     1       0.059  -0.326   2.909  0.00  0.00    +0.020 A 
ATOM     12  C   UNL     1      -0.765   0.266   3.854  0.00  0.00    +0.008 A 
ENDBRANCH   3   7
TORSDOF 1
ENDMDL
MODEL 4
REMARK VINA RESULT:    13.192      1.348      4.662
REMARK INTER + INTRA:          13.739
REMARK INTER:                  13.951
REMARK INTRA:                  -0.212
REMARK UNBOUND:                -0.224
REMARK  Name = Nicotine.pdb
REMARK  2 active torsions:
REMARK  status: ('A' for Active; 'I' for Inactive)
REMARK    1  A    between atoms: C_3  and  C_6
REMARK    2  A    between atoms: N_4  and  C_12
REMARK                            x       y       z     vdW  Elec       q    Type
REMARK                         _______ _______ _______ _____ _____    ______ ____
ROOT
ATOM      1  C   UNL     1       1.844  -0.469   3.423  0.00  0.00    +0.017 C 
ATOM      2  C   UNL     1       1.839  -0.321   1.878  0.00  0.00    +0.025 C 
ATOM      3  C   UNL     1       0.346  -0.483   1.519  0.00  0.00    +0.088 C 
ATOM      4  N   UNL     1      -0.293  -1.214   2.628  0.00  0.00    -0.298 NA
ATOM      5  C   UNL     1       0.738  -1.532   3.639  0.00  0.00    +0.085 C 
ATOM      6  C   UNL     1      -1.385  -0.428   3.217  0.00  0.00    +0.105 C 
ENDROOT
BRANCH   3   7
ATOM      7  C   UNL     1       0.209  -1.267   0.240  0.00  0.00    -0.012 A 
ATOM      8  C   UNL     1      -0.307  -2.549   0.257  0.00  0.00    +0.115 A 
ATOM      9  N   UNL     1      -0.431  -3.242  -0.858  0.00  0.00    -0.263 NA
ATOM     10  C   UNL     1      -0.070  -2.746  -2.026  0.00  0.00    +0.111 A 
ATOM     11  C   UNL     1       0.454  -1.470  -2.121  0.00  0.00    +0.020 A 
ATOM     12  C   UNL     1       0.594  -0.710  -0.971  0.00  0.00    +0.008 A 
ENDBRANCH   3   7
TORSDOF 1
ENDMDL
MODEL 5
REMARK VINA RESULT:    13.631      1.243      2.369
REMARK INTER + INTRA:          14.204
REMARK INTER:                  14.422
REMARK INTRA:                  -0.218
REMARK UNBOUND:                -0.224
REMARK  Name = Nicotine.pdb
REMARK  2 active torsions:
REMARK  status: ('A' for Active; 'I' for Inactive)
REMARK    1  A    between atoms: C_3  and  C_6
REMARK    2  A    between atoms: N_4  and  C_12
REMARK                            x       y       z     vdW  Elec       q    Type
REMARK                         _______ _______ _______ _____ _____    ______ ____
ROOT
ATOM      1  C   UNL     1       0.964   0.254  -2.417  0.00  0.00    +0.017 C 
ATOM      2  C   UNL     1       1.572   0.248  -0.990  0.00  0.00    +0.025 C 
ATOM      3  C   UNL     1       1.190  -1.150  -0.456  0.00  0.00    +0.088 C 
ATOM      4  N   UNL     1       0.029  -1.613  -1.237  0.00  0.00    -0.298 NA
ATOM      5  C   UNL     1      -0.338  -0.559  -2.206  0.00  0.00    +0.085 C 
ATOM      6  C   UNL     1       0.325  -2.878  -1.921  0.00  0.00    +0.105 C 
ENDROOT
BRANCH   3   7
ATOM      7  C   UNL     1       0.826  -1.060   1.003  0.00  0.00    -0.012 A 
ATOM      8  C   UNL     1      -0.263  -1.753   1.496  0.00  0.00    +0.115 A 
ATOM      9  N   UNL     1      -0.589  -1.679   2.771  0.00  0.00    -0.263 NA
ATOM     10  C   UNL     1       0.104  -0.949   3.623  0.00  0.00    +0.111 A 
ATOM     11  C   UNL     1       1.207  -0.229   3.203  0.00  0.00    +0.020 A 
ATOM     12  C   UNL     1       1.583  -0.286   1.870  0.00  0.00    +0.008 A 
ENDBRANCH   3   7
TORSDOF 1
ENDMDL
