MODEL 1
REMARK VINA RESULT:    -3.516      0.000      0.000
REMARK INTER + INTRA:          -3.976
REMARK INTER:                  -3.721
REMARK INTRA:                  -0.255
REMARK UNBOUND:                -0.255
REMARK  Name = Nicotine.pdb
REMARK  2 active torsions:
REMARK  status: ('A' for Active; 'I' for Inactive)
REMARK    1  A    between atoms: C_3  and  C_6
REMARK    2  A    between atoms: N_4  and  C_12
REMARK                            x       y       z     vdW  Elec       q    Type
REMARK                         _______ _______ _______ _____ _____    ______ ____
ROOT
ATOM      1  C   UNL     1       1.949  -1.928  -5.885  0.00  0.00    +0.017 C 
ATOM      2  C   UNL     1       0.453  -2.313  -6.029  0.00  0.00    +0.025 C 
ATOM      3  C   UNL     1      -0.207  -0.986  -6.460  0.00  0.00    +0.088 C 
ATOM      4  N   UNL     1       0.686   0.106  -6.030  0.00  0.00    -0.298 NA
ATOM      5  C   UNL     1       1.849  -0.484  -5.333  0.00  0.00    +0.085 C 
ATOM      6  C   UNL     1       1.114   0.919  -7.176  0.00  0.00    +0.105 C 
ENDROOT
BRANCH   3   7
ATOM      7  C   UNL     1      -1.551  -0.842  -5.795  0.00  0.00    -0.012 A 
ATOM      8  C   UNL     1      -2.552  -0.100  -6.395  0.00  0.00    +0.115 A 
ATOM      9  N   UNL     1      -3.732   0.031  -5.820  0.00  0.00    -0.263 NA
ATOM     10  C   UNL     1      -4.004  -0.534  -4.661  0.00  0.00    +0.111 A 
ATOM     11  C   UNL     1      -3.053  -1.292  -4.002  0.00  0.00    +0.020 A 
ATOM     12  C   UNL     1      -1.803  -1.456  -4.578  0.00  0.00    +0.008 A 
ENDBRANCH   3   7
TORSDOF 1
ENDMDL
MODEL 2
REMARK VINA RESULT:    -3.425      1.220      4.376
REMARK INTER + INTRA:          -3.880
REMARK INTER:                  -3.644
REMARK INTRA:                  -0.236
REMARK UNBOUND:                -0.255
REMARK  Name = Nicotine.pdb
REMARK  2 active torsions:
REMARK  status: ('A' for Active; 'I' for Inactive)
REMARK    1  A    between atoms: C_3  and  C_6
REMARK    2  A    between atoms: N_4  and  C_12
REMARK                            x       y       z     vdW  Elec       q    Type
REMARK                         _______ _______ _______ _____ _____    ______ ____
ROOT
ATOM      1  C   UNL     1      -3.721  -1.151  -4.742  0.00  0.00    +0.017 C 
ATOM      2  C   UNL     1      -2.260  -1.360  -4.264  0.00  0.00    +0.025 C 
ATOM      3  C   UNL     1      -1.438  -0.577  -5.309  0.00  0.00    +0.088 C 
ATOM      4  N   UNL     1      -2.268  -0.460  -6.521  0.00  0.00    -0.298 NA
ATOM      5  C   UNL     1      -3.550  -1.156  -6.282  0.00  0.00    +0.085 C 
ATOM      6  C   UNL     1      -2.490   0.948  -6.875  0.00  0.00    +0.105 C 
ENDROOT
BRANCH   3   7
ATOM      7  C   UNL     1      -0.167  -1.322  -5.626  0.00  0.00    -0.012 A 
ATOM      8  C   UNL     1       1.049  -0.665  -5.622  0.00  0.00    +0.115 A 
ATOM      9  N   UNL     1       2.165  -1.310  -5.898  0.00  0.00    -0.263 NA
ATOM     10  C   UNL     1       2.169  -2.596  -6.187  0.00  0.00    +0.111 A 
ATOM     11  C   UNL     1       0.992  -3.320  -6.210  0.00  0.00    +0.020 A 
ATOM     12  C   UNL     1      -0.202  -2.677  -5.920  0.00  0.00    +0.008 A 
ENDBRANCH   3   7
TORSDOF 1
ENDMDL
MODEL 3
REMARK VINA RESULT:    -3.360      1.166      1.861
REMARK INTER + INTRA:          -3.812
REMARK INTER:                  -3.627
REMARK INTRA:                  -0.185
REMARK UNBOUND:                -0.255
REMARK  Name = Nicotine.pdb
REMARK  2 active torsions:
REMARK  status: ('A' for Active; 'I' for Inactive)
REMARK    1  A    between atoms: C_3  and  C_6
REMARK    2  A    between atoms: N_4  and  C_12
REMARK                            x       y       z     vdW  Elec       q    Type
REMARK                         _______ _______ _______ _____ _____    ______ ____
ROOT
ATOM      1  C   UNL     1       2.293   0.036  -5.881  0.00  0.00    +0.017 C 
ATOM      2  C   UNL     1       0.994   0.301  -5.075  0.00  0.00    +0.025 C 
ATOM      3  C   UNL     1       0.245  -1.044  -5.172  0.00  0.00    +0.088 C 
ATOM      4  N   UNL     1       0.764  -1.749  -6.358  0.00  0.00    -0.298 NA
ATOM      5  C   UNL     1       1.777  -0.892  -7.009  0.00  0.00    +0.085 C 
ATOM      6  C   UNL     1       1.333  -3.052  -5.990  0.00  0.00    +0.105 C 
ENDROOT
BRANCH   3   7
ATOM      7  C   UNL     1      -1.234  -0.798  -5.326  0.00  0.00    -0.012 A 
ATOM      8  C   UNL     1      -1.708  -0.019  -6.365  0.00  0.00    +0.115 A 
ATOM      9  N   UNL     1      -3.000   0.202  -6.508  0.00  0.00    -0.263 NA
ATOM     10  C   UNL     1      -3.886  -0.306  -5.674  0.00  0.00    +0.111 A 
ATOM     11  C   UNL     1      -3.486  -1.096  -4.611  0.00  0.00    +0.020 A 
ATOM     12  C   UNL     1      -2.136  -1.354  -4.433  0.00  0.00    +0.008 A 
ENDBRANCH   3   7
TORSDOF 1
ENDMDL
MODEL 4
REMARK VINA RESULT:    -3.155      1.753      2.026
REMARK INTER + INTRA:          -3.594
REMARK INTER:                  -3.385
REMARK INTRA:                  -0.209
REMARK UNBOUND:                -0.255
REMARK  Name = Nicotine.pdb
REMARK  2 active torsions:
REMARK  status: ('A' for Active; 'I' for Inactive)
REMARK    1  A    between atoms: C_3  and  C_6
REMARK    2  A    between atoms: N_4  and  C_12
REMARK                            x       y       z     vdW  Elec       q    Type
REMARK                         _______ _______ _______ _____ _____    ______ ____
ROOT
ATOM      1  C   UNL     1       2.210  -0.478  -5.306  0.00  0.00    +0.017 C 
ATOM      2  C   UNL     1       1.395  -1.690  -5.828  0.00  0.00    +0.025 C 
ATOM      3  C   UNL     1       0.168  -1.025  -6.487  0.00  0.00    +0.088 C 
ATOM      4  N   UNL     1       0.022   0.313  -5.887  0.00  0.00    -0.298 NA
ATOM      5  C   UNL     1       1.084   0.494  -4.874  0.00  0.00    +0.085 C 
ATOM      6  C   UNL     1       0.088   1.361  -6.914  0.00  0.00    +0.105 C 
ENDROOT
BRANCH   3   7
ATOM      7  C   UNL     1      -1.066  -1.847  -6.217  0.00  0.00    -0.012 A 
ATOM      8  C   UNL     1      -1.258  -3.053  -6.864  0.00  0.00    +0.115 A 
ATOM      9  N   UNL     1      -2.336  -3.778  -6.634  0.00  0.00    -0.263 NA
ATOM     10  C   UNL     1      -3.266  -3.387  -5.785  0.00  0.00    +0.111 A 
ATOM     11  C   UNL     1      -3.142  -2.192  -5.101  0.00  0.00    +0.020 A 
ATOM     12  C   UNL     1      -2.021  -1.406  -5.313  0.00  0.00    +0.008 A 
ENDBRANCH   3   7
TORSDOF 1
ENDMDL
MODEL 5
REMARK VINA RESULT:    -2.938     13.226     13.680
REMARK INTER + INTRA:          -3.365
REMARK INTER:                  -3.109
REMARK INTRA:                  -0.256
REMARK UNBOUND:                -0.255
REMARK  Name = Nicotine.pdb
REMARK  2 active torsions:
REMARK  status: ('A' for Active; 'I' for Inactive)
REMARK    1  A    between atoms: C_3  and  C_6
REMARK    2  A    between atoms: N_4  and  C_12
REMARK                            x       y       z     vdW  Elec       q    Type
REMARK                         _______ _______ _______ _____ _____    ______ ____
ROOT
ATOM      1  C   UNL     1       9.846  -6.065   1.259  0.00  0.00    +0.017 C 
ATOM      2  C   UNL     1       8.381  -5.925   1.749  0.00  0.00    +0.025 C 
ATOM      3  C   UNL     1       8.414  -4.620   2.572  0.00  0.00    +0.088 C 
ATOM      4  N   UNL     1       9.812  -4.397   2.982  0.00  0.00    -0.298 NA
ATOM      5  C   UNL     1      10.636  -5.514   2.473  0.00  0.00    +0.085 C 
ATOM      6  C   UNL     1      10.308  -3.107   2.486  0.00  0.00    +0.105 C 
ENDROOT
BRANCH   3   7
ATOM      7  C   UNL     1       7.537  -4.760   3.790  0.00  0.00    -0.012 A 
ATOM      8  C   UNL     1       7.051  -3.638   4.434  0.00  0.00    +0.115 A 
ATOM      9  N   UNL     1       6.283  -3.752   5.500  0.00  0.00    -0.263 NA
ATOM     10  C   UNL     1       5.950  -4.929   5.992  0.00  0.00    +0.111 A 
ATOM     11  C   UNL     1       6.398  -6.095   5.401  0.00  0.00    +0.020 A 
ATOM     12  C   UNL     1       7.203  -6.015   4.275  0.00  0.00    +0.008 A 
ENDBRANCH   3   7
TORSDOF 1
ENDMDL
MODEL 6
REMARK VINA RESULT:    -2.677     11.557     12.363
REMARK INTER + INTRA:          -3.089
REMARK INTER:                  -2.854
REMARK INTRA:                  -0.235
REMARK UNBOUND:                -0.255
REMARK  Name = Nicotine.pdb
REMARK  2 active torsions:
REMARK  status: ('A' for Active; 'I' for Inactive)
REMARK    1  A    between atoms: C_3  and  C_6
REMARK    2  A    between atoms: N_4  and  C_12
REMARK                            x       y       z     vdW  Elec       q    Type
REMARK                         _______ _______ _______ _____ _____    ______ ____
ROOT
ATOM      1  C   UNL     1       4.836  -2.613   5.534  0.00  0.00    +0.017 C 
ATOM      2  C   UNL     1       4.687  -1.218   6.196  0.00  0.00    +0.025 C 
ATOM      3  C   UNL     1       3.157  -1.018   6.244  0.00  0.00    +0.088 C 
ATOM      4  N   UNL     1       2.569  -1.895   5.215  0.00  0.00    -0.298 NA
ATOM      5  C   UNL     1       3.664  -2.605   4.520  0.00  0.00    +0.085 C 
ATOM      6  C   UNL     1       1.620  -2.844   5.811  0.00  0.00    +0.105 C 
ENDROOT
BRANCH   3   7
ATOM      7  C   UNL     1       2.819   0.420   5.948  0.00  0.00    -0.012 A 
ATOM      8  C   UNL     1       1.500   0.827   5.872  0.00  0.00    +0.115 A 
ATOM      9  N   UNL     1       1.195   2.084   5.614  0.00  0.00    -0.263 NA
ATOM     10  C   UNL     1       2.126   2.996   5.419  0.00  0.00    +0.111 A 
ATOM     11  C   UNL     1       3.467   2.664   5.480  0.00  0.00    +0.020 A 
ATOM     12  C   UNL     1       3.826   1.354   5.754  0.00  0.00    +0.008 A 
ENDBRANCH   3   7
TORSDOF 1
ENDMDL
MODEL 7
REMARK VINA RESULT:    -2.611      1.852      3.533
REMARK INTER + INTRA:          -3.019
REMARK INTER:                  -2.833
REMARK INTRA:                  -0.187
REMARK UNBOUND:                -0.255
REMARK  Name = Nicotine.pdb
REMARK  2 active torsions:
REMARK  status: ('A' for Active; 'I' for Inactive)
REMARK    1  A    between atoms: C_3  and  C_6
REMARK    2  A    between atoms: N_4  and  C_12
REMARK                            x       y       z     vdW  Elec       q    Type
REMARK                         _______ _______ _______ _____ _____    ______ ____
ROOT
ATOM      1  C   UNL     1       0.153  -3.475  -6.454  0.00  0.00    +0.017 C 
ATOM      2  C   UNL     1       0.438  -1.994  -6.093  0.00  0.00    +0.025 C 
ATOM      3  C   UNL     1      -0.955  -1.459  -5.697  0.00  0.00    +0.088 C 
ATOM      4  N   UNL     1      -1.955  -2.339  -6.327  0.00  0.00    -0.298 NA
ATOM      5  C   UNL     1      -1.247  -3.373  -7.110  0.00  0.00    +0.085 C 
ATOM      6  C   UNL     1      -2.830  -2.949  -5.317  0.00  0.00    +0.105 C 
ENDROOT
BRANCH   3   7
ATOM      7  C   UNL     1      -1.123  -0.048  -6.199  0.00  0.00    -0.012 A 
ATOM      8  C   UNL     1      -0.030   0.792  -6.303  0.00  0.00    +0.115 A 
ATOM      9  N   UNL     1      -0.169   2.028  -6.741  0.00  0.00    -0.263 NA
ATOM     10  C   UNL     1      -1.344   2.511  -7.094  0.00  0.00    +0.111 A 
ATOM     11  C   UNL     1      -2.482   1.729  -7.017  0.00  0.00    +0.020 A 
ATOM     12  C   UNL     1      -2.374   0.423  -6.566  0.00  0.00    +0.008 A 
ENDBRANCH   3   7
TORSDOF 1
ENDMDL
MODEL 8
REMARK VINA RESULT:    -2.429     12.823     13.691
REMARK INTER + INTRA:          -2.826
REMARK INTER:                  -2.571
REMARK INTRA:                  -0.255
REMARK UNBOUND:                -0.255
REMARK  Name = Nicotine.pdb
REMARK  2 active torsions:
REMARK  status: ('A' for Active; 'I' for Inactive)
REMARK    1  A    between atoms: C_3  and  C_6
REMARK    2  A    between atoms: N_4  and  C_12
REMARK                            x       y       z     vdW  Elec       q    Type
REMARK                         _______ _______ _______ _____ _____    ______ ____
ROOT
ATOM      1  C   UNL     1       9.632  -1.950   3.329  0.00  0.00    +0.017 C 
ATOM      2  C   UNL     1       9.042  -2.492   4.657  0.00  0.00    +0.025 C 
ATOM      3  C   UNL     1       8.519  -3.889   4.260  0.00  0.00    +0.088 C 
ATOM      4  N   UNL     1       8.305  -3.877   2.802  0.00  0.00    -0.298 NA
ATOM      5  C   UNL     1       8.646  -2.534   2.287  0.00  0.00    +0.085 C 
ATOM      6  C   UNL     1       9.108  -4.914   2.142  0.00  0.00    +0.105 C 
ENDROOT
BRANCH   3   7
ATOM      7  C   UNL     1       7.220  -4.171   4.968  0.00  0.00    -0.012 A 
ATOM      8  C   UNL     1       6.853  -5.470   5.267  0.00  0.00    +0.115 A 
ATOM      9  N   UNL     1       5.718  -5.725   5.887  0.00  0.00    -0.263 NA
ATOM     10  C   UNL     1       4.891  -4.762   6.244  0.00  0.00    +0.111 A 
ATOM     11  C   UNL     1       5.191  -3.438   5.979  0.00  0.00    +0.020 A 
ATOM     12  C   UNL     1       6.378  -3.131   5.334  0.00  0.00    +0.008 A 
ENDBRANCH   3   7
TORSDOF 1
ENDMDL
MODEL 9
REMARK VINA RESULT:    -2.174      1.984      2.405
REMARK INTER + INTRA:          -2.556
REMARK INTER:                  -2.344
REMARK INTRA:                  -0.212
REMARK UNBOUND:                -0.255
REMARK  Name = Nicotine.pdb
REMARK  2 active torsions:
REMARK  status: ('A' for Active; 'I' for Inactive)
REMARK    1  A    between atoms: C_3  and  C_6
REMARK    2  A    between atoms: N_4  and  C_12
REMARK                            x       y       z     vdW  Elec       q    Type
REMARK                         _______ _______ _______ _____ _____    ______ ____
ROOT
ATOM      1  C   UNL     1       0.834   0.419  -5.359  0.00  0.00    +0.017 C 
ATOM      2  C   UNL     1      -0.303  -0.472  -4.793  0.00  0.00    +0.025 C 
ATOM      3  C   UNL     1      -0.267  -1.708  -5.717  0.00  0.00    +0.088 C 
ATOM      4  N   UNL     1       0.382  -1.296  -6.974  0.00  0.00    -0.298 NA
ATOM      5  C   UNL     1       0.724   0.139  -6.879  0.00  0.00    +0.085 C 
ATOM      6  C   UNL     1       1.577  -2.106  -7.241  0.00  0.00    +0.105 C 
ENDROOT
BRANCH   3   7
ATOM      7  C   UNL     1      -1.671  -2.182  -5.994  0.00  0.00    -0.012 A 
ATOM      8  C   UNL     1      -2.755  -1.418  -5.606  0.00  0.00    +0.115 A 
ATOM      9  N   UNL     1      -3.987  -1.826  -5.845  0.00  0.00    -0.263 NA
ATOM     10  C   UNL     1      -4.233  -2.967  -6.457  0.00  0.00    +0.111 A 
ATOM     11  C   UNL     1      -3.199  -3.783  -6.875  0.00  0.00    +0.020 A 
ATOM     12  C   UNL     1      -1.890  -3.386  -6.646  0.00  0.00    +0.008 A 
ENDBRANCH   3   7
TORSDOF 1
ENDMDL
MODEL 10
REMARK VINA RESULT:    -2.150      1.968      4.808
REMARK INTER + INTRA:          -2.531
REMARK INTER:                  -2.323
REMARK INTRA:                  -0.208
REMARK UNBOUND:                -0.255
REMARK  Name = Nicotine.pdb
REMARK  2 active torsions:
REMARK  status: ('A' for Active; 'I' for Inactive)
REMARK    1  A    between atoms: C_3  and  C_6
REMARK    2  A    between atoms: N_4  and  C_12
REMARK                            x       y       z     vdW  Elec       q    Type
REMARK                         _______ _______ _______ _____ _____    ______ ____
ROOT
ATOM      1  C   UNL     1      -2.279  -0.941  -4.259  0.00  0.00    +0.017 C 
ATOM      2  C   UNL     1      -0.848  -0.763  -4.831  0.00  0.00    +0.025 C 
ATOM      3  C   UNL     1      -0.970  -1.335  -6.259  0.00  0.00    +0.088 C 
ATOM      4  N   UNL     1      -2.130  -2.245  -6.267  0.00  0.00    -0.298 NA
ATOM      5  C   UNL     1      -2.711  -2.280  -4.908  0.00  0.00    +0.085 C 
ATOM      6  C   UNL     1      -3.128  -1.818  -7.256  0.00  0.00    +0.105 C 
ENDROOT
BRANCH   3   7
ATOM      7  C   UNL     1       0.281  -2.094  -6.617  0.00  0.00    -0.012 A 
ATOM      8  C   UNL     1       0.263  -3.473  -6.698  0.00  0.00    +0.115 A 
ATOM      9  N   UNL     1       1.354  -4.145  -7.011  0.00  0.00    -0.263 NA
ATOM     10  C   UNL     1       2.497  -3.536  -7.256  0.00  0.00    +0.111 A 
ATOM     11  C   UNL     1       2.591  -2.158  -7.194  0.00  0.00    +0.020 A 
ATOM     12  C   UNL     1       1.464  -1.418  -6.874  0.00  0.00    +0.008 A 
ENDBRANCH   3   7
TORSDOF 1
ENDMDL
