MODEL 1
REMARK VINA RESULT:     2.810      0.000      0.000
REMARK INTER + INTRA:           2.764
REMARK INTER:                   2.974
REMARK INTRA:                  -0.210
REMARK UNBOUND:                -0.210
REMARK  Name = Nicotine.pdb
REMARK  2 active torsions:
REMARK  status: ('A' for Active; 'I' for Inactive)
REMARK    1  A    between atoms: C_3  and  C_6
REMARK    2  A    between atoms: N_4  and  C_12
REMARK                            x       y       z     vdW  Elec       q    Type
REMARK                         _______ _______ _______ _____ _____    ______ ____
ROOT
ATOM      1  C   UNL     1      -5.160   5.810  -7.256  0.00  0.00    +0.017 C 
ATOM      2  C   UNL     1      -4.488   4.412  -7.249  0.00  0.00    +0.025 C 
ATOM      3  C   UNL     1      -3.425   4.544  -6.137  0.00  0.00    +0.088 C 
ATOM      4  N   UNL     1      -3.141   5.981  -5.972  0.00  0.00    -0.298 NA
ATOM      5  C   UNL     1      -3.959   6.737  -6.945  0.00  0.00    +0.085 C 
ATOM      6  C   UNL     1      -3.419   6.418  -4.598  0.00  0.00    +0.105 C 
ENDROOT
BRANCH   3   7
ATOM      7  C   UNL     1      -2.169   3.815  -6.540  0.00  0.00    -0.012 A 
ATOM      8  C   UNL     1      -2.146   2.434  -6.582  0.00  0.00    +0.115 A 
ATOM      9  N   UNL     1      -1.051   1.788  -6.934  0.00  0.00    -0.263 NA
ATOM     10  C   UNL     1       0.057   2.426  -7.255  0.00  0.00    +0.111 A 
ATOM     11  C   UNL     1       0.109   3.808  -7.236  0.00  0.00    +0.020 A 
ATOM     12  C   UNL     1      -1.024   4.521  -6.877  0.00  0.00    +0.008 A 
ENDBRANCH   3   7
TORSDOF 1
ENDMDL
MODEL 2
REMARK VINA RESULT:     4.718      1.380      2.264
REMARK INTER + INTRA:           4.783
REMARK INTER:                   4.968
REMARK INTRA:                  -0.185
REMARK UNBOUND:                -0.210
REMARK  Name = Nicotine.pdb
REMARK  2 active torsions:
REMARK  status: ('A' for Active; 'I' for Inactive)
REMARK    1  A    between atoms: C_3  and  C_6
REMARK    2  A    between atoms: N_4  and  C_12
REMARK                            x       y       z     vdW  Elec       q    Type
REMARK                         _______ _______ _______ _____ _____    ______ ____
ROOT
ATOM      1  C   UNL     1      -3.887   6.998  -6.010  0.00  0.00    +0.017 C 
ATOM      2  C   UNL     1      -2.602   6.601  -6.784  0.00  0.00    +0.025 C 
ATOM      3  C   UNL     1      -2.911   5.164  -7.256  0.00  0.00    +0.088 C 
ATOM      4  N   UNL     1      -3.953   4.626  -6.363  0.00  0.00    -0.298 NA
ATOM      5  C   UNL     1      -4.283   5.652  -5.351  0.00  0.00    +0.085 C 
ATOM      6  C   UNL     1      -5.147   4.234  -7.124  0.00  0.00    +0.105 C 
ENDROOT
BRANCH   3   7
ATOM      7  C   UNL     1      -1.669   4.317  -7.164  0.00  0.00    -0.012 A 
ATOM      8  C   UNL     1      -0.418   4.898  -7.251  0.00  0.00    +0.115 A 
ATOM      9  N   UNL     1       0.675   4.164  -7.172  0.00  0.00    -0.263 NA
ATOM     10  C   UNL     1       0.621   2.857  -7.009  0.00  0.00    +0.111 A 
ATOM     11  C   UNL     1      -0.595   2.205  -6.913  0.00  0.00    +0.020 A 
ATOM     12  C   UNL     1      -1.765   2.945  -6.986  0.00  0.00    +0.008 A 
ENDBRANCH   3   7
TORSDOF 1
ENDMDL
MODEL 3
REMARK VINA RESULT:     5.486      1.382      4.493
REMARK INTER + INTRA:           5.597
REMARK INTER:                   5.767
REMARK INTRA:                  -0.170
REMARK UNBOUND:                -0.210
REMARK  Name = Nicotine.pdb
REMARK  2 active torsions:
REMARK  status: ('A' for Active; 'I' for Inactive)
REMARK    1  A    between atoms: C_3  and  C_6
REMARK    2  A    between atoms: N_4  and  C_12
REMARK                            x       y       z     vdW  Elec       q    Type
REMARK                         _______ _______ _______ _____ _____    ______ ____
ROOT
ATOM      1  C   UNL     1      -1.645   2.000  -6.522  0.00  0.00    +0.017 C 
ATOM      2  C   UNL     1      -2.933   2.807  -6.834  0.00  0.00    +0.025 C 
ATOM      3  C   UNL     1      -2.403   4.244  -7.026  0.00  0.00    +0.088 C 
ATOM      4  N   UNL     1      -1.108   4.330  -6.328  0.00  0.00    -0.298 NA
ATOM      5  C   UNL     1      -0.827   3.023  -5.695  0.00  0.00    +0.085 C 
ATOM      6  C   UNL     1      -0.034   4.708  -7.255  0.00  0.00    +0.105 C 
ENDROOT
BRANCH   3   7
ATOM      7  C   UNL     1      -3.374   5.232  -6.431  0.00  0.00    -0.012 A 
ATOM      8  C   UNL     1      -3.356   5.499  -5.075  0.00  0.00    +0.115 A 
ATOM      9  N   UNL     1      -4.202   6.362  -4.547  0.00  0.00    -0.263 NA
ATOM     10  C   UNL     1      -5.091   7.000  -5.282  0.00  0.00    +0.111 A 
ATOM     11  C   UNL     1      -5.168   6.785  -6.645  0.00  0.00    +0.020 A 
ATOM     12  C   UNL     1      -4.291   5.888  -7.237  0.00  0.00    +0.008 A 
ENDBRANCH   3   7
TORSDOF 1
ENDMDL
