MODEL 1
REMARK VINA RESULT:     0.000      0.000      0.000
REMARK INTER + INTRA:          -0.256
REMARK INTER:                   0.000
REMARK INTRA:                  -0.256
REMARK UNBOUND:                -0.256
REMARK  Name = Nicotine.pdb
REMARK  2 active torsions:
REMARK  status: ('A' for Active; 'I' for Inactive)
REMARK    1  A    between atoms: C_3  and  C_6
REMARK    2  A    between atoms: N_4  and  C_12
REMARK                            x       y       z     vdW  Elec       q    Type
REMARK                         _______ _______ _______ _____ _____    ______ ____
ROOT
ATOM      1  C   UNL     1      -3.510   2.807  -2.262  0.00  0.00    +0.017 C 
ATOM      2  C   UNL     1      -2.330   2.829  -3.269  0.00  0.00    +0.025 C 
ATOM      3  C   UNL     1      -1.103   3.054  -2.361  0.00  0.00    +0.088 C 
ATOM      4  N   UNL     1      -1.589   3.670  -1.114  0.00  0.00    -0.298 NA
ATOM      5  C   UNL     1      -3.052   3.858  -1.221  0.00  0.00    +0.085 C 
ATOM      6  C   UNL     1      -1.248   2.843   0.051  0.00  0.00    +0.105 C 
ENDROOT
BRANCH   3   7
ATOM      7  C   UNL     1      -0.123   3.975  -3.041  0.00  0.00    -0.012 A 
ATOM      8  C   UNL     1       1.205   3.986  -2.661  0.00  0.00    +0.115 A 
ATOM      9  N   UNL     1       2.069   4.789  -3.252  0.00  0.00    -0.263 NA
ATOM     10  C   UNL     1       1.705   5.607  -4.220  0.00  0.00    +0.111 A 
ATOM     11  C   UNL     1       0.393   5.651  -4.654  0.00  0.00    +0.020 A 
ATOM     12  C   UNL     1      -0.542   4.817  -4.060  0.00  0.00    +0.008 A 
ENDBRANCH   3   7
TORSDOF 1
ENDMDL
MODEL 2
REMARK VINA RESULT:     0.000      5.247      7.297
REMARK INTER + INTRA:          -0.256
REMARK INTER:                   0.000
REMARK INTRA:                  -0.256
REMARK UNBOUND:                -0.256
REMARK  Name = Nicotine.pdb
REMARK  2 active torsions:
REMARK  status: ('A' for Active; 'I' for Inactive)
REMARK    1  A    between atoms: C_3  and  C_6
REMARK    2  A    between atoms: N_4  and  C_12
REMARK                            x       y       z     vdW  Elec       q    Type
REMARK                         _______ _______ _______ _____ _____    ______ ____
ROOT
ATOM      1  C   UNL     1       2.422   2.509   0.876  0.00  0.00    +0.017 C 
ATOM      2  C   UNL     1       1.978   1.165   0.241  0.00  0.00    +0.025 C 
ATOM      3  C   UNL     1       0.665   0.846   0.987  0.00  0.00    +0.088 C 
ATOM      4  N   UNL     1       0.695   1.585   2.262  0.00  0.00    -0.298 NA
ATOM      5  C   UNL     1       1.974   2.322   2.348  0.00  0.00    +0.085 C 
ATOM      6  C   UNL     1      -0.449   2.499   2.368  0.00  0.00    +0.105 C 
ENDROOT
BRANCH   3   7
ATOM      7  C   UNL     1       0.573  -0.634   1.253  0.00  0.00    -0.012 A 
ATOM      8  C   UNL     1      -0.652  -1.226   1.496  0.00  0.00    +0.115 A 
ATOM      9  N   UNL     1      -0.742  -2.521   1.729  0.00  0.00    -0.263 NA
ATOM     10  C   UNL     1       0.323  -3.298   1.741  0.00  0.00    +0.111 A 
ATOM     11  C   UNL     1       1.582  -2.777   1.506  0.00  0.00    +0.020 A 
ATOM     12  C   UNL     1       1.714  -1.421   1.252  0.00  0.00    +0.008 A 
ENDBRANCH   3   7
TORSDOF 1
ENDMDL
MODEL 3
REMARK VINA RESULT:     0.000      5.685      7.466
REMARK INTER + INTRA:          -0.256
REMARK INTER:                   0.000
REMARK INTRA:                  -0.256
REMARK UNBOUND:                -0.256
REMARK  Name = Nicotine.pdb
REMARK  2 active torsions:
REMARK  status: ('A' for Active; 'I' for Inactive)
REMARK    1  A    between atoms: C_3  and  C_6
REMARK    2  A    between atoms: N_4  and  C_12
REMARK                            x       y       z     vdW  Elec       q    Type
REMARK                         _______ _______ _______ _____ _____    ______ ____
ROOT
ATOM      1  C   UNL     1      -1.190   2.108   5.670  0.00  0.00    +0.017 C 
ATOM      2  C   UNL     1      -2.525   2.073   4.879  0.00  0.00    +0.025 C 
ATOM      3  C   UNL     1      -2.412   0.766   4.065  0.00  0.00    +0.088 C 
ATOM      4  N   UNL     1      -0.978   0.441   3.958  0.00  0.00    -0.298 NA
ATOM      5  C   UNL     1      -0.203   1.496   4.644  0.00  0.00    +0.085 C 
ATOM      6  C   UNL     1      -0.694  -0.880   4.533  0.00  0.00    +0.105 C 
ENDROOT
BRANCH   3   7
ATOM      7  C   UNL     1      -2.998   0.966   2.692  0.00  0.00    -0.012 A 
ATOM      8  C   UNL     1      -3.416  -0.120   1.946  0.00  0.00    +0.115 A 
ATOM      9  N   UNL     1      -3.930   0.046   0.743  0.00  0.00    -0.263 NA
ATOM     10  C   UNL     1      -4.065   1.242   0.206  0.00  0.00    +0.111 A 
ATOM     11  C   UNL     1      -3.670   2.375   0.892  0.00  0.00    +0.020 A 
ATOM     12  C   UNL     1      -3.130   2.241   2.162  0.00  0.00    +0.008 A 
ENDBRANCH   3   7
TORSDOF 1
ENDMDL
MODEL 4
REMARK VINA RESULT:     0.000      6.982      8.776
REMARK INTER + INTRA:          -0.256
REMARK INTER:                   0.000
REMARK INTRA:                  -0.256
REMARK UNBOUND:                -0.256
REMARK  Name = Nicotine.pdb
REMARK  2 active torsions:
REMARK  status: ('A' for Active; 'I' for Inactive)
REMARK    1  A    between atoms: C_3  and  C_6
REMARK    2  A    between atoms: N_4  and  C_12
REMARK                            x       y       z     vdW  Elec       q    Type
REMARK                         _______ _______ _______ _____ _____    ______ ____
ROOT
ATOM      1  C   UNL     1       7.641  -0.680  -0.502  0.00  0.00    +0.017 C 
ATOM      2  C   UNL     1       6.091  -0.733  -0.466  0.00  0.00    +0.025 C 
ATOM      3  C   UNL     1       5.751  -1.717  -1.605  0.00  0.00    +0.088 C 
ATOM      4  N   UNL     1       6.903  -1.736  -2.525  0.00  0.00    -0.298 NA
ATOM      5  C   UNL     1       7.923  -0.793  -2.021  0.00  0.00    +0.085 C 
ATOM      6  C   UNL     1       7.454  -3.092  -2.651  0.00  0.00    +0.105 C 
ENDROOT
BRANCH   3   7
ATOM      7  C   UNL     1       4.518  -1.251  -2.335  0.00  0.00    -0.012 A 
ATOM      8  C   UNL     1       3.767  -2.142  -3.078  0.00  0.00    +0.115 A 
ATOM      9  N   UNL     1       2.686  -1.742  -3.720  0.00  0.00    -0.263 NA
ATOM     10  C   UNL     1       2.281  -0.488  -3.681  0.00  0.00    +0.111 A 
ATOM     11  C   UNL     1       2.982   0.460  -2.958  0.00  0.00    +0.020 A 
ATOM     12  C   UNL     1       4.120   0.076  -2.266  0.00  0.00    +0.008 A 
ENDBRANCH   3   7
TORSDOF 1
ENDMDL
MODEL 5
REMARK VINA RESULT:     0.000      7.141      8.050
REMARK INTER + INTRA:          -0.256
REMARK INTER:                   0.000
REMARK INTRA:                  -0.256
REMARK UNBOUND:                -0.256
REMARK  Name = Nicotine.pdb
REMARK  2 active torsions:
REMARK  status: ('A' for Active; 'I' for Inactive)
REMARK    1  A    between atoms: C_3  and  C_6
REMARK    2  A    between atoms: N_4  and  C_12
REMARK                            x       y       z     vdW  Elec       q    Type
REMARK                         _______ _______ _______ _____ _____    ______ ____
ROOT
ATOM      1  C   UNL     1       2.905  -0.625   3.608  0.00  0.00    +0.017 C 
ATOM      2  C   UNL     1       2.380  -0.290   2.187  0.00  0.00    +0.025 C 
ATOM      3  C   UNL     1       1.406  -1.451   1.893  0.00  0.00    +0.088 C 
ATOM      4  N   UNL     1       1.793  -2.576   2.764  0.00  0.00    -0.298 NA
ATOM      5  C   UNL     1       2.972  -2.172   3.559  0.00  0.00    +0.085 C 
ATOM      6  C   UNL     1       0.680  -2.974   3.635  0.00  0.00    +0.105 C 
ENDROOT
BRANCH   3   7
ATOM      7  C   UNL     1       1.516  -1.859   0.447  0.00  0.00    -0.012 A 
ATOM      8  C   UNL     1       0.483  -2.541  -0.167  0.00  0.00    +0.115 A 
ATOM      9  N   UNL     1       0.571  -2.902  -1.433  0.00  0.00    -0.263 NA
ATOM     10  C   UNL     1       1.637  -2.630  -2.158  0.00  0.00    +0.111 A 
ATOM     11  C   UNL     1       2.710  -1.949  -1.613  0.00  0.00    +0.020 A 
ATOM     12  C   UNL     1       2.651  -1.550  -0.287  0.00  0.00    +0.008 A 
ENDBRANCH   3   7
TORSDOF 1
ENDMDL
MODEL 6
REMARK VINA RESULT:     0.000      6.518      7.051
REMARK INTER + INTRA:          -0.256
REMARK INTER:                   0.000
REMARK INTRA:                  -0.256
REMARK UNBOUND:                -0.256
REMARK  Name = Nicotine.pdb
REMARK  2 active torsions:
REMARK  status: ('A' for Active; 'I' for Inactive)
REMARK    1  A    between atoms: C_3  and  C_6
REMARK    2  A    between atoms: N_4  and  C_12
REMARK                            x       y       z     vdW  Elec       q    Type
REMARK                         _______ _______ _______ _____ _____    ______ ____
ROOT
ATOM      1  C   UNL     1       0.407  -1.367   2.525  0.00  0.00    +0.017 C 
ATOM      2  C   UNL     1       1.121  -0.464   1.485  0.00  0.00    +0.025 C 
ATOM      3  C   UNL     1       1.108  -1.329   0.207  0.00  0.00    +0.088 C 
ATOM      4  N   UNL     1       0.956  -2.733   0.631  0.00  0.00    -0.298 NA
ATOM      5  C   UNL     1       0.900  -2.775   2.108  0.00  0.00    +0.085 C 
ATOM      6  C   UNL     1      -0.247  -3.334   0.041  0.00  0.00    +0.105 C 
ENDROOT
BRANCH   3   7
ATOM      7  C   UNL     1       2.404  -1.156  -0.542  0.00  0.00    -0.012 A 
ATOM      8  C   UNL     1       2.477  -1.453  -1.890  0.00  0.00    +0.115 A 
ATOM      9  N   UNL     1       3.607  -1.305  -2.553  0.00  0.00    -0.263 NA
ATOM     10  C   UNL     1       4.704  -0.871  -1.965  0.00  0.00    +0.111 A 
ATOM     11  C   UNL     1       4.707  -0.554  -0.619  0.00  0.00    +0.020 A 
ATOM     12  C   UNL     1       3.536  -0.692   0.110  0.00  0.00    +0.008 A 
ENDBRANCH   3   7
TORSDOF 1
ENDMDL
MODEL 7
REMARK VINA RESULT:     0.000      5.839      6.654
REMARK INTER + INTRA:          -0.256
REMARK INTER:                   0.000
REMARK INTRA:                  -0.256
REMARK UNBOUND:                -0.256
REMARK  Name = Nicotine.pdb
REMARK  2 active torsions:
REMARK  status: ('A' for Active; 'I' for Inactive)
REMARK    1  A    between atoms: C_3  and  C_6
REMARK    2  A    between atoms: N_4  and  C_12
REMARK                            x       y       z     vdW  Elec       q    Type
REMARK                         _______ _______ _______ _____ _____    ______ ____
ROOT
ATOM      1  C   UNL     1       5.245   2.547  -0.215  0.00  0.00    +0.017 C 
ATOM      2  C   UNL     1       5.520   2.702  -1.734  0.00  0.00    +0.025 C 
ATOM      3  C   UNL     1       6.176   4.096  -1.828  0.00  0.00    +0.088 C 
ATOM      4  N   UNL     1       5.772   4.851  -0.628  0.00  0.00    -0.298 NA
ATOM      5  C   UNL     1       4.880   3.998   0.186  0.00  0.00    +0.085 C 
ATOM      6  C   UNL     1       6.945   5.276   0.146  0.00  0.00    +0.105 C 
ENDROOT
BRANCH   3   7
ATOM      7  C   UNL     1       5.696   4.806  -3.068  0.00  0.00    -0.012 A 
ATOM      8  C   UNL     1       6.433   5.842  -3.609  0.00  0.00    +0.115 A 
ATOM      9  N   UNL     1       6.020   6.469  -4.694  0.00  0.00    -0.263 NA
ATOM     10  C   UNL     1       4.898   6.137  -5.301  0.00  0.00    +0.111 A 
ATOM     11  C   UNL     1       4.108   5.110  -4.818  0.00  0.00    +0.020 A 
ATOM     12  C   UNL     1       4.513   4.425  -3.682  0.00  0.00    +0.008 A 
ENDBRANCH   3   7
TORSDOF 1
ENDMDL
MODEL 8
REMARK VINA RESULT:     0.000      6.141      7.949
REMARK INTER + INTRA:          -0.256
REMARK INTER:                   0.000
REMARK INTRA:                  -0.256
REMARK UNBOUND:                -0.256
REMARK  Name = Nicotine.pdb
REMARK  2 active torsions:
REMARK  status: ('A' for Active; 'I' for Inactive)
REMARK    1  A    between atoms: C_3  and  C_6
REMARK    2  A    between atoms: N_4  and  C_12
REMARK                            x       y       z     vdW  Elec       q    Type
REMARK                         _______ _______ _______ _____ _____    ______ ____
ROOT
ATOM      1  C   UNL     1       5.882  -0.570   2.699  0.00  0.00    +0.017 C 
ATOM      2  C   UNL     1       5.059   0.211   1.641  0.00  0.00    +0.025 C 
ATOM      3  C   UNL     1       4.523   1.418   2.440  0.00  0.00    +0.088 C 
ATOM      4  N   UNL     1       4.541   1.042   3.865  0.00  0.00    -0.298 NA
ATOM      5  C   UNL     1       5.038  -0.346   3.979  0.00  0.00    +0.085 C 
ATOM      6  C   UNL     1       5.376   1.966   4.643  0.00  0.00    +0.105 C 
ENDROOT
BRANCH   3   7
ATOM      7  C   UNL     1       3.114   1.733   2.009  0.00  0.00    -0.012 A 
ATOM      8  C   UNL     1       2.579   2.987   2.231  0.00  0.00    +0.115 A 
ATOM      9  N   UNL     1       1.346   3.271   1.858  0.00  0.00    -0.263 NA
ATOM     10  C   UNL     1       0.580   2.379   1.263  0.00  0.00    +0.111 A 
ATOM     11  C   UNL     1       1.046   1.103   1.007  0.00  0.00    +0.020 A 
ATOM     12  C   UNL     1       2.339   0.770   1.381  0.00  0.00    +0.008 A 
ENDBRANCH   3   7
TORSDOF 1
ENDMDL
MODEL 9
REMARK VINA RESULT:     0.000      5.542      6.223
REMARK INTER + INTRA:          -0.256
REMARK INTER:                   0.000
REMARK INTRA:                  -0.256
REMARK UNBOUND:                -0.256
REMARK  Name = Nicotine.pdb
REMARK  2 active torsions:
REMARK  status: ('A' for Active; 'I' for Inactive)
REMARK    1  A    between atoms: C_3  and  C_6
REMARK    2  A    between atoms: N_4  and  C_12
REMARK                            x       y       z     vdW  Elec       q    Type
REMARK                         _______ _______ _______ _____ _____    ______ ____
ROOT
ATOM      1  C   UNL     1       0.146  -0.138  -0.982  0.00  0.00    +0.017 C 
ATOM      2  C   UNL     1       0.838  -1.311  -1.725  0.00  0.00    +0.025 C 
ATOM      3  C   UNL     1       2.337  -0.967  -1.595  0.00  0.00    +0.088 C 
ATOM      4  N   UNL     1       2.434   0.483  -1.350  0.00  0.00    -0.298 NA
ATOM      5  C   UNL     1       1.069   1.052  -1.347  0.00  0.00    +0.085 C 
ATOM      6  C   UNL     1       3.122   0.758  -0.082  0.00  0.00    +0.105 C 
ENDROOT
BRANCH   3   7
ATOM      7  C   UNL     1       3.056  -1.321  -2.871  0.00  0.00    -0.012 A 
ATOM      8  C   UNL     1       4.423  -1.527  -2.869  0.00  0.00    +0.115 A 
ATOM      9  N   UNL     1       5.060  -1.837  -3.982  0.00  0.00    -0.263 NA
ATOM     10  C   UNL     1       4.427  -1.963  -5.131  0.00  0.00    +0.111 A 
ATOM     11  C   UNL     1       3.060  -1.773  -5.210  0.00  0.00    +0.020 A 
ATOM     12  C   UNL     1       2.356  -1.451  -4.060  0.00  0.00    +0.008 A 
ENDBRANCH   3   7
TORSDOF 1
ENDMDL
MODEL 10
REMARK VINA RESULT:     0.000      7.250      7.989
REMARK INTER + INTRA:          -0.256
REMARK INTER:                   0.000
REMARK INTRA:                  -0.256
REMARK UNBOUND:                -0.256
REMARK  Name = Nicotine.pdb
REMARK  2 active torsions:
REMARK  status: ('A' for Active; 'I' for Inactive)
REMARK    1  A    between atoms: C_3  and  C_6
REMARK    2  A    between atoms: N_4  and  C_12
REMARK                            x       y       z     vdW  Elec       q    Type
REMARK                         _______ _______ _______ _____ _____    ______ ____
ROOT
ATOM      1  C   UNL     1       4.966   3.921   2.591  0.00  0.00    +0.017 C 
ATOM      2  C   UNL     1       4.805   4.209   1.075  0.00  0.00    +0.025 C 
ATOM      3  C   UNL     1       6.058   3.548   0.461  0.00  0.00    +0.088 C 
ATOM      4  N   UNL     1       7.064   3.440   1.533  0.00  0.00    -0.298 NA
ATOM      5  C   UNL     1       6.501   4.025   2.768  0.00  0.00    +0.085 C 
ATOM      6  C   UNL     1       7.460   2.042   1.745  0.00  0.00    +0.105 C 
ENDROOT
BRANCH   3   7
ATOM      7  C   UNL     1       6.590   4.402  -0.660  0.00  0.00    -0.012 A 
ATOM      8  C   UNL     1       7.403   3.850  -1.633  0.00  0.00    +0.115 A 
ATOM      9  N   UNL     1       7.873   4.590  -2.618  0.00  0.00    -0.263 NA
ATOM     10  C   UNL     1       7.592   5.874  -2.716  0.00  0.00    +0.111 A 
ATOM     11  C   UNL     1       6.786   6.495  -1.780  0.00  0.00    +0.020 A 
ATOM     12  C   UNL     1       6.268   5.748  -0.733  0.00  0.00    +0.008 A 
ENDBRANCH   3   7
TORSDOF 1
ENDMDL
