MODEL 1
REMARK VINA RESULT:    -5.914      0.000      0.000
REMARK INTER + INTRA:          -6.482
REMARK INTER:                  -6.260
REMARK INTRA:                  -0.222
REMARK UNBOUND:                -0.222
REMARK  Name = Nicotine.pdb
REMARK  2 active torsions:
REMARK  status: ('A' for Active; 'I' for Inactive)
REMARK    1  A    between atoms: C_3  and  C_6
REMARK    2  A    between atoms: N_4  and  C_12
REMARK                            x       y       z     vdW  Elec       q    Type
REMARK                         _______ _______ _______ _____ _____    ______ ____
ROOT
ATOM      1  C   UNL     1       0.863  -3.548  -0.561  0.00  0.00    +0.017 C 
ATOM      2  C   UNL     1       0.654  -4.640  -1.643  0.00  0.00    +0.025 C 
ATOM      3  C   UNL     1       0.980  -3.896  -2.955  0.00  0.00    +0.088 C 
ATOM      4  N   UNL     1       0.805  -2.456  -2.696  0.00  0.00    -0.298 NA
ATOM      5  C   UNL     1       0.363  -2.279  -1.296  0.00  0.00    +0.085 C 
ATOM      6  C   UNL     1       2.050  -1.720  -2.952  0.00  0.00    +0.105 C 
ENDROOT
BRANCH   3   7
ATOM      7  C   UNL     1       0.039  -4.341  -4.044  0.00  0.00    -0.012 A 
ATOM      8  C   UNL     1      -0.632  -3.408  -4.812  0.00  0.00    +0.115 A 
ATOM      9  N   UNL     1      -1.458  -3.788  -5.767  0.00  0.00    -0.263 NA
ATOM     10  C   UNL     1      -1.677  -5.062  -6.027  0.00  0.00    +0.111 A 
ATOM     11  C   UNL     1      -1.042  -6.052  -5.301  0.00  0.00    +0.020 A 
ATOM     12  C   UNL     1      -0.162  -5.690  -4.292  0.00  0.00    +0.008 A 
ENDBRANCH   3   7
TORSDOF 1
ENDMDL
MODEL 2
REMARK VINA RESULT:    -5.866      1.976      5.044
REMARK INTER + INTRA:          -6.431
REMARK INTER:                  -6.232
REMARK INTRA:                  -0.199
REMARK UNBOUND:                -0.222
REMARK  Name = Nicotine.pdb
REMARK  2 active torsions:
REMARK  status: ('A' for Active; 'I' for Inactive)
REMARK    1  A    between atoms: C_3  and  C_6
REMARK    2  A    between atoms: N_4  and  C_12
REMARK                            x       y       z     vdW  Elec       q    Type
REMARK                         _______ _______ _______ _____ _____    ______ ____
ROOT
ATOM      1  C   UNL     1       0.848  -4.622  -1.301  0.00  0.00    +0.017 C 
ATOM      2  C   UNL     1       1.114  -3.211  -0.713  0.00  0.00    +0.025 C 
ATOM      3  C   UNL     1       0.772  -2.274  -1.891  0.00  0.00    +0.088 C 
ATOM      4  N   UNL     1       0.885  -3.068  -3.128  0.00  0.00    -0.298 NA
ATOM      5  C   UNL     1       1.305  -4.440  -2.770  0.00  0.00    +0.085 C 
ATOM      6  C   UNL     1      -0.385  -3.081  -3.865  0.00  0.00    +0.105 C 
ENDROOT
BRANCH   3   7
ATOM      7  C   UNL     1       1.742  -1.122  -1.929  0.00  0.00    -0.012 A 
ATOM      8  C   UNL     1       1.335   0.147  -1.565  0.00  0.00    +0.115 A 
ATOM      9  N   UNL     1       2.178   1.161  -1.595  0.00  0.00    -0.263 NA
ATOM     10  C   UNL     1       3.432   1.008  -1.970  0.00  0.00    +0.111 A 
ATOM     11  C   UNL     1       3.912  -0.233  -2.348  0.00  0.00    +0.020 A 
ATOM     12  C   UNL     1       3.056  -1.323  -2.324  0.00  0.00    +0.008 A 
ENDBRANCH   3   7
TORSDOF 1
ENDMDL
MODEL 3
REMARK VINA RESULT:    -5.777      1.325      4.542
REMARK INTER + INTRA:          -6.336
REMARK INTER:                  -6.125
REMARK INTRA:                  -0.211
REMARK UNBOUND:                -0.222
REMARK  Name = Nicotine.pdb
REMARK  2 active torsions:
REMARK  status: ('A' for Active; 'I' for Inactive)
REMARK    1  A    between atoms: C_3  and  C_6
REMARK    2  A    between atoms: N_4  and  C_12
REMARK                            x       y       z     vdW  Elec       q    Type
REMARK                         _______ _______ _______ _____ _____    ______ ____
ROOT
ATOM      1  C   UNL     1      -1.588  -5.377  -6.212  0.00  0.00    +0.017 C 
ATOM      2  C   UNL     1      -0.336  -5.386  -5.295  0.00  0.00    +0.025 C 
ATOM      3  C   UNL     1      -0.943  -5.322  -3.878  0.00  0.00    +0.088 C 
ATOM      4  N   UNL     1      -2.296  -4.751  -4.007  0.00  0.00    -0.298 NA
ATOM      5  C   UNL     1      -2.540  -4.437  -5.431  0.00  0.00    +0.085 C 
ATOM      6  C   UNL     1      -3.311  -5.678  -3.490  0.00  0.00    +0.105 C 
ENDROOT
BRANCH   3   7
ATOM      7  C   UNL     1      -0.096  -4.441  -2.996  0.00  0.00    -0.012 A 
ATOM      8  C   UNL     1       0.504  -3.307  -3.511  0.00  0.00    +0.115 A 
ATOM      9  N   UNL     1       1.247  -2.531  -2.746  0.00  0.00    -0.263 NA
ATOM     10  C   UNL     1       1.448  -2.801  -1.472  0.00  0.00    +0.111 A 
ATOM     11  C   UNL     1       0.880  -3.918  -0.887  0.00  0.00    +0.020 A 
ATOM     12  C   UNL     1       0.088  -4.755  -1.658  0.00  0.00    +0.008 A 
ENDBRANCH   3   7
TORSDOF 1
ENDMDL
MODEL 4
REMARK VINA RESULT:    -5.720      1.877      2.435
REMARK INTER + INTRA:          -6.276
REMARK INTER:                  -6.086
REMARK INTRA:                  -0.190
REMARK UNBOUND:                -0.222
REMARK  Name = Nicotine.pdb
REMARK  2 active torsions:
REMARK  status: ('A' for Active; 'I' for Inactive)
REMARK    1  A    between atoms: C_3  and  C_6
REMARK    2  A    between atoms: N_4  and  C_12
REMARK                            x       y       z     vdW  Elec       q    Type
REMARK                         _______ _______ _______ _____ _____    ______ ____
ROOT
ATOM      1  C   UNL     1       1.180  -2.721  -1.233  0.00  0.00    +0.017 C 
ATOM      2  C   UNL     1      -0.356  -2.814  -1.433  0.00  0.00    +0.025 C 
ATOM      3  C   UNL     1      -0.563  -4.286  -1.848  0.00  0.00    +0.088 C 
ATOM      4  N   UNL     1       0.720  -4.773  -2.386  0.00  0.00    -0.298 NA
ATOM      5  C   UNL     1       1.698  -3.666  -2.346  0.00  0.00    +0.085 C 
ATOM      6  C   UNL     1       1.204  -5.932  -1.626  0.00  0.00    +0.105 C 
ENDROOT
BRANCH   3   7
ATOM      7  C   UNL     1      -1.631  -4.374  -2.907  0.00  0.00    -0.012 A 
ATOM      8  C   UNL     1      -1.547  -3.603  -4.051  0.00  0.00    +0.115 A 
ATOM      9  N   UNL     1      -2.478  -3.675  -4.983  0.00  0.00    -0.263 NA
ATOM     10  C   UNL     1      -3.517  -4.477  -4.864  0.00  0.00    +0.111 A 
ATOM     11  C   UNL     1      -3.669  -5.278  -3.748  0.00  0.00    +0.020 A 
ATOM     12  C   UNL     1      -2.708  -5.234  -2.750  0.00  0.00    +0.008 A 
ENDBRANCH   3   7
TORSDOF 1
ENDMDL
MODEL 5
REMARK VINA RESULT:    -5.682      1.818      1.880
REMARK INTER + INTRA:          -6.236
REMARK INTER:                  -5.980
REMARK INTRA:                  -0.256
REMARK UNBOUND:                -0.222
REMARK  Name = Nicotine.pdb
REMARK  2 active torsions:
REMARK  status: ('A' for Active; 'I' for Inactive)
REMARK    1  A    between atoms: C_3  and  C_6
REMARK    2  A    between atoms: N_4  and  C_12
REMARK                            x       y       z     vdW  Elec       q    Type
REMARK                         _______ _______ _______ _____ _____    ______ ____
ROOT
ATOM      1  C   UNL     1       1.196  -4.735  -1.012  0.00  0.00    +0.017 C 
ATOM      2  C   UNL     1       0.262  -5.353  -2.086  0.00  0.00    +0.025 C 
ATOM      3  C   UNL     1      -0.014  -4.165  -3.032  0.00  0.00    +0.088 C 
ATOM      4  N   UNL     1       0.235  -2.930  -2.266  0.00  0.00    -0.298 NA
ATOM      5  C   UNL     1       0.625  -3.300  -0.889  0.00  0.00    +0.085 C 
ATOM      6  C   UNL     1       1.274  -2.113  -2.907  0.00  0.00    +0.105 C 
ENDROOT
BRANCH   3   7
ATOM      7  C   UNL     1      -1.446  -4.201  -3.497  0.00  0.00    -0.012 A 
ATOM      8  C   UNL     1      -1.840  -3.473  -4.604  0.00  0.00    +0.115 A 
ATOM      9  N   UNL     1      -3.092  -3.499  -5.018  0.00  0.00    -0.263 NA
ATOM     10  C   UNL     1      -4.011  -4.215  -4.400  0.00  0.00    +0.111 A 
ATOM     11  C   UNL     1      -3.691  -4.969  -3.287  0.00  0.00    +0.020 A 
ATOM     12  C   UNL     1      -2.384  -4.971  -2.826  0.00  0.00    +0.008 A 
ENDBRANCH   3   7
TORSDOF 1
ENDMDL
MODEL 6
REMARK VINA RESULT:    -5.313      2.087      3.927
REMARK INTER + INTRA:          -5.846
REMARK INTER:                  -5.651
REMARK INTRA:                  -0.195
REMARK UNBOUND:                -0.222
REMARK  Name = Nicotine.pdb
REMARK  2 active torsions:
REMARK  status: ('A' for Active; 'I' for Inactive)
REMARK    1  A    between atoms: C_3  and  C_6
REMARK    2  A    between atoms: N_4  and  C_12
REMARK                            x       y       z     vdW  Elec       q    Type
REMARK                         _______ _______ _______ _____ _____    ______ ____
ROOT
ATOM      1  C   UNL     1       2.808   1.058  -2.169  0.00  0.00    +0.017 C 
ATOM      2  C   UNL     1       1.622   0.132  -1.791  0.00  0.00    +0.025 C 
ATOM      3  C   UNL     1       2.326  -1.163  -1.330  0.00  0.00    +0.088 C 
ATOM      4  N   UNL     1       3.670  -1.168  -1.936  0.00  0.00    -0.298 NA
ATOM      5  C   UNL     1       3.817   0.046  -2.766  0.00  0.00    +0.085 C 
ATOM      6  C   UNL     1       4.713  -1.231  -0.903  0.00  0.00    +0.105 C 
ENDROOT
BRANCH   3   7
ATOM      7  C   UNL     1       1.546  -2.364  -1.797  0.00  0.00    -0.012 A 
ATOM      8  C   UNL     1       1.150  -2.470  -3.117  0.00  0.00    +0.115 A 
ATOM      9  N   UNL     1       0.467  -3.519  -3.534  0.00  0.00    -0.263 NA
ATOM     10  C   UNL     1       0.137  -4.500  -2.719  0.00  0.00    +0.111 A 
ATOM     11  C   UNL     1       0.500  -4.464  -1.385  0.00  0.00    +0.020 A 
ATOM     12  C   UNL     1       1.223  -3.380  -0.911  0.00  0.00    +0.008 A 
ENDBRANCH   3   7
TORSDOF 1
ENDMDL
MODEL 7
REMARK VINA RESULT:    -5.247      2.837      3.301
REMARK INTER + INTRA:          -5.775
REMARK INTER:                  -5.579
REMARK INTRA:                  -0.196
REMARK UNBOUND:                -0.222
REMARK  Name = Nicotine.pdb
REMARK  2 active torsions:
REMARK  status: ('A' for Active; 'I' for Inactive)
REMARK    1  A    between atoms: C_3  and  C_6
REMARK    2  A    between atoms: N_4  and  C_12
REMARK                            x       y       z     vdW  Elec       q    Type
REMARK                         _______ _______ _______ _____ _____    ______ ____
ROOT
ATOM      1  C   UNL     1      -4.682  -2.438  -1.923  0.00  0.00    +0.017 C 
ATOM      2  C   UNL     1      -4.293  -3.804  -2.546  0.00  0.00    +0.025 C 
ATOM      3  C   UNL     1      -2.750  -3.754  -2.557  0.00  0.00    +0.088 C 
ATOM      4  N   UNL     1      -2.359  -2.334  -2.511  0.00  0.00    -0.298 NA
ATOM      5  C   UNL     1      -3.585  -1.508  -2.498  0.00  0.00    +0.085 C 
ATOM      6  C   UNL     1      -1.523  -2.055  -1.336  0.00  0.00    +0.105 C 
ENDROOT
BRANCH   3   7
ATOM      7  C   UNL     1      -2.226  -4.392  -3.817  0.00  0.00    -0.012 A 
ATOM      8  C   UNL     1      -2.746  -4.039  -5.048  0.00  0.00    +0.115 A 
ATOM      9  N   UNL     1      -2.292  -4.592  -6.156  0.00  0.00    -0.263 NA
ATOM     10  C   UNL     1      -1.333  -5.496  -6.137  0.00  0.00    +0.111 A 
ATOM     11  C   UNL     1      -0.764  -5.899  -4.943  0.00  0.00    +0.020 A 
ATOM     12  C   UNL     1      -1.211  -5.336  -3.758  0.00  0.00    +0.008 A 
ENDBRANCH   3   7
TORSDOF 1
ENDMDL
MODEL 8
REMARK VINA RESULT:    -5.185      1.430      1.835
REMARK INTER + INTRA:          -5.710
REMARK INTER:                  -5.539
REMARK INTRA:                  -0.171
REMARK UNBOUND:                -0.222
REMARK  Name = Nicotine.pdb
REMARK  2 active torsions:
REMARK  status: ('A' for Active; 'I' for Inactive)
REMARK    1  A    between atoms: C_3  and  C_6
REMARK    2  A    between atoms: N_4  and  C_12
REMARK                            x       y       z     vdW  Elec       q    Type
REMARK                         _______ _______ _______ _____ _____    ______ ____
ROOT
ATOM      1  C   UNL     1      -1.688  -1.020  -1.330  0.00  0.00    +0.017 C 
ATOM      2  C   UNL     1      -1.981  -2.454  -1.846  0.00  0.00    +0.025 C 
ATOM      3  C   UNL     1      -0.587  -2.960  -2.274  0.00  0.00    +0.088 C 
ATOM      4  N   UNL     1       0.250  -1.773  -2.525  0.00  0.00    -0.298 NA
ATOM      5  C   UNL     1      -0.567  -0.563  -2.296  0.00  0.00    +0.085 C 
ATOM      6  C   UNL     1       1.440  -1.776  -1.664  0.00  0.00    +0.105 C 
ENDROOT
BRANCH   3   7
ATOM      7  C   UNL     1      -0.704  -3.781  -3.532  0.00  0.00    -0.012 A 
ATOM      8  C   UNL     1      -1.056  -3.183  -4.727  0.00  0.00    +0.115 A 
ATOM      9  N   UNL     1      -1.160  -3.895  -5.833  0.00  0.00    -0.263 NA
ATOM     10  C   UNL     1      -0.937  -5.194  -5.844  0.00  0.00    +0.111 A 
ATOM     11  C   UNL     1      -0.580  -5.861  -4.687  0.00  0.00    +0.020 A 
ATOM     12  C   UNL     1      -0.455  -5.145  -3.507  0.00  0.00    +0.008 A 
ENDBRANCH   3   7
TORSDOF 1
ENDMDL
MODEL 9
REMARK VINA RESULT:    -4.990      2.880      4.869
REMARK INTER + INTRA:          -5.504
REMARK INTER:                  -5.280
REMARK INTRA:                  -0.224
REMARK UNBOUND:                -0.222
REMARK  Name = Nicotine.pdb
REMARK  2 active torsions:
REMARK  status: ('A' for Active; 'I' for Inactive)
REMARK    1  A    between atoms: C_3  and  C_6
REMARK    2  A    between atoms: N_4  and  C_12
REMARK                            x       y       z     vdW  Elec       q    Type
REMARK                         _______ _______ _______ _____ _____    ______ ____
ROOT
ATOM      1  C   UNL     1       0.259  -4.178  -1.549  0.00  0.00    +0.017 C 
ATOM      2  C   UNL     1      -0.984  -3.285  -1.806  0.00  0.00    +0.025 C 
ATOM      3  C   UNL     1      -0.362  -1.920  -2.167  0.00  0.00    +0.088 C 
ATOM      4  N   UNL     1       1.000  -1.897  -1.604  0.00  0.00    -0.298 NA
ATOM      5  C   UNL     1       1.236  -3.171  -0.893  0.00  0.00    +0.085 C 
ATOM      6  C   UNL     1       2.002  -1.688  -2.657  0.00  0.00    +0.105 C 
ENDROOT
BRANCH   3   7
ATOM      7  C   UNL     1      -1.184  -0.808  -1.570  0.00  0.00    -0.012 A 
ATOM      8  C   UNL     1      -0.688   0.482  -1.526  0.00  0.00    +0.115 A 
ATOM      9  N   UNL     1      -1.401   1.461  -1.004  0.00  0.00    -0.263 NA
ATOM     10  C   UNL     1      -2.605   1.254  -0.508  0.00  0.00    +0.111 A 
ATOM     11  C   UNL     1      -3.166  -0.009  -0.517  0.00  0.00    +0.020 A 
ATOM     12  C   UNL     1      -2.449  -1.063  -1.062  0.00  0.00    +0.008 A 
ENDBRANCH   3   7
TORSDOF 1
ENDMDL
MODEL 10
REMARK VINA RESULT:    -4.955      2.367      3.156
REMARK INTER + INTRA:          -5.467
REMARK INTER:                  -5.211
REMARK INTRA:                  -0.256
REMARK UNBOUND:                -0.222
REMARK  Name = Nicotine.pdb
REMARK  2 active torsions:
REMARK  status: ('A' for Active; 'I' for Inactive)
REMARK    1  A    between atoms: C_3  and  C_6
REMARK    2  A    between atoms: N_4  and  C_12
REMARK                            x       y       z     vdW  Elec       q    Type
REMARK                         _______ _______ _______ _____ _____    ______ ____
ROOT
ATOM      1  C   UNL     1       3.818  -1.095  -2.195  0.00  0.00    +0.017 C 
ATOM      2  C   UNL     1       2.989  -2.210  -2.884  0.00  0.00    +0.025 C 
ATOM      3  C   UNL     1       1.536  -1.712  -2.724  0.00  0.00    +0.088 C 
ATOM      4  N   UNL     1       1.520  -0.772  -1.589  0.00  0.00    -0.298 NA
ATOM      5  C   UNL     1       2.885  -0.688  -1.027  0.00  0.00    +0.085 C 
ATOM      6  C   UNL     1       1.038   0.551  -2.007  0.00  0.00    +0.105 C 
ENDROOT
BRANCH   3   7
ATOM      7  C   UNL     1       0.623  -2.877  -2.441  0.00  0.00    -0.012 A 
ATOM      8  C   UNL     1      -0.731  -2.781  -2.697  0.00  0.00    +0.115 A 
ATOM      9  N   UNL     1      -1.538  -3.796  -2.453  0.00  0.00    -0.263 NA
ATOM     10  C   UNL     1      -1.090  -4.933  -1.958  0.00  0.00    +0.111 A 
ATOM     11  C   UNL     1       0.253  -5.102  -1.677  0.00  0.00    +0.020 A 
ATOM     12  C   UNL     1       1.131  -4.059  -1.926  0.00  0.00    +0.008 A 
ENDBRANCH   3   7
TORSDOF 1
ENDMDL
