MODEL 1
REMARK VINA RESULT:    -1.862      0.000      0.000
REMARK INTER + INTRA:          -2.226
REMARK INTER:                  -1.971
REMARK INTRA:                  -0.255
REMARK UNBOUND:                -0.255
REMARK  Name = Nicotine.pdb
REMARK  2 active torsions:
REMARK  status: ('A' for Active; 'I' for Inactive)
REMARK    1  A    between atoms: C_3  and  C_6
REMARK    2  A    between atoms: N_4  and  C_12
REMARK                            x       y       z     vdW  Elec       q    Type
REMARK                         _______ _______ _______ _____ _____    ______ ____
ROOT
ATOM      1  C   UNL     1       8.669  -3.123   6.236  0.00  0.00    +0.017 C 
ATOM      2  C   UNL     1       8.095  -3.540   4.856  0.00  0.00    +0.025 C 
ATOM      3  C   UNL     1       8.881  -4.828   4.528  0.00  0.00    +0.088 C 
ATOM      4  N   UNL     1      10.125  -4.793   5.317  0.00  0.00    -0.298 NA
ATOM      5  C   UNL     1      10.155  -3.535   6.094  0.00  0.00    +0.085 C 
ATOM      6  C   UNL     1      10.222  -5.961   6.202  0.00  0.00    +0.105 C 
ENDROOT
BRANCH   3   7
ATOM      7  C   UNL     1       9.205  -4.870   3.058  0.00  0.00    -0.012 A 
ATOM      8  C   UNL     1       9.615  -6.050   2.466  0.00  0.00    +0.115 A 
ATOM      9  N   UNL     1       9.901  -6.096   1.179  0.00  0.00    -0.263 NA
ATOM     10  C   UNL     1       9.810  -5.028   0.411  0.00  0.00    +0.111 A 
ATOM     11  C   UNL     1       9.407  -3.813   0.932  0.00  0.00    +0.020 A 
ATOM     12  C   UNL     1       9.093  -3.728   2.280  0.00  0.00    +0.008 A 
ENDBRANCH   3   7
TORSDOF 1
ENDMDL
MODEL 2
REMARK VINA RESULT:    -0.887      0.924      1.950
REMARK INTER + INTRA:          -1.195
REMARK INTER:                  -0.982
REMARK INTRA:                  -0.212
REMARK UNBOUND:                -0.255
REMARK  Name = Nicotine.pdb
REMARK  2 active torsions:
REMARK  status: ('A' for Active; 'I' for Inactive)
REMARK    1  A    between atoms: C_3  and  C_6
REMARK    2  A    between atoms: N_4  and  C_12
REMARK                            x       y       z     vdW  Elec       q    Type
REMARK                         _______ _______ _______ _____ _____    ______ ____
ROOT
ATOM      1  C   UNL     1      10.342  -6.094   6.244  0.00  0.00    +0.017 C 
ATOM      2  C   UNL     1      10.953  -5.858   4.837  0.00  0.00    +0.025 C 
ATOM      3  C   UNL     1      10.328  -4.514   4.408  0.00  0.00    +0.088 C 
ATOM      4  N   UNL     1       9.093  -4.336   5.193  0.00  0.00    -0.298 NA
ATOM      5  C   UNL     1       8.915  -5.516   6.065  0.00  0.00    +0.085 C 
ATOM      6  C   UNL     1       9.145  -3.099   5.983  0.00  0.00    +0.105 C 
ENDROOT
BRANCH   3   7
ATOM      7  C   UNL     1      10.002  -4.547   2.937  0.00  0.00    -0.012 A 
ATOM      8  C   UNL     1      10.073  -5.734   2.232  0.00  0.00    +0.115 A 
ATOM      9  N   UNL     1       9.789  -5.771   0.944  0.00  0.00    -0.263 NA
ATOM     10  C   UNL     1       9.429  -4.690   0.282  0.00  0.00    +0.111 A 
ATOM     11  C   UNL     1       9.335  -3.468   0.921  0.00  0.00    +0.020 A 
ATOM     12  C   UNL     1       9.621  -3.390   2.275  0.00  0.00    +0.008 A 
ENDBRANCH   3   7
TORSDOF 1
ENDMDL
MODEL 3
REMARK VINA RESULT:    -0.546      2.315      4.474
REMARK INTER + INTRA:          -0.833
REMARK INTER:                  -0.647
REMARK INTRA:                  -0.186
REMARK UNBOUND:                -0.255
REMARK  Name = Nicotine.pdb
REMARK  2 active torsions:
REMARK  status: ('A' for Active; 'I' for Inactive)
REMARK    1  A    between atoms: C_3  and  C_6
REMARK    2  A    between atoms: N_4  and  C_12
REMARK                            x       y       z     vdW  Elec       q    Type
REMARK                         _______ _______ _______ _____ _____    ______ ____
ROOT
ATOM      1  C   UNL     1       9.150  -5.583   3.052  0.00  0.00    +0.017 C 
ATOM      2  C   UNL     1       9.370  -4.089   3.404  0.00  0.00    +0.025 C 
ATOM      3  C   UNL     1       8.866  -3.998   4.861  0.00  0.00    +0.088 C 
ATOM      4  N   UNL     1       7.946  -5.129   5.076  0.00  0.00    -0.298 NA
ATOM      5  C   UNL     1       7.839  -5.896   3.816  0.00  0.00    +0.085 C 
ATOM      6  C   UNL     1       8.410  -5.984   6.176  0.00  0.00    +0.105 C 
ENDROOT
BRANCH   3   7
ATOM      7  C   UNL     1       8.138  -2.695   5.071  0.00  0.00    -0.012 A 
ATOM      8  C   UNL     1       7.082  -2.345   4.252  0.00  0.00    +0.115 A 
ATOM      9  N   UNL     1       6.439  -1.207   4.429  0.00  0.00    -0.263 NA
ATOM     10  C   UNL     1       6.775  -0.363   5.385  0.00  0.00    +0.111 A 
ATOM     11  C   UNL     1       7.821  -0.646   6.244  0.00  0.00    +0.020 A 
ATOM     12  C   UNL     1       8.516  -1.836   6.091  0.00  0.00    +0.008 A 
ENDBRANCH   3   7
TORSDOF 1
ENDMDL
MODEL 4
REMARK VINA RESULT:    -0.164      3.486      5.334
REMARK INTER + INTRA:          -0.428
REMARK INTER:                  -0.218
REMARK INTRA:                  -0.210
REMARK UNBOUND:                -0.255
REMARK  Name = Nicotine.pdb
REMARK  2 active torsions:
REMARK  status: ('A' for Active; 'I' for Inactive)
REMARK    1  A    between atoms: C_3  and  C_6
REMARK    2  A    between atoms: N_4  and  C_12
REMARK                            x       y       z     vdW  Elec       q    Type
REMARK                         _______ _______ _______ _____ _____    ______ ____
ROOT
ATOM      1  C   UNL     1       5.139   0.463   5.360  0.00  0.00    +0.017 C 
ATOM      2  C   UNL     1       5.714  -0.856   5.940  0.00  0.00    +0.025 C 
ATOM      3  C   UNL     1       7.182  -0.490   6.244  0.00  0.00    +0.088 C 
ATOM      4  N   UNL     1       7.529   0.667   5.399  0.00  0.00    -0.298 NA
ATOM      5  C   UNL     1       6.353   1.014   4.572  0.00  0.00    +0.085 C 
ATOM      6  C   UNL     1       7.953   1.809   6.218  0.00  0.00    +0.105 C 
ENDROOT
BRANCH   3   7
ATOM      7  C   UNL     1       8.080  -1.655   5.914  0.00  0.00    -0.012 A 
ATOM      8  C   UNL     1       7.572  -2.769   5.272  0.00  0.00    +0.115 A 
ATOM      9  N   UNL     1       8.350  -3.792   4.980  0.00  0.00    -0.263 NA
ATOM     10  C   UNL     1       9.633  -3.797   5.284  0.00  0.00    +0.111 A 
ATOM     11  C   UNL     1      10.212  -2.717   5.925  0.00  0.00    +0.020 A 
ATOM     12  C   UNL     1       9.426  -1.621   6.244  0.00  0.00    +0.008 A 
ENDBRANCH   3   7
TORSDOF 1
ENDMDL
