MODEL 1
REMARK VINA RESULT:    -2.805      0.000      0.000
REMARK INTER + INTRA:          -3.197
REMARK INTER:                  -2.969
REMARK INTRA:                  -0.227
REMARK UNBOUND:                -0.227
REMARK  Name = Nicotine.pdb
REMARK  2 active torsions:
REMARK  status: ('A' for Active; 'I' for Inactive)
REMARK    1  A    between atoms: C_3  and  C_6
REMARK    2  A    between atoms: N_4  and  C_12
REMARK                            x       y       z     vdW  Elec       q    Type
REMARK                         _______ _______ _______ _____ _____    ______ ____
ROOT
ATOM      1  C   UNL     1      -2.888  -4.907  -5.795  0.00  0.00    +0.017 C 
ATOM      2  C   UNL     1      -3.514  -3.852  -4.846  0.00  0.00    +0.025 C 
ATOM      3  C   UNL     1      -2.686  -2.584  -5.141  0.00  0.00    +0.088 C 
ATOM      4  N   UNL     1      -1.403  -3.024  -5.719  0.00  0.00    -0.298 NA
ATOM      5  C   UNL     1      -1.393  -4.502  -5.770  0.00  0.00    +0.085 C 
ATOM      6  C   UNL     1      -1.202  -2.450  -7.056  0.00  0.00    +0.105 C 
ENDROOT
BRANCH   3   7
ATOM      7  C   UNL     1      -2.439  -1.823  -3.864  0.00  0.00    -0.012 A 
ATOM      8  C   UNL     1      -2.770  -0.484  -3.773  0.00  0.00    +0.115 A 
ATOM      9  N   UNL     1      -2.558   0.189  -2.659  0.00  0.00    -0.263 NA
ATOM     10  C   UNL     1      -2.027  -0.381  -1.596  0.00  0.00    +0.111 A 
ATOM     11  C   UNL     1      -1.671  -1.717  -1.612  0.00  0.00    +0.020 A 
ATOM     12  C   UNL     1      -1.884  -2.458  -2.764  0.00  0.00    +0.008 A 
ENDBRANCH   3   7
TORSDOF 1
ENDMDL
MODEL 2
REMARK VINA RESULT:    -2.707      9.804     10.982
REMARK INTER + INTRA:          -3.093
REMARK INTER:                  -2.860
REMARK INTRA:                  -0.233
REMARK UNBOUND:                -0.227
REMARK  Name = Nicotine.pdb
REMARK  2 active torsions:
REMARK  status: ('A' for Active; 'I' for Inactive)
REMARK    1  A    between atoms: C_3  and  C_6
REMARK    2  A    between atoms: N_4  and  C_12
REMARK                            x       y       z     vdW  Elec       q    Type
REMARK                         _______ _______ _______ _____ _____    ______ ____
ROOT
ATOM      1  C   UNL     1       6.061  -2.801  -1.919  0.00  0.00    +0.017 C 
ATOM      2  C   UNL     1       7.523  -2.957  -2.417  0.00  0.00    +0.025 C 
ATOM      3  C   UNL     1       7.847  -1.559  -2.984  0.00  0.00    +0.088 C 
ATOM      4  N   UNL     1       6.563  -0.909  -3.305  0.00  0.00    -0.298 NA
ATOM      5  C   UNL     1       5.467  -1.849  -2.986  0.00  0.00    +0.085 C 
ATOM      6  C   UNL     1       6.410   0.350  -2.565  0.00  0.00    +0.105 C 
ENDROOT
BRANCH   3   7
ATOM      7  C   UNL     1       8.681  -1.693  -4.232  0.00  0.00    -0.012 A 
ATOM      8  C   UNL     1       9.006  -0.576  -4.979  0.00  0.00    +0.115 A 
ATOM      9  N   UNL     1       9.735  -0.685  -6.072  0.00  0.00    -0.263 NA
ATOM     10  C   UNL     1      10.181  -1.851  -6.495  0.00  0.00    +0.111 A 
ATOM     11  C   UNL     1       9.896  -3.012  -5.800  0.00  0.00    +0.020 A 
ATOM     12  C   UNL     1       9.136  -2.936  -4.643  0.00  0.00    +0.008 A 
ENDBRANCH   3   7
TORSDOF 1
ENDMDL
MODEL 3
REMARK VINA RESULT:    -2.689      8.328      9.744
REMARK INTER + INTRA:          -3.074
REMARK INTER:                  -2.858
REMARK INTRA:                  -0.215
REMARK UNBOUND:                -0.227
REMARK  Name = Nicotine.pdb
REMARK  2 active torsions:
REMARK  status: ('A' for Active; 'I' for Inactive)
REMARK    1  A    between atoms: C_3  and  C_6
REMARK    2  A    between atoms: N_4  and  C_12
REMARK                            x       y       z     vdW  Elec       q    Type
REMARK                         _______ _______ _______ _____ _____    ______ ____
ROOT
ATOM      1  C   UNL     1       5.623  -0.269  -2.361  0.00  0.00    +0.017 C 
ATOM      2  C   UNL     1       5.608  -1.765  -2.772  0.00  0.00    +0.025 C 
ATOM      3  C   UNL     1       5.209  -2.480  -1.463  0.00  0.00    +0.088 C 
ATOM      4  N   UNL     1       5.546  -1.574  -0.350  0.00  0.00    -0.298 NA
ATOM      5  C   UNL     1       6.155  -0.349  -0.909  0.00  0.00    +0.085 C 
ATOM      6  C   UNL     1       4.356  -1.255   0.448  0.00  0.00    +0.105 C 
ENDROOT
BRANCH   3   7
ATOM      7  C   UNL     1       5.978  -3.769  -1.328  0.00  0.00    -0.012 A 
ATOM      8  C   UNL     1       7.129  -3.976  -2.064  0.00  0.00    +0.115 A 
ATOM      9  N   UNL     1       7.809  -5.101  -1.952  0.00  0.00    -0.263 NA
ATOM     10  C   UNL     1       7.422  -6.066  -1.141  0.00  0.00    +0.111 A 
ATOM     11  C   UNL     1       6.281  -5.930  -0.372  0.00  0.00    +0.020 A 
ATOM     12  C   UNL     1       5.544  -4.759  -0.460  0.00  0.00    +0.008 A 
ENDBRANCH   3   7
TORSDOF 1
ENDMDL
MODEL 4
REMARK VINA RESULT:    -2.648      9.959     10.783
REMARK INTER + INTRA:          -3.031
REMARK INTER:                  -2.785
REMARK INTRA:                  -0.245
REMARK UNBOUND:                -0.227
REMARK  Name = Nicotine.pdb
REMARK  2 active torsions:
REMARK  status: ('A' for Active; 'I' for Inactive)
REMARK    1  A    between atoms: C_3  and  C_6
REMARK    2  A    between atoms: N_4  and  C_12
REMARK                            x       y       z     vdW  Elec       q    Type
REMARK                         _______ _______ _______ _____ _____    ______ ____
ROOT
ATOM      1  C   UNL     1       9.671  -1.081  -5.946  0.00  0.00    +0.017 C 
ATOM      2  C   UNL     1       8.744  -0.667  -4.772  0.00  0.00    +0.025 C 
ATOM      3  C   UNL     1       9.052  -1.730  -3.696  0.00  0.00    +0.088 C 
ATOM      4  N   UNL     1       9.610  -2.904  -4.389  0.00  0.00    -0.298 NA
ATOM      5  C   UNL     1       9.638  -2.626  -5.841  0.00  0.00    +0.085 C 
ATOM      6  C   UNL     1      10.954  -3.223  -3.888  0.00  0.00    +0.105 C 
ENDROOT
BRANCH   3   7
ATOM      7  C   UNL     1       7.784  -2.112  -2.976  0.00  0.00    -0.012 A 
ATOM      8  C   UNL     1       7.825  -2.986  -1.906  0.00  0.00    +0.115 A 
ATOM      9  N   UNL     1       6.720  -3.325  -1.270  0.00  0.00    -0.263 NA
ATOM     10  C   UNL     1       5.543  -2.851  -1.625  0.00  0.00    +0.111 A 
ATOM     11  C   UNL     1       5.424  -1.972  -2.686  0.00  0.00    +0.020 A 
ATOM     12  C   UNL     1       6.564  -1.588  -3.375  0.00  0.00    +0.008 A 
ENDBRANCH   3   7
TORSDOF 1
ENDMDL
MODEL 5
REMARK VINA RESULT:    -2.636      1.548      4.742
REMARK INTER + INTRA:          -3.018
REMARK INTER:                  -2.801
REMARK INTRA:                  -0.216
REMARK UNBOUND:                -0.227
REMARK  Name = Nicotine.pdb
REMARK  2 active torsions:
REMARK  status: ('A' for Active; 'I' for Inactive)
REMARK    1  A    between atoms: C_3  and  C_6
REMARK    2  A    between atoms: N_4  and  C_12
REMARK                            x       y       z     vdW  Elec       q    Type
REMARK                         _______ _______ _______ _____ _____    ______ ____
ROOT
ATOM      1  C   UNL     1      -2.213   0.456  -1.192  0.00  0.00    +0.017 C 
ATOM      2  C   UNL     1      -2.588   0.273  -2.687  0.00  0.00    +0.025 C 
ATOM      3  C   UNL     1      -2.883  -1.239  -2.788  0.00  0.00    +0.088 C 
ATOM      4  N   UNL     1      -2.189  -1.896  -1.665  0.00  0.00    -0.298 NA
ATOM      5  C   UNL     1      -1.461  -0.865  -0.894  0.00  0.00    +0.085 C 
ATOM      6  C   UNL     1      -3.138  -2.621  -0.811  0.00  0.00    +0.105 C 
ENDROOT
BRANCH   3   7
ATOM      7  C   UNL     1      -2.365  -1.776  -4.097  0.00  0.00    -0.012 A 
ATOM      8  C   UNL     1      -1.783  -3.028  -4.158  0.00  0.00    +0.115 A 
ATOM      9  N   UNL     1      -1.328  -3.506  -5.300  0.00  0.00    -0.263 NA
ATOM     10  C   UNL     1      -1.406  -2.816  -6.420  0.00  0.00    +0.111 A 
ATOM     11  C   UNL     1      -1.976  -1.556  -6.437  0.00  0.00    +0.020 A 
ATOM     12  C   UNL     1      -2.470  -1.023  -5.257  0.00  0.00    +0.008 A 
ENDBRANCH   3   7
TORSDOF 1
ENDMDL
MODEL 6
REMARK VINA RESULT:    -2.601      8.848     10.171
REMARK INTER + INTRA:          -2.980
REMARK INTER:                  -2.753
REMARK INTRA:                  -0.227
REMARK UNBOUND:                -0.227
REMARK  Name = Nicotine.pdb
REMARK  2 active torsions:
REMARK  status: ('A' for Active; 'I' for Inactive)
REMARK    1  A    between atoms: C_3  and  C_6
REMARK    2  A    between atoms: N_4  and  C_12
REMARK                            x       y       z     vdW  Elec       q    Type
REMARK                         _______ _______ _______ _____ _____    ______ ____
ROOT
ATOM      1  C   UNL     1       4.890  -1.016  -0.417  0.00  0.00    +0.017 C 
ATOM      2  C   UNL     1       5.290  -0.809  -1.901  0.00  0.00    +0.025 C 
ATOM      3  C   UNL     1       5.878  -2.180  -2.297  0.00  0.00    +0.088 C 
ATOM      4  N   UNL     1       6.297  -2.851  -1.053  0.00  0.00    -0.298 NA
ATOM      5  C   UNL     1       6.020  -1.950   0.085  0.00  0.00    +0.085 C 
ATOM      6  C   UNL     1       5.605  -4.136  -0.889  0.00  0.00    +0.105 C 
ENDROOT
BRANCH   3   7
ATOM      7  C   UNL     1       7.066  -1.987  -3.202  0.00  0.00    -0.012 A 
ATOM      8  C   UNL     1       7.879  -3.057  -3.528  0.00  0.00    +0.115 A 
ATOM      9  N   UNL     1       8.921  -2.896  -4.320  0.00  0.00    -0.263 NA
ATOM     10  C   UNL     1       9.229  -1.720  -4.830  0.00  0.00    +0.111 A 
ATOM     11  C   UNL     1       8.462  -0.604  -4.549  0.00  0.00    +0.020 A 
ATOM     12  C   UNL     1       7.356  -0.735  -3.725  0.00  0.00    +0.008 A 
ENDBRANCH   3   7
TORSDOF 1
ENDMDL
MODEL 7
REMARK VINA RESULT:    -2.589      1.549      4.599
REMARK INTER + INTRA:          -2.967
REMARK INTER:                  -2.758
REMARK INTRA:                  -0.209
REMARK UNBOUND:                -0.227
REMARK  Name = Nicotine.pdb
REMARK  2 active torsions:
REMARK  status: ('A' for Active; 'I' for Inactive)
REMARK    1  A    between atoms: C_3  and  C_6
REMARK    2  A    between atoms: N_4  and  C_12
REMARK                            x       y       z     vdW  Elec       q    Type
REMARK                         _______ _______ _______ _____ _____    ______ ____
ROOT
ATOM      1  C   UNL     1      -2.544  -1.561  -1.564  0.00  0.00    +0.017 C 
ATOM      2  C   UNL     1      -1.717  -2.266  -2.671  0.00  0.00    +0.025 C 
ATOM      3  C   UNL     1      -2.597  -2.089  -3.927  0.00  0.00    +0.088 C 
ATOM      4  N   UNL     1      -3.977  -1.857  -3.465  0.00  0.00    -0.298 NA
ATOM      5  C   UNL     1      -3.993  -1.908  -1.988  0.00  0.00    +0.085 C 
ATOM      6  C   UNL     1      -4.487  -0.570  -3.954  0.00  0.00    +0.105 C 
ENDROOT
BRANCH   3   7
ATOM      7  C   UNL     1      -2.540  -3.335  -4.772  0.00  0.00    -0.012 A 
ATOM      8  C   UNL     1      -3.638  -4.170  -4.862  0.00  0.00    +0.115 A 
ATOM      9  N   UNL     1      -3.596  -5.263  -5.599  0.00  0.00    -0.263 NA
ATOM     10  C   UNL     1      -2.517  -5.602  -6.276  0.00  0.00    +0.111 A 
ATOM     11  C   UNL     1      -1.381  -4.815  -6.235  0.00  0.00    +0.020 A 
ATOM     12  C   UNL     1      -1.388  -3.656  -5.475  0.00  0.00    +0.008 A 
ENDBRANCH   3   7
TORSDOF 1
ENDMDL
MODEL 8
REMARK VINA RESULT:    -2.558      9.526     10.315
REMARK INTER + INTRA:          -2.935
REMARK INTER:                  -2.716
REMARK INTRA:                  -0.219
REMARK UNBOUND:                -0.227
REMARK  Name = Nicotine.pdb
REMARK  2 active torsions:
REMARK  status: ('A' for Active; 'I' for Inactive)
REMARK    1  A    between atoms: C_3  and  C_6
REMARK    2  A    between atoms: N_4  and  C_12
REMARK                            x       y       z     vdW  Elec       q    Type
REMARK                         _______ _______ _______ _____ _____    ______ ____
ROOT
ATOM      1  C   UNL     1      10.078  -1.265  -4.100  0.00  0.00    +0.017 C 
ATOM      2  C   UNL     1       9.252  -2.564  -3.908  0.00  0.00    +0.025 C 
ATOM      3  C   UNL     1       7.805  -2.041  -3.789  0.00  0.00    +0.088 C 
ATOM      4  N   UNL     1       7.884  -0.630  -3.369  0.00  0.00    -0.298 NA
ATOM      5  C   UNL     1       9.307  -0.268  -3.200  0.00  0.00    +0.085 C 
ATOM      6  C   UNL     1       7.229   0.248  -4.348  0.00  0.00    +0.105 C 
ENDROOT
BRANCH   3   7
ATOM      7  C   UNL     1       7.053  -2.843  -2.758  0.00  0.00    -0.012 A 
ATOM      8  C   UNL     1       5.892  -2.346  -2.197  0.00  0.00    +0.115 A 
ATOM      9  N   UNL     1       5.228  -3.041  -1.294  0.00  0.00    -0.263 NA
ATOM     10  C   UNL     1       5.639  -4.227  -0.893  0.00  0.00    +0.111 A 
ATOM     11  C   UNL     1       6.792  -4.789  -1.410  0.00  0.00    +0.020 A 
ATOM     12  C   UNL     1       7.514  -4.090  -2.365  0.00  0.00    +0.008 A 
ENDBRANCH   3   7
TORSDOF 1
ENDMDL
MODEL 9
REMARK VINA RESULT:    -2.538      8.415      9.133
REMARK INTER + INTRA:          -2.914
REMARK INTER:                  -2.679
REMARK INTRA:                  -0.235
REMARK UNBOUND:                -0.227
REMARK  Name = Nicotine.pdb
REMARK  2 active torsions:
REMARK  status: ('A' for Active; 'I' for Inactive)
REMARK    1  A    between atoms: C_3  and  C_6
REMARK    2  A    between atoms: N_4  and  C_12
REMARK                            x       y       z     vdW  Elec       q    Type
REMARK                         _______ _______ _______ _____ _____    ______ ____
ROOT
ATOM      1  C   UNL     1       6.005  -3.845  -1.032  0.00  0.00    +0.017 C 
ATOM      2  C   UNL     1       5.185  -2.651  -1.588  0.00  0.00    +0.025 C 
ATOM      3  C   UNL     1       6.064  -2.138  -2.749  0.00  0.00    +0.088 C 
ATOM      4  N   UNL     1       7.441  -2.592  -2.488  0.00  0.00    -0.298 NA
ATOM      5  C   UNL     1       7.458  -3.338  -1.212  0.00  0.00    +0.085 C 
ATOM      6  C   UNL     1       7.939  -3.424  -3.591  0.00  0.00    +0.105 C 
ENDROOT
BRANCH   3   7
ATOM      7  C   UNL     1       6.019  -0.633  -2.798  0.00  0.00    -0.012 A 
ATOM      8  C   UNL     1       6.779   0.059  -3.722  0.00  0.00    +0.115 A 
ATOM      9  N   UNL     1       6.746   1.377  -3.772  0.00  0.00    -0.263 NA
ATOM     10  C   UNL     1       5.995   2.083  -2.951  0.00  0.00    +0.111 A 
ATOM     11  C   UNL     1       5.207   1.460  -2.000  0.00  0.00    +0.020 A 
ATOM     12  C   UNL     1       5.212   0.076  -1.921  0.00  0.00    +0.008 A 
ENDBRANCH   3   7
TORSDOF 1
ENDMDL
MODEL 10
REMARK VINA RESULT:    -2.530      8.857     10.005
REMARK INTER + INTRA:          -2.905
REMARK INTER:                  -2.711
REMARK INTRA:                  -0.195
REMARK UNBOUND:                -0.227
REMARK  Name = Nicotine.pdb
REMARK  2 active torsions:
REMARK  status: ('A' for Active; 'I' for Inactive)
REMARK    1  A    between atoms: C_3  and  C_6
REMARK    2  A    between atoms: N_4  and  C_12
REMARK                            x       y       z     vdW  Elec       q    Type
REMARK                         _______ _______ _______ _____ _____    ______ ____
ROOT
ATOM      1  C   UNL     1       8.116   0.409  -3.636  0.00  0.00    +0.017 C 
ATOM      2  C   UNL     1       7.754  -1.080  -3.874  0.00  0.00    +0.025 C 
ATOM      3  C   UNL     1       6.485  -1.270  -3.017  0.00  0.00    +0.088 C 
ATOM      4  N   UNL     1       6.493  -0.217  -1.985  0.00  0.00    -0.298 NA
ATOM      5  C   UNL     1       7.717   0.595  -2.151  0.00  0.00    +0.085 C 
ATOM      6  C   UNL     1       5.289   0.619  -2.076  0.00  0.00    +0.105 C 
ENDROOT
BRANCH   3   7
ATOM      7  C   UNL     1       6.505  -2.629  -2.365  0.00  0.00    -0.012 A 
ATOM      8  C   UNL     1       7.492  -3.542  -2.684  0.00  0.00    +0.115 A 
ATOM      9  N   UNL     1       7.517  -4.733  -2.118  0.00  0.00    -0.263 NA
ATOM     10  C   UNL     1       6.611  -5.099  -1.233  0.00  0.00    +0.111 A 
ATOM     11  C   UNL     1       5.594  -4.238  -0.864  0.00  0.00    +0.020 A 
ATOM     12  C   UNL     1       5.538  -2.976  -1.434  0.00  0.00    +0.008 A 
ENDBRANCH   3   7
TORSDOF 1
ENDMDL
