MODEL 1
REMARK VINA RESULT:    -3.763      0.000      0.000
REMARK INTER + INTRA:          -4.222
REMARK INTER:                  -3.983
REMARK INTRA:                  -0.239
REMARK UNBOUND:                -0.239
REMARK  Name = Nicotine.pdb
REMARK  2 active torsions:
REMARK  status: ('A' for Active; 'I' for Inactive)
REMARK    1  A    between atoms: C_3  and  C_6
REMARK    2  A    between atoms: N_4  and  C_12
REMARK                            x       y       z     vdW  Elec       q    Type
REMARK                         _______ _______ _______ _____ _____    ______ ____
ROOT
ATOM      1  C   UNL     1       6.901  -3.849  -2.972  0.00  0.00    +0.017 C 
ATOM      2  C   UNL     1       6.935  -4.059  -1.435  0.00  0.00    +0.025 C 
ATOM      3  C   UNL     1       5.481  -4.460  -1.107  0.00  0.00    +0.088 C 
ATOM      4  N   UNL     1       4.632  -3.957  -2.201  0.00  0.00    -0.298 NA
ATOM      5  C   UNL     1       5.488  -3.245  -3.173  0.00  0.00    +0.085 C 
ATOM      6  C   UNL     1       3.901  -5.055  -2.847  0.00  0.00    +0.105 C 
ENDROOT
BRANCH   3   7
ATOM      7  C   UNL     1       5.060  -3.837   0.199  0.00  0.00    -0.012 A 
ATOM      8  C   UNL     1       4.418  -4.594   1.160  0.00  0.00    +0.115 A 
ATOM      9  N   UNL     1       4.046  -4.056   2.306  0.00  0.00    -0.263 NA
ATOM     10  C   UNL     1       4.269  -2.786   2.579  0.00  0.00    +0.111 A 
ATOM     11  C   UNL     1       4.906  -1.967   1.667  0.00  0.00    +0.020 A 
ATOM     12  C   UNL     1       5.317  -2.498   0.454  0.00  0.00    +0.008 A 
ENDBRANCH   3   7
TORSDOF 1
ENDMDL
MODEL 2
REMARK VINA RESULT:    -3.445      1.457      4.508
REMARK INTER + INTRA:          -3.885
REMARK INTER:                  -3.695
REMARK INTRA:                  -0.190
REMARK UNBOUND:                -0.239
REMARK  Name = Nicotine.pdb
REMARK  2 active torsions:
REMARK  status: ('A' for Active; 'I' for Inactive)
REMARK    1  A    between atoms: C_3  and  C_6
REMARK    2  A    between atoms: N_4  and  C_12
REMARK                            x       y       z     vdW  Elec       q    Type
REMARK                         _______ _______ _______ _____ _____    ______ ____
ROOT
ATOM      1  C   UNL     1       4.496  -3.673   2.312  0.00  0.00    +0.017 C 
ATOM      2  C   UNL     1       4.004  -3.676   0.840  0.00  0.00    +0.025 C 
ATOM      3  C   UNL     1       4.974  -4.660   0.152  0.00  0.00    +0.088 C 
ATOM      4  N   UNL     1       6.192  -4.724   0.980  0.00  0.00    -0.298 NA
ATOM      5  C   UNL     1       6.028  -3.809   2.130  0.00  0.00    +0.085 C 
ATOM      6  C   UNL     1       6.450  -6.097   1.432  0.00  0.00    +0.105 C 
ENDROOT
BRANCH   3   7
ATOM      7  C   UNL     1       5.317  -4.161  -1.228  0.00  0.00    -0.012 A 
ATOM      8  C   UNL     1       4.359  -3.536  -2.003  0.00  0.00    +0.115 A 
ATOM      9  N   UNL     1       4.650  -3.096  -3.212  0.00  0.00    -0.263 NA
ATOM     10  C   UNL     1       5.856  -3.234  -3.727  0.00  0.00    +0.111 A 
ATOM     11  C   UNL     1       6.866  -3.848  -3.011  0.00  0.00    +0.020 A 
ATOM     12  C   UNL     1       6.598  -4.318  -1.734  0.00  0.00    +0.008 A 
ENDBRANCH   3   7
TORSDOF 1
ENDMDL
MODEL 3
REMARK VINA RESULT:    -2.728      2.597      5.519
REMARK INTER + INTRA:          -3.126
REMARK INTER:                  -2.902
REMARK INTRA:                  -0.224
REMARK UNBOUND:                -0.239
REMARK  Name = Nicotine.pdb
REMARK  2 active torsions:
REMARK  status: ('A' for Active; 'I' for Inactive)
REMARK    1  A    between atoms: C_3  and  C_6
REMARK    2  A    between atoms: N_4  and  C_12
REMARK                            x       y       z     vdW  Elec       q    Type
REMARK                         _______ _______ _______ _____ _____    ______ ____
ROOT
ATOM      1  C   UNL     1       4.591  -3.123  -2.021  0.00  0.00    +0.017 C 
ATOM      2  C   UNL     1       5.431  -3.374  -3.300  0.00  0.00    +0.025 C 
ATOM      3  C   UNL     1       6.629  -4.194  -2.774  0.00  0.00    +0.088 C 
ATOM      4  N   UNL     1       6.746  -3.918  -1.331  0.00  0.00    -0.298 NA
ATOM      5  C   UNL     1       5.696  -2.950  -0.949  0.00  0.00    +0.085 C 
ATOM      6  C   UNL     1       6.632  -5.155  -0.547  0.00  0.00    +0.105 C 
ENDROOT
BRANCH   3   7
ATOM      7  C   UNL     1       7.890  -3.772  -3.482  0.00  0.00    -0.012 A 
ATOM      8  C   UNL     1       8.998  -3.373  -2.759  0.00  0.00    +0.115 A 
ATOM      9  N   UNL     1      10.106  -3.002  -3.371  0.00  0.00    -0.263 NA
ATOM     10  C   UNL     1      10.202  -2.996  -4.685  0.00  0.00    +0.111 A 
ATOM     11  C   UNL     1       9.135  -3.383  -5.475  0.00  0.00    +0.020 A 
ATOM     12  C   UNL     1       7.956  -3.784  -4.867  0.00  0.00    +0.008 A 
ENDBRANCH   3   7
TORSDOF 1
ENDMDL
MODEL 4
REMARK VINA RESULT:    -2.264      1.556      2.616
REMARK INTER + INTRA:          -2.636
REMARK INTER:                  -2.431
REMARK INTRA:                  -0.205
REMARK UNBOUND:                -0.239
REMARK  Name = Nicotine.pdb
REMARK  2 active torsions:
REMARK  status: ('A' for Active; 'I' for Inactive)
REMARK    1  A    between atoms: C_3  and  C_6
REMARK    2  A    between atoms: N_4  and  C_12
REMARK                            x       y       z     vdW  Elec       q    Type
REMARK                         _______ _______ _______ _____ _____    ______ ____
ROOT
ATOM      1  C   UNL     1       4.343  -3.051  -3.296  0.00  0.00    +0.017 C 
ATOM      2  C   UNL     1       4.470  -2.901  -1.757  0.00  0.00    +0.025 C 
ATOM      3  C   UNL     1       5.912  -3.375  -1.480  0.00  0.00    +0.088 C 
ATOM      4  N   UNL     1       6.317  -4.230  -2.611  0.00  0.00    -0.298 NA
ATOM      5  C   UNL     1       5.185  -4.326  -3.557  0.00  0.00    +0.085 C 
ATOM      6  C   UNL     1       7.514  -3.696  -3.273  0.00  0.00    +0.105 C 
ENDROOT
BRANCH   3   7
ATOM      7  C   UNL     1       5.955  -4.164  -0.198  0.00  0.00    -0.012 A 
ATOM      8  C   UNL     1       5.381  -3.659   0.954  0.00  0.00    +0.115 A 
ATOM      9  N   UNL     1       5.414  -4.344   2.080  0.00  0.00    -0.263 NA
ATOM     10  C   UNL     1       5.990  -5.527   2.156  0.00  0.00    +0.111 A 
ATOM     11  C   UNL     1       6.585  -6.097   1.045  0.00  0.00    +0.020 A 
ATOM     12  C   UNL     1       6.566  -5.409  -0.158  0.00  0.00    +0.008 A 
ENDBRANCH   3   7
TORSDOF 1
ENDMDL
MODEL 5
REMARK VINA RESULT:    -1.530      2.110      5.016
REMARK INTER + INTRA:          -1.858
REMARK INTER:                  -1.657
REMARK INTRA:                  -0.201
REMARK UNBOUND:                -0.239
REMARK  Name = Nicotine.pdb
REMARK  2 active torsions:
REMARK  status: ('A' for Active; 'I' for Inactive)
REMARK    1  A    between atoms: C_3  and  C_6
REMARK    2  A    between atoms: N_4  and  C_12
REMARK                            x       y       z     vdW  Elec       q    Type
REMARK                         _______ _______ _______ _____ _____    ______ ____
ROOT
ATOM      1  C   UNL     1       5.572  -3.285   0.446  0.00  0.00    +0.017 C 
ATOM      2  C   UNL     1       6.371  -2.547  -0.660  0.00  0.00    +0.025 C 
ATOM      3  C   UNL     1       6.020  -3.345  -1.933  0.00  0.00    +0.088 C 
ATOM      4  N   UNL     1       5.580  -4.685  -1.502  0.00  0.00    -0.298 NA
ATOM      5  C   UNL     1       5.668  -4.757  -0.028  0.00  0.00    +0.085 C 
ATOM      6  C   UNL     1       4.214  -4.965  -1.963  0.00  0.00    +0.105 C 
ENDROOT
BRANCH   3   7
ATOM      7  C   UNL     1       7.235  -3.463  -2.816  0.00  0.00    -0.012 A 
ATOM      8  C   UNL     1       8.431  -2.882  -2.440  0.00  0.00    +0.115 A 
ATOM      9  N   UNL     1       9.500  -2.980  -3.206  0.00  0.00    -0.263 NA
ATOM     10  C   UNL     1       9.472  -3.630  -4.353  0.00  0.00    +0.111 A 
ATOM     11  C   UNL     1       8.312  -4.237  -4.795  0.00  0.00    +0.020 A 
ATOM     12  C   UNL     1       7.170  -4.159  -4.013  0.00  0.00    +0.008 A 
ENDBRANCH   3   7
TORSDOF 1
ENDMDL
