MODEL 1
REMARK VINA RESULT:    -3.669      0.000      0.000
REMARK INTER + INTRA:          -4.098
REMARK INTER:                  -3.884
REMARK INTRA:                  -0.215
REMARK UNBOUND:                -0.215
REMARK  Name = Nicotine.pdb
REMARK  2 active torsions:
REMARK  status: ('A' for Active; 'I' for Inactive)
REMARK    1  A    between atoms: C_3  and  C_6
REMARK    2  A    between atoms: N_4  and  C_12
REMARK                            x       y       z     vdW  Elec       q    Type
REMARK                         _______ _______ _______ _____ _____    ______ ____
ROOT
ATOM      1  C   UNL     1       1.282   0.370  -6.129  0.00  0.00    +0.017 C 
ATOM      2  C   UNL     1       0.507  -0.713  -5.332  0.00  0.00    +0.025 C 
ATOM      3  C   UNL     1       1.488  -1.904  -5.321  0.00  0.00    +0.088 C 
ATOM      4  N   UNL     1       2.411  -1.722  -6.456  0.00  0.00    -0.298 NA
ATOM      5  C   UNL     1       2.029  -0.490  -7.179  0.00  0.00    +0.085 C 
ATOM      6  C   UNL     1       3.804  -1.653  -5.996  0.00  0.00    +0.105 C 
ENDROOT
BRANCH   3   7
ATOM      7  C   UNL     1       0.728  -3.196  -5.479  0.00  0.00    -0.012 A 
ATOM      8  C   UNL     1      -0.494  -3.213  -6.125  0.00  0.00    +0.115 A 
ATOM      9  N   UNL     1      -1.166  -4.339  -6.267  0.00  0.00    -0.263 NA
ATOM     10  C   UNL     1      -0.705  -5.484  -5.805  0.00  0.00    +0.111 A 
ATOM     11  C   UNL     1       0.510  -5.545  -5.149  0.00  0.00    +0.020 A 
ATOM     12  C   UNL     1       1.247  -4.382  -4.985  0.00  0.00    +0.008 A 
ENDBRANCH   3   7
TORSDOF 1
ENDMDL
MODEL 2
REMARK VINA RESULT:    -3.623      7.771      9.648
REMARK INTER + INTRA:          -4.050
REMARK INTER:                  -3.794
REMARK INTRA:                  -0.256
REMARK UNBOUND:                -0.215
REMARK  Name = Nicotine.pdb
REMARK  2 active torsions:
REMARK  status: ('A' for Active; 'I' for Inactive)
REMARK    1  A    between atoms: C_3  and  C_6
REMARK    2  A    between atoms: N_4  and  C_12
REMARK                            x       y       z     vdW  Elec       q    Type
REMARK                         _______ _______ _______ _____ _____    ______ ____
ROOT
ATOM      1  C   UNL     1       8.052   1.112   0.432  0.00  0.00    +0.017 C 
ATOM      2  C   UNL     1       7.802   0.255  -0.836  0.00  0.00    +0.025 C 
ATOM      3  C   UNL     1       9.019   0.587  -1.726  0.00  0.00    +0.088 C 
ATOM      4  N   UNL     1       9.545   1.888  -1.277  0.00  0.00    -0.298 NA
ATOM      5  C   UNL     1       8.697   2.384  -0.173  0.00  0.00    +0.085 C 
ATOM      6  C   UNL     1      10.947   1.772  -0.853  0.00  0.00    +0.105 C 
ENDROOT
BRANCH   3   7
ATOM      7  C   UNL     1       8.591   0.675  -3.168  0.00  0.00    -0.012 A 
ATOM      8  C   UNL     1       9.519   0.526  -4.182  0.00  0.00    +0.115 A 
ATOM      9  N   UNL     1       9.153   0.602  -5.447  0.00  0.00    -0.263 NA
ATOM     10  C   UNL     1       7.900   0.820  -5.794  0.00  0.00    +0.111 A 
ATOM     11  C   UNL     1       6.917   0.978  -4.835  0.00  0.00    +0.020 A 
ATOM     12  C   UNL     1       7.263   0.900  -3.495  0.00  0.00    +0.008 A 
ENDBRANCH   3   7
TORSDOF 1
ENDMDL
MODEL 3
REMARK VINA RESULT:    -3.589      8.775     10.904
REMARK INTER + INTRA:          -4.014
REMARK INTER:                  -3.770
REMARK INTRA:                  -0.244
REMARK UNBOUND:                -0.215
REMARK  Name = Nicotine.pdb
REMARK  2 active torsions:
REMARK  status: ('A' for Active; 'I' for Inactive)
REMARK    1  A    between atoms: C_3  and  C_6
REMARK    2  A    between atoms: N_4  and  C_12
REMARK                            x       y       z     vdW  Elec       q    Type
REMARK                         _______ _______ _______ _____ _____    ______ ____
ROOT
ATOM      1  C   UNL     1       7.725   2.215  -3.476  0.00  0.00    +0.017 C 
ATOM      2  C   UNL     1       8.202   2.794  -2.118  0.00  0.00    +0.025 C 
ATOM      3  C   UNL     1       9.399   1.889  -1.756  0.00  0.00    +0.088 C 
ATOM      4  N   UNL     1       9.231   0.626  -2.496  0.00  0.00    -0.298 NA
ATOM      5  C   UNL     1       7.976   0.699  -3.275  0.00  0.00    +0.085 C 
ATOM      6  C   UNL     1      10.381   0.371  -3.373  0.00  0.00    +0.105 C 
ENDROOT
BRANCH   3   7
ATOM      7  C   UNL     1       9.408   1.619  -0.274  0.00  0.00    -0.012 A 
ATOM      8  C   UNL     1      10.591   1.675   0.439  0.00  0.00    +0.115 A 
ATOM      9  N   UNL     1      10.607   1.440   1.737  0.00  0.00    -0.263 NA
ATOM     10  C   UNL     1       9.508   1.145   2.402  0.00  0.00    +0.111 A 
ATOM     11  C   UNL     1       8.288   1.072   1.756  0.00  0.00    +0.020 A 
ATOM     12  C   UNL     1       8.230   1.318   0.393  0.00  0.00    +0.008 A 
ENDBRANCH   3   7
TORSDOF 1
ENDMDL
MODEL 4
REMARK VINA RESULT:    -3.578      1.077      4.479
REMARK INTER + INTRA:          -4.002
REMARK INTER:                  -3.747
REMARK INTRA:                  -0.256
REMARK UNBOUND:                -0.215
REMARK  Name = Nicotine.pdb
REMARK  2 active torsions:
REMARK  status: ('A' for Active; 'I' for Inactive)
REMARK    1  A    between atoms: C_3  and  C_6
REMARK    2  A    between atoms: N_4  and  C_12
REMARK                            x       y       z     vdW  Elec       q    Type
REMARK                         _______ _______ _______ _____ _____    ______ ____
ROOT
ATOM      1  C   UNL     1       0.270  -5.644  -5.675  0.00  0.00    +0.017 C 
ATOM      2  C   UNL     1       1.165  -4.615  -4.936  0.00  0.00    +0.025 C 
ATOM      3  C   UNL     1       0.642  -3.261  -5.460  0.00  0.00    +0.088 C 
ATOM      4  N   UNL     1      -0.028  -3.520  -6.747  0.00  0.00    -0.298 NA
ATOM      5  C   UNL     1       0.080  -4.962  -7.053  0.00  0.00    +0.085 C 
ATOM      6  C   UNL     1      -1.433  -3.094  -6.705  0.00  0.00    +0.105 C 
ENDROOT
BRANCH   3   7
ATOM      7  C   UNL     1       1.792  -2.309  -5.661  0.00  0.00    -0.012 A 
ATOM      8  C   UNL     1       1.562  -0.954  -5.806  0.00  0.00    +0.115 A 
ATOM      9  N   UNL     1       2.564  -0.115  -5.982  0.00  0.00    -0.263 NA
ATOM     10  C   UNL     1       3.815  -0.528  -6.029  0.00  0.00    +0.111 A 
ATOM     11  C   UNL     1       4.122  -1.869  -5.892  0.00  0.00    +0.020 A 
ATOM     12  C   UNL     1       3.096  -2.781  -5.699  0.00  0.00    +0.008 A 
ENDBRANCH   3   7
TORSDOF 1
ENDMDL
MODEL 5
REMARK VINA RESULT:    -3.542      5.965      8.792
REMARK INTER + INTRA:          -3.964
REMARK INTER:                  -3.745
REMARK INTRA:                  -0.219
REMARK UNBOUND:                -0.215
REMARK  Name = Nicotine.pdb
REMARK  2 active torsions:
REMARK  status: ('A' for Active; 'I' for Inactive)
REMARK    1  A    between atoms: C_3  and  C_6
REMARK    2  A    between atoms: N_4  and  C_12
REMARK                            x       y       z     vdW  Elec       q    Type
REMARK                         _______ _______ _______ _____ _____    ______ ____
ROOT
ATOM      1  C   UNL     1       5.294  -0.123  -5.391  0.00  0.00    +0.017 C 
ATOM      2  C   UNL     1       6.054   0.688  -4.308  0.00  0.00    +0.025 C 
ATOM      3  C   UNL     1       7.458   0.860  -4.926  0.00  0.00    +0.088 C 
ATOM      4  N   UNL     1       7.631  -0.210  -5.924  0.00  0.00    -0.298 NA
ATOM      5  C   UNL     1       6.413  -1.047  -5.932  0.00  0.00    +0.085 C 
ATOM      6  C   UNL     1       7.896   0.349  -7.256  0.00  0.00    +0.105 C 
ENDROOT
BRANCH   3   7
ATOM      7  C   UNL     1       8.509   0.737  -3.853  0.00  0.00    -0.012 A 
ATOM      8  C   UNL     1       9.826   0.489  -4.190  0.00  0.00    +0.115 A 
ATOM      9  N   UNL     1      10.752   0.380  -3.257  0.00  0.00    -0.263 NA
ATOM     10  C   UNL     1      10.463   0.501  -1.976  0.00  0.00    +0.111 A 
ATOM     11  C   UNL     1       9.168   0.750  -1.563  0.00  0.00    +0.020 A 
ATOM     12  C   UNL     1       8.168   0.877  -2.516  0.00  0.00    +0.008 A 
ENDBRANCH   3   7
TORSDOF 1
ENDMDL
MODEL 6
REMARK VINA RESULT:    -3.506      9.503     11.119
REMARK INTER + INTRA:          -3.926
REMARK INTER:                  -3.742
REMARK INTRA:                  -0.184
REMARK UNBOUND:                -0.215
REMARK  Name = Nicotine.pdb
REMARK  2 active torsions:
REMARK  status: ('A' for Active; 'I' for Inactive)
REMARK    1  A    between atoms: C_3  and  C_6
REMARK    2  A    between atoms: N_4  and  C_12
REMARK                            x       y       z     vdW  Elec       q    Type
REMARK                         _______ _______ _______ _____ _____    ______ ____
ROOT
ATOM      1  C   UNL     1       8.646   0.867  -3.366  0.00  0.00    +0.017 C 
ATOM      2  C   UNL     1       7.968   1.138  -1.998  0.00  0.00    +0.025 C 
ATOM      3  C   UNL     1       9.029   1.967  -1.242  0.00  0.00    +0.088 C 
ATOM      4  N   UNL     1      10.333   1.680  -1.867  0.00  0.00    -0.298 NA
ATOM      5  C   UNL     1      10.129   0.697  -2.953  0.00  0.00    +0.085 C 
ATOM      6  C   UNL     1      10.954   2.908  -2.379  0.00  0.00    +0.105 C 
ENDROOT
BRANCH   3   7
ATOM      7  C   UNL     1       9.055   1.565   0.209  0.00  0.00    -0.012 A 
ATOM      8  C   UNL     1       7.939   1.003   0.799  0.00  0.00    +0.115 A 
ATOM      9  N   UNL     1       7.953   0.648   2.070  0.00  0.00    -0.263 NA
ATOM     10  C   UNL     1       9.023   0.813   2.823  0.00  0.00    +0.111 A 
ATOM     11  C   UNL     1      10.177   1.368   2.302  0.00  0.00    +0.020 A 
ATOM     12  C   UNL     1      10.201   1.748   0.969  0.00  0.00    +0.008 A 
ENDBRANCH   3   7
TORSDOF 1
ENDMDL
MODEL 7
REMARK VINA RESULT:    -3.418      8.406     10.853
REMARK INTER + INTRA:          -3.833
REMARK INTER:                  -3.618
REMARK INTRA:                  -0.215
REMARK UNBOUND:                -0.215
REMARK  Name = Nicotine.pdb
REMARK  2 active torsions:
REMARK  status: ('A' for Active; 'I' for Inactive)
REMARK    1  A    between atoms: C_3  and  C_6
REMARK    2  A    between atoms: N_4  and  C_12
REMARK                            x       y       z     vdW  Elec       q    Type
REMARK                         _______ _______ _______ _____ _____    ______ ____
ROOT
ATOM      1  C   UNL     1      10.344   0.714  -4.692  0.00  0.00    +0.017 C 
ATOM      2  C   UNL     1      10.505   0.163  -3.251  0.00  0.00    +0.025 C 
ATOM      3  C   UNL     1       9.182   0.576  -2.571  0.00  0.00    +0.088 C 
ATOM      4  N   UNL     1       8.633   1.709  -3.338  0.00  0.00    -0.298 NA
ATOM      5  C   UNL     1       9.566   2.029  -4.439  0.00  0.00    +0.085 C 
ATOM      6  C   UNL     1       7.295   1.397  -3.855  0.00  0.00    +0.105 C 
ENDROOT
BRANCH   3   7
ATOM      7  C   UNL     1       9.446   0.997  -1.149  0.00  0.00    -0.012 A 
ATOM      8  C   UNL     1      10.715   1.382  -0.758  0.00  0.00    +0.115 A 
ATOM      9  N   UNL     1      10.954   1.752   0.485  0.00  0.00    -0.263 NA
ATOM     10  C   UNL     1      10.003   1.770   1.398  0.00  0.00    +0.111 A 
ATOM     11  C   UNL     1       8.710   1.400   1.081  0.00  0.00    +0.020 A 
ATOM     12  C   UNL     1       8.419   1.010  -0.218  0.00  0.00    +0.008 A 
ENDBRANCH   3   7
TORSDOF 1
ENDMDL
MODEL 8
REMARK VINA RESULT:    -3.363      1.965      2.985
REMARK INTER + INTRA:          -3.775
REMARK INTER:                  -3.581
REMARK INTRA:                  -0.194
REMARK UNBOUND:                -0.215
REMARK  Name = Nicotine.pdb
REMARK  2 active torsions:
REMARK  status: ('A' for Active; 'I' for Inactive)
REMARK    1  A    between atoms: C_3  and  C_6
REMARK    2  A    between atoms: N_4  and  C_12
REMARK                            x       y       z     vdW  Elec       q    Type
REMARK                         _______ _______ _______ _____ _____    ______ ____
ROOT
ATOM      1  C   UNL     1       0.225   1.258  -5.391  0.00  0.00    +0.017 C 
ATOM      2  C   UNL     1       1.015  -0.026  -5.760  0.00  0.00    +0.025 C 
ATOM      3  C   UNL     1      -0.067  -0.932  -6.384  0.00  0.00    +0.088 C 
ATOM      4  N   UNL     1      -1.371  -0.463  -5.883  0.00  0.00    -0.298 NA
ATOM      5  C   UNL     1      -1.143   0.671  -4.962  0.00  0.00    +0.085 C 
ATOM      6  C   UNL     1      -2.252  -0.073  -6.992  0.00  0.00    +0.105 C 
ENDROOT
BRANCH   3   7
ATOM      7  C   UNL     1       0.160  -2.362  -5.967  0.00  0.00    -0.012 A 
ATOM      8  C   UNL     1       1.304  -2.717  -5.277  0.00  0.00    +0.115 A 
ATOM      9  N   UNL     1       1.510  -3.966  -4.909  0.00  0.00    -0.263 NA
ATOM     10  C   UNL     1       0.642  -4.921  -5.181  0.00  0.00    +0.111 A 
ATOM     11  C   UNL     1      -0.525  -4.642  -5.867  0.00  0.00    +0.020 A 
ATOM     12  C   UNL     1      -0.778  -3.339  -6.266  0.00  0.00    +0.008 A 
ENDBRANCH   3   7
TORSDOF 1
ENDMDL
MODEL 9
REMARK VINA RESULT:    -3.256      7.797      9.624
REMARK INTER + INTRA:          -3.662
REMARK INTER:                  -3.405
REMARK INTRA:                  -0.256
REMARK UNBOUND:                -0.215
REMARK  Name = Nicotine.pdb
REMARK  2 active torsions:
REMARK  status: ('A' for Active; 'I' for Inactive)
REMARK    1  A    between atoms: C_3  and  C_6
REMARK    2  A    between atoms: N_4  and  C_12
REMARK                            x       y       z     vdW  Elec       q    Type
REMARK                         _______ _______ _______ _____ _____    ______ ____
ROOT
ATOM      1  C   UNL     1       0.017   4.004   2.834  0.00  0.00    +0.017 C 
ATOM      2  C   UNL     1       0.838   3.263   1.746  0.00  0.00    +0.025 C 
ATOM      3  C   UNL     1       1.380   4.416   0.875  0.00  0.00    +0.088 C 
ATOM      4  N   UNL     1       0.497   5.577   1.088  0.00  0.00    -0.298 NA
ATOM      5  C   UNL     1      -0.575   5.186   2.028  0.00  0.00    +0.085 C 
ATOM      6  C   UNL     1       1.253   6.727   1.600  0.00  0.00    +0.105 C 
ENDROOT
BRANCH   3   7
ATOM      7  C   UNL     1       1.360   4.014  -0.577  0.00  0.00    -0.012 A 
ATOM      8  C   UNL     1       2.175   4.655  -1.491  0.00  0.00    +0.115 A 
ATOM      9  N   UNL     1       2.163   4.310  -2.764  0.00  0.00    -0.263 NA
ATOM     10  C   UNL     1       1.381   3.349  -3.214  0.00  0.00    +0.111 A 
ATOM     11  C   UNL     1       0.539   2.663  -2.359  0.00  0.00    +0.020 A 
ATOM     12  C   UNL     1       0.528   2.994  -1.013  0.00  0.00    +0.008 A 
ENDBRANCH   3   7
TORSDOF 1
ENDMDL
MODEL 10
REMARK VINA RESULT:    -3.240      2.178      3.843
REMARK INTER + INTRA:          -3.644
REMARK INTER:                  -3.454
REMARK INTRA:                  -0.190
REMARK UNBOUND:                -0.215
REMARK  Name = Nicotine.pdb
REMARK  2 active torsions:
REMARK  status: ('A' for Active; 'I' for Inactive)
REMARK    1  A    between atoms: C_3  and  C_6
REMARK    2  A    between atoms: N_4  and  C_12
REMARK                            x       y       z     vdW  Elec       q    Type
REMARK                         _______ _______ _______ _____ _____    ______ ____
ROOT
ATOM      1  C   UNL     1       0.832   2.686  -4.472  0.00  0.00    +0.017 C 
ATOM      2  C   UNL     1       1.704   1.737  -5.334  0.00  0.00    +0.025 C 
ATOM      3  C   UNL     1       0.715   0.620  -5.731  0.00  0.00    +0.088 C 
ATOM      4  N   UNL     1      -0.376   0.631  -4.739  0.00  0.00    -0.298 NA
ATOM      5  C   UNL     1      -0.093   1.682  -3.739  0.00  0.00    +0.085 C 
ATOM      6  C   UNL     1      -1.675   0.856  -5.387  0.00  0.00    +0.105 C 
ENDROOT
BRANCH   3   7
ATOM      7  C   UNL     1       1.413  -0.714  -5.712  0.00  0.00    -0.012 A 
ATOM      8  C   UNL     1       2.735  -0.817  -6.102  0.00  0.00    +0.115 A 
ATOM      9  N   UNL     1       3.354  -1.981  -6.088  0.00  0.00    -0.263 NA
ATOM     10  C   UNL     1       2.745  -3.086  -5.706  0.00  0.00    +0.111 A 
ATOM     11  C   UNL     1       1.423  -3.061  -5.302  0.00  0.00    +0.020 A 
ATOM     12  C   UNL     1       0.741  -1.854  -5.298  0.00  0.00    +0.008 A 
ENDBRANCH   3   7
TORSDOF 1
ENDMDL
