MODEL 1
REMARK VINA RESULT:    -3.775      0.000      0.000
REMARK INTER + INTRA:          -4.181
REMARK INTER:                  -3.996
REMARK INTRA:                  -0.184
REMARK UNBOUND:                -0.184
REMARK  Name = Nicotine.pdb
REMARK  2 active torsions:
REMARK  status: ('A' for Active; 'I' for Inactive)
REMARK    1  A    between atoms: C_3  and  C_6
REMARK    2  A    between atoms: N_4  and  C_12
REMARK                            x       y       z     vdW  Elec       q    Type
REMARK                         _______ _______ _______ _____ _____    ______ ____
ROOT
ATOM      1  C   UNL     1      -0.937  -6.097   0.347  0.00  0.00    +0.017 C 
ATOM      2  C   UNL     1      -1.544  -6.087   1.775  0.00  0.00    +0.025 C 
ATOM      3  C   UNL     1      -2.889  -5.357   1.574  0.00  0.00    +0.088 C 
ATOM      4  N   UNL     1      -2.770  -4.550   0.347  0.00  0.00    -0.298 NA
ATOM      5  C   UNL     1      -1.410  -4.728  -0.204  0.00  0.00    +0.085 C 
ATOM      6  C   UNL     1      -3.791  -4.934  -0.637  0.00  0.00    +0.105 C 
ENDROOT
BRANCH   3   7
ATOM      7  C   UNL     1      -3.167  -4.461   2.753  0.00  0.00    -0.012 A 
ATOM      8  C   UNL     1      -2.631  -4.751   3.994  0.00  0.00    +0.115 A 
ATOM      9  N   UNL     1      -2.868  -3.972   5.031  0.00  0.00    -0.263 NA
ATOM     10  C   UNL     1      -3.621  -2.894   4.930  0.00  0.00    +0.111 A 
ATOM     11  C   UNL     1      -4.191  -2.540   3.721  0.00  0.00    +0.020 A 
ATOM     12  C   UNL     1      -3.959  -3.332   2.607  0.00  0.00    +0.008 A 
ENDBRANCH   3   7
TORSDOF 1
ENDMDL
MODEL 2
REMARK VINA RESULT:    -3.738      1.205      4.545
REMARK INTER + INTRA:          -4.140
REMARK INTER:                  -3.925
REMARK INTRA:                  -0.216
REMARK UNBOUND:                -0.184
REMARK  Name = Nicotine.pdb
REMARK  2 active torsions:
REMARK  status: ('A' for Active; 'I' for Inactive)
REMARK    1  A    between atoms: C_3  and  C_6
REMARK    2  A    between atoms: N_4  and  C_12
REMARK                            x       y       z     vdW  Elec       q    Type
REMARK                         _______ _______ _______ _____ _____    ______ ____
ROOT
ATOM      1  C   UNL     1      -4.658  -2.692   4.510  0.00  0.00    +0.017 C 
ATOM      2  C   UNL     1      -4.635  -3.395   3.127  0.00  0.00    +0.025 C 
ATOM      3  C   UNL     1      -3.872  -4.705   3.415  0.00  0.00    +0.088 C 
ATOM      4  N   UNL     1      -3.066  -4.483   4.630  0.00  0.00    -0.298 NA
ATOM      5  C   UNL     1      -3.277  -3.093   5.087  0.00  0.00    +0.085 C 
ATOM      6  C   UNL     1      -3.422  -5.443   5.682  0.00  0.00    +0.105 C 
ENDROOT
BRANCH   3   7
ATOM      7  C   UNL     1      -2.971  -5.039   2.255  0.00  0.00    -0.012 A 
ATOM      8  C   UNL     1      -1.833  -5.799   2.450  0.00  0.00    +0.115 A 
ATOM      9  N   UNL     1      -1.040  -6.097   1.439  0.00  0.00    -0.263 NA
ATOM     10  C   UNL     1      -1.295  -5.686   0.213  0.00  0.00    +0.111 A 
ATOM     11  C   UNL     1      -2.415  -4.922  -0.059  0.00  0.00    +0.020 A 
ATOM     12  C   UNL     1      -3.276  -4.594   0.978  0.00  0.00    +0.008 A 
ENDBRANCH   3   7
TORSDOF 1
ENDMDL
MODEL 3
REMARK VINA RESULT:    -3.118      3.677      5.738
REMARK INTER + INTRA:          -3.485
REMARK INTER:                  -3.261
REMARK INTRA:                  -0.224
REMARK UNBOUND:                -0.184
REMARK  Name = Nicotine.pdb
REMARK  2 active torsions:
REMARK  status: ('A' for Active; 'I' for Inactive)
REMARK    1  A    between atoms: C_3  and  C_6
REMARK    2  A    between atoms: N_4  and  C_12
REMARK                            x       y       z     vdW  Elec       q    Type
REMARK                         _______ _______ _______ _____ _____    ______ ____
ROOT
ATOM      1  C   UNL     1       1.165  -6.038  -4.915  0.00  0.00    +0.017 C 
ATOM      2  C   UNL     1      -0.287  -5.577  -4.624  0.00  0.00    +0.025 C 
ATOM      3  C   UNL     1      -0.113  -4.604  -3.439  0.00  0.00    +0.088 C 
ATOM      4  N   UNL     1       1.163  -4.941  -2.782  0.00  0.00    -0.298 NA
ATOM      5  C   UNL     1       1.768  -6.089  -3.489  0.00  0.00    +0.085 C 
ATOM      6  C   UNL     1       2.073  -3.788  -2.774  0.00  0.00    +0.105 C 
ENDROOT
BRANCH   3   7
ATOM      7  C   UNL     1      -1.252  -4.770  -2.467  0.00  0.00    -0.012 A 
ATOM      8  C   UNL     1      -1.000  -5.029  -1.133  0.00  0.00    +0.115 A 
ATOM      9  N   UNL     1      -1.991  -5.175  -0.275  0.00  0.00    -0.263 NA
ATOM     10  C   UNL     1      -3.251  -5.082  -0.651  0.00  0.00    +0.111 A 
ATOM     11  C   UNL     1      -3.580  -4.825  -1.968  0.00  0.00    +0.020 A 
ATOM     12  C   UNL     1      -2.565  -4.659  -2.898  0.00  0.00    +0.008 A 
ENDBRANCH   3   7
TORSDOF 1
ENDMDL
MODEL 4
REMARK VINA RESULT:    -3.085      4.528      6.039
REMARK INTER + INTRA:          -3.450
REMARK INTER:                  -3.234
REMARK INTRA:                  -0.216
REMARK UNBOUND:                -0.184
REMARK  Name = Nicotine.pdb
REMARK  2 active torsions:
REMARK  status: ('A' for Active; 'I' for Inactive)
REMARK    1  A    between atoms: C_3  and  C_6
REMARK    2  A    between atoms: N_4  and  C_12
REMARK                            x       y       z     vdW  Elec       q    Type
REMARK                         _______ _______ _______ _____ _____    ______ ____
ROOT
ATOM      1  C   UNL     1       2.127  -5.237  -2.651  0.00  0.00    +0.017 C 
ATOM      2  C   UNL     1       0.793  -5.835  -2.132  0.00  0.00    +0.025 C 
ATOM      3  C   UNL     1      -0.163  -5.642  -3.329  0.00  0.00    +0.088 C 
ATOM      4  N   UNL     1       0.390  -4.556  -4.159  0.00  0.00    -0.298 NA
ATOM      5  C   UNL     1       1.624  -4.055  -3.518  0.00  0.00    +0.085 C 
ATOM      6  C   UNL     1       0.658  -5.022  -5.526  0.00  0.00    +0.105 C 
ENDROOT
BRANCH   3   7
ATOM      7  C   UNL     1      -1.535  -5.264  -2.835  0.00  0.00    -0.012 A 
ATOM      8  C   UNL     1      -2.395  -4.543  -3.642  0.00  0.00    +0.115 A 
ATOM      9  N   UNL     1      -3.597  -4.208  -3.216  0.00  0.00    -0.263 NA
ATOM     10  C   UNL     1      -4.026  -4.542  -2.015  0.00  0.00    +0.111 A 
ATOM     11  C   UNL     1      -3.222  -5.264  -1.153  0.00  0.00    +0.020 A 
ATOM     12  C   UNL     1      -1.953  -5.638  -1.567  0.00  0.00    +0.008 A 
ENDBRANCH   3   7
TORSDOF 1
ENDMDL
MODEL 5
REMARK VINA RESULT:    -2.940      3.027      4.953
REMARK INTER + INTRA:          -3.296
REMARK INTER:                  -3.062
REMARK INTRA:                  -0.234
REMARK UNBOUND:                -0.184
REMARK  Name = Nicotine.pdb
REMARK  2 active torsions:
REMARK  status: ('A' for Active; 'I' for Inactive)
REMARK    1  A    between atoms: C_3  and  C_6
REMARK    2  A    between atoms: N_4  and  C_12
REMARK                            x       y       z     vdW  Elec       q    Type
REMARK                         _______ _______ _______ _____ _____    ______ ____
ROOT
ATOM      1  C   UNL     1      -2.621  -4.757  -4.980  0.00  0.00    +0.017 C 
ATOM      2  C   UNL     1      -2.776  -4.202  -3.540  0.00  0.00    +0.025 C 
ATOM      3  C   UNL     1      -1.472  -4.657  -2.850  0.00  0.00    +0.088 C 
ATOM      4  N   UNL     1      -0.953  -5.807  -3.613  0.00  0.00    -0.298 NA
ATOM      5  C   UNL     1      -1.887  -6.097  -4.722  0.00  0.00    +0.085 C 
ATOM      6  C   UNL     1       0.399  -5.536  -4.119  0.00  0.00    +0.105 C 
ENDROOT
BRANCH   3   7
ATOM      7  C   UNL     1      -1.760  -5.070  -1.430  0.00  0.00    -0.012 A 
ATOM      8  C   UNL     1      -0.761  -5.608  -0.642  0.00  0.00    +0.115 A 
ATOM      9  N   UNL     1      -1.004  -5.971   0.602  0.00  0.00    -0.263 NA
ATOM     10  C   UNL     1      -2.200  -5.839   1.141  0.00  0.00    +0.111 A 
ATOM     11  C   UNL     1      -3.249  -5.309   0.414  0.00  0.00    +0.020 A 
ATOM     12  C   UNL     1      -3.030  -4.910  -0.896  0.00  0.00    +0.008 A 
ENDBRANCH   3   7
TORSDOF 1
ENDMDL
MODEL 6
REMARK VINA RESULT:    -2.894      3.054      6.457
REMARK INTER + INTRA:          -3.247
REMARK INTER:                  -3.052
REMARK INTRA:                  -0.195
REMARK UNBOUND:                -0.184
REMARK  Name = Nicotine.pdb
REMARK  2 active torsions:
REMARK  status: ('A' for Active; 'I' for Inactive)
REMARK    1  A    between atoms: C_3  and  C_6
REMARK    2  A    between atoms: N_4  and  C_12
REMARK                            x       y       z     vdW  Elec       q    Type
REMARK                         _______ _______ _______ _____ _____    ______ ____
ROOT
ATOM      1  C   UNL     1      -3.662  -4.916  -0.200  0.00  0.00    +0.017 C 
ATOM      2  C   UNL     1      -3.222  -5.426  -1.598  0.00  0.00    +0.025 C 
ATOM      3  C   UNL     1      -1.763  -5.871  -1.361  0.00  0.00    +0.088 C 
ATOM      4  N   UNL     1      -1.276  -5.155  -0.169  0.00  0.00    -0.298 NA
ATOM      5  C   UNL     1      -2.354  -4.272   0.324  0.00  0.00    +0.085 C 
ATOM      6  C   UNL     1      -0.847  -6.097   0.873  0.00  0.00    +0.105 C 
ENDROOT
BRANCH   3   7
ATOM      7  C   UNL     1      -0.918  -5.515  -2.557  0.00  0.00    -0.012 A 
ATOM      8  C   UNL     1      -1.401  -5.711  -3.837  0.00  0.00    +0.115 A 
ATOM      9  N   UNL     1      -0.668  -5.401  -4.889  0.00  0.00    -0.263 NA
ATOM     10  C   UNL     1       0.544  -4.897  -4.765  0.00  0.00    +0.111 A 
ATOM     11  C   UNL     1       1.093  -4.673  -3.516  0.00  0.00    +0.020 A 
ATOM     12  C   UNL     1       0.350  -4.981  -2.387  0.00  0.00    +0.008 A 
ENDBRANCH   3   7
TORSDOF 1
ENDMDL
MODEL 7
REMARK VINA RESULT:    -2.732      4.945      7.798
REMARK INTER + INTRA:          -3.077
REMARK INTER:                  -2.821
REMARK INTRA:                  -0.256
REMARK UNBOUND:                -0.184
REMARK  Name = Nicotine.pdb
REMARK  2 active torsions:
REMARK  status: ('A' for Active; 'I' for Inactive)
REMARK    1  A    between atoms: C_3  and  C_6
REMARK    2  A    between atoms: N_4  and  C_12
REMARK                            x       y       z     vdW  Elec       q    Type
REMARK                         _______ _______ _______ _____ _____    ______ ____
ROOT
ATOM      1  C   UNL     1       2.039  -4.808  -2.756  0.00  0.00    +0.017 C 
ATOM      2  C   UNL     1       1.113  -4.280  -3.883  0.00  0.00    +0.025 C 
ATOM      3  C   UNL     1      -0.297  -4.650  -3.375  0.00  0.00    +0.088 C 
ATOM      4  N   UNL     1      -0.138  -5.753  -2.410  0.00  0.00    -0.298 NA
ATOM      5  C   UNL     1       1.297  -6.096  -2.319  0.00  0.00    +0.085 C 
ATOM      6  C   UNL     1      -0.676  -5.385  -1.095  0.00  0.00    +0.105 C 
ENDROOT
BRANCH   3   7
ATOM      7  C   UNL     1      -1.157  -5.096  -4.529  0.00  0.00    -0.012 A 
ATOM      8  C   UNL     1      -2.532  -5.141  -4.400  0.00  0.00    +0.115 A 
ATOM      9  N   UNL     1      -3.292  -5.530  -5.405  0.00  0.00    -0.263 NA
ATOM     10  C   UNL     1      -2.777  -5.890  -6.564  0.00  0.00    +0.111 A 
ATOM     11  C   UNL     1      -1.409  -5.871  -6.768  0.00  0.00    +0.020 A 
ATOM     12  C   UNL     1      -0.579  -5.462  -5.735  0.00  0.00    +0.008 A 
ENDBRANCH   3   7
TORSDOF 1
ENDMDL
MODEL 8
REMARK VINA RESULT:    -2.456      1.696      4.841
REMARK INTER + INTRA:          -2.784
REMARK INTER:                  -2.591
REMARK INTRA:                  -0.193
REMARK UNBOUND:                -0.184
REMARK  Name = Nicotine.pdb
REMARK  2 active torsions:
REMARK  status: ('A' for Active; 'I' for Inactive)
REMARK    1  A    between atoms: C_3  and  C_6
REMARK    2  A    between atoms: N_4  and  C_12
REMARK                            x       y       z     vdW  Elec       q    Type
REMARK                         _______ _______ _______ _____ _____    ______ ____
ROOT
ATOM      1  C   UNL     1      -1.824  -6.097   2.905  0.00  0.00    +0.017 C 
ATOM      2  C   UNL     1      -1.267  -5.889   1.472  0.00  0.00    +0.025 C 
ATOM      3  C   UNL     1      -2.152  -4.752   0.918  0.00  0.00    +0.088 C 
ATOM      4  N   UNL     1      -3.400  -4.748   1.702  0.00  0.00    -0.298 NA
ATOM      5  C   UNL     1      -3.337  -5.843   2.693  0.00  0.00    +0.085 C 
ATOM      6  C   UNL     1      -3.605  -3.452   2.360  0.00  0.00    +0.105 C 
ENDROOT
BRANCH   3   7
ATOM      7  C   UNL     1      -2.458  -5.003  -0.536  0.00  0.00    -0.012 A 
ATOM      8  C   UNL     1      -1.750  -4.345  -1.523  0.00  0.00    +0.115 A 
ATOM      9  N   UNL     1      -2.011  -4.558  -2.798  0.00  0.00    -0.263 NA
ATOM     10  C   UNL     1      -2.950  -5.401  -3.181  0.00  0.00    +0.111 A 
ATOM     11  C   UNL     1      -3.700  -6.096  -2.250  0.00  0.00    +0.020 A 
ATOM     12  C   UNL     1      -3.450  -5.901  -0.900  0.00  0.00    +0.008 A 
ENDBRANCH   3   7
TORSDOF 1
ENDMDL
