MODEL 1
REMARK VINA RESULT:     5.987      0.000      0.000
REMARK INTER + INTRA:           6.083
REMARK INTER:                   6.337
REMARK INTRA:                  -0.254
REMARK UNBOUND:                -0.254
REMARK  Name = Nicotine.pdb
REMARK  2 active torsions:
REMARK  status: ('A' for Active; 'I' for Inactive)
REMARK    1  A    between atoms: C_3  and  C_6
REMARK    2  A    between atoms: N_4  and  C_12
REMARK                            x       y       z     vdW  Elec       q    Type
REMARK                         _______ _______ _______ _____ _____    ______ ____
ROOT
ATOM      1  C   UNL     1       1.685  -4.595  -4.423  0.00  0.00    +0.017 C 
ATOM      2  C   UNL     1       3.152  -4.099  -4.332  0.00  0.00    +0.025 C 
ATOM      3  C   UNL     1       3.849  -4.862  -5.478  0.00  0.00    +0.088 C 
ATOM      4  N   UNL     1       3.031  -6.053  -5.770  0.00  0.00    -0.298 NA
ATOM      5  C   UNL     1       1.880  -6.073  -4.843  0.00  0.00    +0.085 C 
ATOM      6  C   UNL     1       2.581  -6.054  -7.168  0.00  0.00    +0.105 C 
ENDROOT
BRANCH   3   7
ATOM      7  C   UNL     1       5.232  -5.280  -5.050  0.00  0.00    -0.012 A 
ATOM      8  C   UNL     1       6.148  -5.726  -5.984  0.00  0.00    +0.115 A 
ATOM      9  N   UNL     1       7.360  -6.094  -5.618  0.00  0.00    -0.263 NA
ATOM     10  C   UNL     1       7.746  -6.052  -4.358  0.00  0.00    +0.111 A 
ATOM     11  C   UNL     1       6.885  -5.617  -3.368  0.00  0.00    +0.020 A 
ATOM     12  C   UNL     1       5.603  -5.218  -3.716  0.00  0.00    +0.008 A 
ENDBRANCH   3   7
TORSDOF 1
ENDMDL
MODEL 2
REMARK VINA RESULT:     7.457      1.133      1.586
REMARK INTER + INTRA:           7.638
REMARK INTER:                   7.826
REMARK INTRA:                  -0.187
REMARK UNBOUND:                -0.254
REMARK  Name = Nicotine.pdb
REMARK  2 active torsions:
REMARK  status: ('A' for Active; 'I' for Inactive)
REMARK    1  A    between atoms: C_3  and  C_6
REMARK    2  A    between atoms: N_4  and  C_12
REMARK                            x       y       z     vdW  Elec       q    Type
REMARK                         _______ _______ _______ _____ _____    ______ ____
ROOT
ATOM      1  C   UNL     1       1.649  -5.864  -4.046  0.00  0.00    +0.017 C 
ATOM      2  C   UNL     1       3.079  -6.096  -3.493  0.00  0.00    +0.025 C 
ATOM      3  C   UNL     1       3.865  -4.886  -4.041  0.00  0.00    +0.088 C 
ATOM      4  N   UNL     1       3.131  -4.385  -5.217  0.00  0.00    -0.298 NA
ATOM      5  C   UNL     1       1.947  -5.244  -5.434  0.00  0.00    +0.085 C 
ATOM      6  C   UNL     1       2.738  -2.982  -5.036  0.00  0.00    +0.105 C 
ENDROOT
BRANCH   3   7
ATOM      7  C   UNL     1       5.251  -5.314  -4.445  0.00  0.00    -0.012 A 
ATOM      8  C   UNL     1       5.534  -5.614  -5.764  0.00  0.00    +0.115 A 
ATOM      9  N   UNL     1       6.746  -5.990  -6.126  0.00  0.00    -0.263 NA
ATOM     10  C   UNL     1       7.728  -6.095  -5.253  0.00  0.00    +0.111 A 
ATOM     11  C   UNL     1       7.521  -5.811  -3.916  0.00  0.00    +0.020 A 
ATOM     12  C   UNL     1       6.261  -5.408  -3.500  0.00  0.00    +0.008 A 
ENDBRANCH   3   7
TORSDOF 1
ENDMDL
MODEL 3
REMARK VINA RESULT:     8.135      1.438      4.692
REMARK INTER + INTRA:           8.356
REMARK INTER:                   8.569
REMARK INTRA:                  -0.213
REMARK UNBOUND:                -0.254
REMARK  Name = Nicotine.pdb
REMARK  2 active torsions:
REMARK  status: ('A' for Active; 'I' for Inactive)
REMARK    1  A    between atoms: C_3  and  C_6
REMARK    2  A    between atoms: N_4  and  C_12
REMARK                            x       y       z     vdW  Elec       q    Type
REMARK                         _______ _______ _______ _____ _____    ______ ____
ROOT
ATOM      1  C   UNL     1       7.699  -6.088  -5.102  0.00  0.00    +0.017 C 
ATOM      2  C   UNL     1       6.299  -6.096  -5.771  0.00  0.00    +0.025 C 
ATOM      3  C   UNL     1       5.551  -4.970  -5.025  0.00  0.00    +0.088 C 
ATOM      4  N   UNL     1       6.230  -4.778  -3.731  0.00  0.00    -0.298 NA
ATOM      5  C   UNL     1       7.342  -5.747  -3.633  0.00  0.00    +0.085 C 
ATOM      6  C   UNL     1       6.718  -3.400  -3.591  0.00  0.00    +0.105 C 
ENDROOT
BRANCH   3   7
ATOM      7  C   UNL     1       4.116  -5.370  -4.799  0.00  0.00    -0.012 A 
ATOM      8  C   UNL     1       3.656  -5.629  -3.522  0.00  0.00    +0.115 A 
ATOM      9  N   UNL     1       2.401  -5.980  -3.315  0.00  0.00    -0.263 NA
ATOM     10  C   UNL     1       1.542  -6.097  -4.308  0.00  0.00    +0.111 A 
ATOM     11  C   UNL     1       1.930  -5.854  -5.612  0.00  0.00    +0.020 A 
ATOM     12  C   UNL     1       3.240  -5.478  -5.868  0.00  0.00    +0.008 A 
ENDBRANCH   3   7
TORSDOF 1
ENDMDL
MODEL 4
REMARK VINA RESULT:     8.316      1.294      4.472
REMARK INTER + INTRA:           8.548
REMARK INTER:                   8.733
REMARK INTRA:                  -0.185
REMARK UNBOUND:                -0.254
REMARK  Name = Nicotine.pdb
REMARK  2 active torsions:
REMARK  status: ('A' for Active; 'I' for Inactive)
REMARK    1  A    between atoms: C_3  and  C_6
REMARK    2  A    between atoms: N_4  and  C_12
REMARK                            x       y       z     vdW  Elec       q    Type
REMARK                         _______ _______ _______ _____ _____    ______ ____
ROOT
ATOM      1  C   UNL     1       6.398  -4.613  -3.156  0.00  0.00    +0.017 C 
ATOM      2  C   UNL     1       5.061  -5.393  -3.260  0.00  0.00    +0.025 C 
ATOM      3  C   UNL     1       5.144  -6.038  -4.659  0.00  0.00    +0.088 C 
ATOM      4  N   UNL     1       6.101  -5.245  -5.451  0.00  0.00    -0.298 NA
ATOM      5  C   UNL     1       6.592  -4.129  -4.615  0.00  0.00    +0.085 C 
ATOM      6  C   UNL     1       7.214  -6.080  -5.923  0.00  0.00    +0.105 C 
ENDROOT
BRANCH   3   7
ATOM      7  C   UNL     1       3.788  -6.013  -5.316  0.00  0.00    -0.012 A 
ATOM      8  C   UNL     1       2.642  -5.899  -4.552  0.00  0.00    +0.115 A 
ATOM      9  N   UNL     1       1.452  -5.875  -5.119  0.00  0.00    -0.263 NA
ATOM     10  C   UNL     1       1.306  -5.959  -6.426  0.00  0.00    +0.111 A 
ATOM     11  C   UNL     1       2.406  -6.074  -7.256  0.00  0.00    +0.020 A 
ATOM     12  C   UNL     1       3.674  -6.097  -6.696  0.00  0.00    +0.008 A 
ENDBRANCH   3   7
TORSDOF 1
ENDMDL
