MODEL 1
REMARK VINA RESULT:    -3.378      0.000      0.000
REMARK INTER + INTRA:          -3.797
REMARK INTER:                  -3.575
REMARK INTRA:                  -0.221
REMARK UNBOUND:                -0.221
REMARK  Name = Nicotine.pdb
REMARK  2 active torsions:
REMARK  status: ('A' for Active; 'I' for Inactive)
REMARK    1  A    between atoms: C_3  and  C_6
REMARK    2  A    between atoms: N_4  and  C_12
REMARK                            x       y       z     vdW  Elec       q    Type
REMARK                         _______ _______ _______ _____ _____    ______ ____
ROOT
ATOM      1  C   UNL     1       8.561   4.752  -2.440  0.00  0.00    +0.017 C 
ATOM      2  C   UNL     1       8.758   3.843  -1.199  0.00  0.00    +0.025 C 
ATOM      3  C   UNL     1       9.288   2.529  -1.812  0.00  0.00    +0.088 C 
ATOM      4  N   UNL     1       8.871   2.507  -3.226  0.00  0.00    -0.298 NA
ATOM      5  C   UNL     1       8.089   3.730  -3.505  0.00  0.00    +0.085 C 
ATOM      6  C   UNL     1      10.034   2.410  -4.117  0.00  0.00    +0.105 C 
ENDROOT
BRANCH   3   7
ATOM      7  C   UNL     1       8.698   1.349  -1.084  0.00  0.00    -0.012 A 
ATOM      8  C   UNL     1       8.127   0.307  -1.789  0.00  0.00    +0.115 A 
ATOM      9  N   UNL     1       7.608  -0.730  -1.159  0.00  0.00    -0.263 NA
ATOM     10  C   UNL     1       7.614  -0.815   0.156  0.00  0.00    +0.111 A 
ATOM     11  C   UNL     1       8.169   0.189   0.928  0.00  0.00    +0.020 A 
ATOM     12  C   UNL     1       8.728   1.292   0.301  0.00  0.00    +0.008 A 
ENDBRANCH   3   7
TORSDOF 1
ENDMDL
MODEL 2
REMARK VINA RESULT:    -3.288      1.763      2.127
REMARK INTER + INTRA:          -3.702
REMARK INTER:                  -3.446
REMARK INTRA:                  -0.256
REMARK UNBOUND:                -0.221
REMARK  Name = Nicotine.pdb
REMARK  2 active torsions:
REMARK  status: ('A' for Active; 'I' for Inactive)
REMARK    1  A    between atoms: C_3  and  C_6
REMARK    2  A    between atoms: N_4  and  C_12
REMARK                            x       y       z     vdW  Elec       q    Type
REMARK                         _______ _______ _______ _____ _____    ______ ____
ROOT
ATOM      1  C   UNL     1       7.881   5.122  -2.351  0.00  0.00    +0.017 C 
ATOM      2  C   UNL     1       8.657   3.913  -1.765  0.00  0.00    +0.025 C 
ATOM      3  C   UNL     1       9.187   3.197  -3.026  0.00  0.00    +0.088 C 
ATOM      4  N   UNL     1       8.327   3.602  -4.152  0.00  0.00    -0.298 NA
ATOM      5  C   UNL     1       7.279   4.511  -3.641  0.00  0.00    +0.085 C 
ATOM      6  C   UNL     1       9.114   4.246  -5.211  0.00  0.00    +0.105 C 
ENDROOT
BRANCH   3   7
ATOM      7  C   UNL     1       9.116   1.704  -2.835  0.00  0.00    -0.012 A 
ATOM      8  C   UNL     1       9.919   0.865  -3.583  0.00  0.00    +0.115 A 
ATOM      9  N   UNL     1       9.864  -0.443  -3.423  0.00  0.00    -0.263 NA
ATOM     10  C   UNL     1       9.046  -1.000  -2.551  0.00  0.00    +0.111 A 
ATOM     11  C   UNL     1       8.213  -0.224  -1.767  0.00  0.00    +0.020 A 
ATOM     12  C   UNL     1       8.248   1.155  -1.904  0.00  0.00    +0.008 A 
ENDBRANCH   3   7
TORSDOF 1
ENDMDL
MODEL 3
REMARK VINA RESULT:    -3.215      1.763      3.200
REMARK INTER + INTRA:          -3.624
REMARK INTER:                  -3.400
REMARK INTRA:                  -0.224
REMARK UNBOUND:                -0.221
REMARK  Name = Nicotine.pdb
REMARK  2 active torsions:
REMARK  status: ('A' for Active; 'I' for Inactive)
REMARK    1  A    between atoms: C_3  and  C_6
REMARK    2  A    between atoms: N_4  and  C_12
REMARK                            x       y       z     vdW  Elec       q    Type
REMARK                         _______ _______ _______ _____ _____    ______ ____
ROOT
ATOM      1  C   UNL     1       9.755  -0.637  -3.478  0.00  0.00    +0.017 C 
ATOM      2  C   UNL     1       8.735  -1.113  -2.411  0.00  0.00    +0.025 C 
ATOM      3  C   UNL     1       8.217   0.212  -1.811  0.00  0.00    +0.088 C 
ATOM      4  N   UNL     1       9.237   1.241  -2.078  0.00  0.00    -0.298 NA
ATOM      5  C   UNL     1      10.368   0.609  -2.791  0.00  0.00    +0.085 C 
ATOM      6  C   UNL     1       8.676   2.350  -2.860  0.00  0.00    +0.105 C 
ENDROOT
BRANCH   3   7
ATOM      7  C   UNL     1       8.018   0.058  -0.325  0.00  0.00    -0.012 A 
ATOM      8  C   UNL     1       8.650   0.915   0.557  0.00  0.00    +0.115 A 
ATOM      9  N   UNL     1       8.482   0.787   1.858  0.00  0.00    -0.263 NA
ATOM     10  C   UNL     1       7.711  -0.153   2.369  0.00  0.00    +0.111 A 
ATOM     11  C   UNL     1       7.047  -1.046   1.549  0.00  0.00    +0.020 A 
ATOM     12  C   UNL     1       7.195  -0.939   0.175  0.00  0.00    +0.008 A 
ENDBRANCH   3   7
TORSDOF 1
ENDMDL
MODEL 4
REMARK VINA RESULT:    -3.212      3.808      4.656
REMARK INTER + INTRA:          -3.622
REMARK INTER:                  -3.406
REMARK INTRA:                  -0.216
REMARK UNBOUND:                -0.221
REMARK  Name = Nicotine.pdb
REMARK  2 active torsions:
REMARK  status: ('A' for Active; 'I' for Inactive)
REMARK    1  A    between atoms: C_3  and  C_6
REMARK    2  A    between atoms: N_4  and  C_12
REMARK                            x       y       z     vdW  Elec       q    Type
REMARK                         _______ _______ _______ _____ _____    ______ ____
ROOT
ATOM      1  C   UNL     1       6.770   5.295  -3.159  0.00  0.00    +0.017 C 
ATOM      2  C   UNL     1       7.951   4.312  -2.944  0.00  0.00    +0.025 C 
ATOM      3  C   UNL     1       8.965   4.745  -4.025  0.00  0.00    +0.088 C 
ATOM      4  N   UNL     1       8.210   5.458  -5.071  0.00  0.00    -0.298 NA
ATOM      5  C   UNL     1       6.779   5.462  -4.699  0.00  0.00    +0.085 C 
ATOM      6  C   UNL     1       8.714   6.826  -5.244  0.00  0.00    +0.105 C 
ENDROOT
BRANCH   3   7
ATOM      7  C   UNL     1       9.637   3.531  -4.612  0.00  0.00    -0.012 A 
ATOM      8  C   UNL     1       9.942   3.485  -5.960  0.00  0.00    +0.115 A 
ATOM      9  N   UNL     1      10.531   2.427  -6.482  0.00  0.00    -0.263 NA
ATOM     10  C   UNL     1      10.850   1.379  -5.749  0.00  0.00    +0.111 A 
ATOM     11  C   UNL     1      10.577   1.353  -4.394  0.00  0.00    +0.020 A 
ATOM     12  C   UNL     1       9.963   2.450  -3.808  0.00  0.00    +0.008 A 
ENDBRANCH   3   7
TORSDOF 1
ENDMDL
MODEL 5
REMARK VINA RESULT:    -3.131      1.650      2.210
REMARK INTER + INTRA:          -3.535
REMARK INTER:                  -3.335
REMARK INTRA:                  -0.200
REMARK UNBOUND:                -0.221
REMARK  Name = Nicotine.pdb
REMARK  2 active torsions:
REMARK  status: ('A' for Active; 'I' for Inactive)
REMARK    1  A    between atoms: C_3  and  C_6
REMARK    2  A    between atoms: N_4  and  C_12
REMARK                            x       y       z     vdW  Elec       q    Type
REMARK                         _______ _______ _______ _____ _____    ______ ____
ROOT
ATOM      1  C   UNL     1       9.196   3.416  -1.856  0.00  0.00    +0.017 C 
ATOM      2  C   UNL     1       9.198   2.777  -0.443  0.00  0.00    +0.025 C 
ATOM      3  C   UNL     1       9.304   1.267  -0.744  0.00  0.00    +0.088 C 
ATOM      4  N   UNL     1       8.822   1.061  -2.122  0.00  0.00    -0.298 NA
ATOM      5  C   UNL     1       8.401   2.367  -2.673  0.00  0.00    +0.085 C 
ATOM      6  C   UNL     1       9.861   0.447  -2.958  0.00  0.00    +0.105 C 
ENDROOT
BRANCH   3   7
ATOM      7  C   UNL     1       8.448   0.489   0.222  0.00  0.00    -0.012 A 
ATOM      8  C   UNL     1       8.480   0.778   1.573  0.00  0.00    +0.115 A 
ATOM      9  N   UNL     1       7.734   0.102   2.425  0.00  0.00    -0.263 NA
ATOM     10  C   UNL     1       6.933  -0.867   2.028  0.00  0.00    +0.111 A 
ATOM     11  C   UNL     1       6.848  -1.212   0.692  0.00  0.00    +0.020 A 
ATOM     12  C   UNL     1       7.613  -0.520  -0.234  0.00  0.00    +0.008 A 
ENDBRANCH   3   7
TORSDOF 1
ENDMDL
MODEL 6
REMARK VINA RESULT:    -3.116      4.279      6.479
REMARK INTER + INTRA:          -3.520
REMARK INTER:                  -3.264
REMARK INTRA:                  -0.255
REMARK UNBOUND:                -0.221
REMARK  Name = Nicotine.pdb
REMARK  2 active torsions:
REMARK  status: ('A' for Active; 'I' for Inactive)
REMARK    1  A    between atoms: C_3  and  C_6
REMARK    2  A    between atoms: N_4  and  C_12
REMARK                            x       y       z     vdW  Elec       q    Type
REMARK                         _______ _______ _______ _____ _____    ______ ____
ROOT
ATOM      1  C   UNL     1       7.535  -0.737   0.032  0.00  0.00    +0.017 C 
ATOM      2  C   UNL     1       6.461  -1.358   0.964  0.00  0.00    +0.025 C 
ATOM      3  C   UNL     1       7.261  -1.688   2.243  0.00  0.00    +0.088 C 
ATOM      4  N   UNL     1       8.679  -1.795   1.855  0.00  0.00    -0.298 NA
ATOM      5  C   UNL     1       8.787  -1.572   0.398  0.00  0.00    +0.085 C 
ATOM      6  C   UNL     1       9.502  -0.832   2.598  0.00  0.00    +0.105 C 
ENDROOT
BRANCH   3   7
ATOM      7  C   UNL     1       6.786  -2.996   2.821  0.00  0.00    -0.012 A 
ATOM      8  C   UNL     1       7.112  -3.346   4.118  0.00  0.00    +0.115 A 
ATOM      9  N   UNL     1       6.701  -4.488   4.632  0.00  0.00    -0.263 NA
ATOM     10  C   UNL     1       5.969  -5.337   3.937  0.00  0.00    +0.111 A 
ATOM     11  C   UNL     1       5.604  -5.055   2.634  0.00  0.00    +0.020 A 
ATOM     12  C   UNL     1       6.013  -3.861   2.062  0.00  0.00    +0.008 A 
ENDBRANCH   3   7
TORSDOF 1
ENDMDL
MODEL 7
REMARK VINA RESULT:    -3.102      1.997      5.201
REMARK INTER + INTRA:          -3.505
REMARK INTER:                  -3.291
REMARK INTRA:                  -0.214
REMARK UNBOUND:                -0.221
REMARK  Name = Nicotine.pdb
REMARK  2 active torsions:
REMARK  status: ('A' for Active; 'I' for Inactive)
REMARK    1  A    between atoms: C_3  and  C_6
REMARK    2  A    between atoms: N_4  and  C_12
REMARK                            x       y       z     vdW  Elec       q    Type
REMARK                         _______ _______ _______ _____ _____    ______ ____
ROOT
ATOM      1  C   UNL     1       9.954   0.969  -3.277  0.00  0.00    +0.017 C 
ATOM      2  C   UNL     1       9.997   2.313  -4.050  0.00  0.00    +0.025 C 
ATOM      3  C   UNL     1       9.400   3.314  -3.038  0.00  0.00    +0.088 C 
ATOM      4  N   UNL     1       8.591   2.538  -2.081  0.00  0.00    -0.298 NA
ATOM      5  C   UNL     1       8.640   1.113  -2.470  0.00  0.00    +0.085 C 
ATOM      6  C   UNL     1       9.075   2.726  -0.707  0.00  0.00    +0.105 C 
ENDROOT
BRANCH   3   7
ATOM      7  C   UNL     1       8.530   4.313  -3.756  0.00  0.00    -0.012 A 
ATOM      8  C   UNL     1       9.084   5.203  -4.656  0.00  0.00    +0.115 A 
ATOM      9  N   UNL     1       8.330   6.080  -5.290  0.00  0.00    -0.263 NA
ATOM     10  C   UNL     1       7.028   6.144  -5.092  0.00  0.00    +0.111 A 
ATOM     11  C   UNL     1       6.403   5.286  -4.207  0.00  0.00    +0.020 A 
ATOM     12  C   UNL     1       7.163   4.347  -3.527  0.00  0.00    +0.008 A 
ENDBRANCH   3   7
TORSDOF 1
ENDMDL
MODEL 8
REMARK VINA RESULT:    -3.078      2.240      5.042
REMARK INTER + INTRA:          -3.480
REMARK INTER:                  -3.266
REMARK INTRA:                  -0.213
REMARK UNBOUND:                -0.221
REMARK  Name = Nicotine.pdb
REMARK  2 active torsions:
REMARK  status: ('A' for Active; 'I' for Inactive)
REMARK    1  A    between atoms: C_3  and  C_6
REMARK    2  A    between atoms: N_4  and  C_12
REMARK                            x       y       z     vdW  Elec       q    Type
REMARK                         _______ _______ _______ _____ _____    ______ ____
ROOT
ATOM      1  C   UNL     1       6.815   0.557   4.000  0.00  0.00    +0.017 C 
ATOM      2  C   UNL     1       6.704  -0.101   2.600  0.00  0.00    +0.025 C 
ATOM      3  C   UNL     1       8.171  -0.149   2.121  0.00  0.00    +0.088 C 
ATOM      4  N   UNL     1       8.911   0.877   2.878  0.00  0.00    -0.298 NA
ATOM      5  C   UNL     1       7.966   1.570   3.779  0.00  0.00    +0.085 C 
ATOM      6  C   UNL     1      10.018   0.278   3.634  0.00  0.00    +0.105 C 
ENDROOT
BRANCH   3   7
ATOM      7  C   UNL     1       8.238   0.151   0.646  0.00  0.00    -0.012 A 
ATOM      8  C   UNL     1       7.666  -0.711  -0.270  0.00  0.00    +0.115 A 
ATOM      9  N   UNL     1       7.721  -0.456  -1.563  0.00  0.00    -0.263 NA
ATOM     10  C   UNL     1       8.318   0.622  -2.031  0.00  0.00    +0.111 A 
ATOM     11  C   UNL     1       8.913   1.531  -1.176  0.00  0.00    +0.020 A 
ATOM     12  C   UNL     1       8.870   1.298   0.191  0.00  0.00    +0.008 A 
ENDBRANCH   3   7
TORSDOF 1
ENDMDL
MODEL 9
REMARK VINA RESULT:    -3.067      1.699      5.014
REMARK INTER + INTRA:          -3.467
REMARK INTER:                  -3.258
REMARK INTRA:                  -0.210
REMARK UNBOUND:                -0.221
REMARK  Name = Nicotine.pdb
REMARK  2 active torsions:
REMARK  status: ('A' for Active; 'I' for Inactive)
REMARK    1  A    between atoms: C_3  and  C_6
REMARK    2  A    between atoms: N_4  and  C_12
REMARK                            x       y       z     vdW  Elec       q    Type
REMARK                         _______ _______ _______ _____ _____    ______ ____
ROOT
ATOM      1  C   UNL     1       6.991  -1.744   2.322  0.00  0.00    +0.017 C 
ATOM      2  C   UNL     1       6.682  -0.924   1.041  0.00  0.00    +0.025 C 
ATOM      3  C   UNL     1       7.935  -1.157   0.170  0.00  0.00    +0.088 C 
ATOM      4  N   UNL     1       9.031  -1.547   1.076  0.00  0.00    -0.298 NA
ATOM      5  C   UNL     1       8.520  -1.541   2.463  0.00  0.00    +0.085 C 
ATOM      6  C   UNL     1       9.566  -2.867   0.717  0.00  0.00    +0.105 C 
ENDROOT
BRANCH   3   7
ATOM      7  C   UNL     1       8.297   0.111  -0.558  0.00  0.00    -0.012 A 
ATOM      8  C   UNL     1       8.249   0.163  -1.938  0.00  0.00    +0.115 A 
ATOM      9  N   UNL     1       8.564   1.270  -2.583  0.00  0.00    -0.263 NA
ATOM     10  C   UNL     1       8.934   2.362  -1.945  0.00  0.00    +0.111 A 
ATOM     11  C   UNL     1       9.004   2.386  -0.564  0.00  0.00    +0.020 A 
ATOM     12  C   UNL     1       8.676   1.243   0.148  0.00  0.00    +0.008 A 
ENDBRANCH   3   7
TORSDOF 1
ENDMDL
MODEL 10
REMARK VINA RESULT:    -2.988      1.485      4.655
REMARK INTER + INTRA:          -3.384
REMARK INTER:                  -3.168
REMARK INTRA:                  -0.216
REMARK UNBOUND:                -0.221
REMARK  Name = Nicotine.pdb
REMARK  2 active torsions:
REMARK  status: ('A' for Active; 'I' for Inactive)
REMARK    1  A    between atoms: C_3  and  C_6
REMARK    2  A    between atoms: N_4  and  C_12
REMARK                            x       y       z     vdW  Elec       q    Type
REMARK                         _______ _______ _______ _____ _____    ______ ____
ROOT
ATOM      1  C   UNL     1       8.038  -0.746  -0.830  0.00  0.00    +0.017 C 
ATOM      2  C   UNL     1       8.292   0.278  -1.967  0.00  0.00    +0.025 C 
ATOM      3  C   UNL     1       9.142   1.363  -1.274  0.00  0.00    +0.088 C 
ATOM      4  N   UNL     1       8.886   1.260   0.174  0.00  0.00    -0.298 NA
ATOM      5  C   UNL     1       7.900   0.182   0.402  0.00  0.00    +0.085 C 
ATOM      6  C   UNL     1      10.129   1.003   0.912  0.00  0.00    +0.105 C 
ENDROOT
BRANCH   3   7
ATOM      7  C   UNL     1       8.739   2.727  -1.772  0.00  0.00    -0.012 A 
ATOM      8  C   UNL     1       8.779   3.820  -0.927  0.00  0.00    +0.115 A 
ATOM      9  N   UNL     1       8.428   5.017  -1.355  0.00  0.00    -0.263 NA
ATOM     10  C   UNL     1       8.027   5.219  -2.594  0.00  0.00    +0.111 A 
ATOM     11  C   UNL     1       7.961   4.174  -3.497  0.00  0.00    +0.020 A 
ATOM     12  C   UNL     1       8.328   2.902  -3.084  0.00  0.00    +0.008 A 
ENDBRANCH   3   7
TORSDOF 1
ENDMDL
