MODEL 1
REMARK VINA RESULT:    -4.889      0.000      0.000
REMARK INTER + INTRA:          -5.380
REMARK INTER:                  -5.175
REMARK INTRA:                  -0.205
REMARK UNBOUND:                -0.205
REMARK  Name = Nicotine.pdb
REMARK  2 active torsions:
REMARK  status: ('A' for Active; 'I' for Inactive)
REMARK    1  A    between atoms: C_3  and  C_6
REMARK    2  A    between atoms: N_4  and  C_12
REMARK                            x       y       z     vdW  Elec       q    Type
REMARK                         _______ _______ _______ _____ _____    ______ ____
ROOT
ATOM      1  C   UNL     1       0.594  -5.586  -6.171  0.00  0.00    +0.017 C 
ATOM      2  C   UNL     1       0.448  -6.095  -4.713  0.00  0.00    +0.025 C 
ATOM      3  C   UNL     1      -1.010  -5.729  -4.362  0.00  0.00    +0.088 C 
ATOM      4  N   UNL     1      -1.418  -4.642  -5.270  0.00  0.00    -0.298 NA
ATOM      5  C   UNL     1      -0.275  -4.304  -6.144  0.00  0.00    +0.085 C 
ATOM      6  C   UNL     1      -2.592  -5.030  -6.063  0.00  0.00    +0.105 C 
ENDROOT
BRANCH   3   7
ATOM      7  C   UNL     1      -1.092  -5.263  -2.932  0.00  0.00    -0.012 A 
ATOM      8  C   UNL     1      -1.786  -6.004  -1.994  0.00  0.00    +0.115 A 
ATOM      9  N   UNL     1      -1.863  -5.603  -0.740  0.00  0.00    -0.263 NA
ATOM     10  C   UNL     1      -1.287  -4.490  -0.332  0.00  0.00    +0.111 A 
ATOM     11  C   UNL     1      -0.575  -3.697  -1.213  0.00  0.00    +0.020 A 
ATOM     12  C   UNL     1      -0.468  -4.089  -2.538  0.00  0.00    +0.008 A 
ENDBRANCH   3   7
TORSDOF 1
ENDMDL
MODEL 2
REMARK VINA RESULT:    -4.514      1.513      2.254
REMARK INTER + INTRA:          -4.983
REMARK INTER:                  -4.760
REMARK INTRA:                  -0.223
REMARK UNBOUND:                -0.205
REMARK  Name = Nicotine.pdb
REMARK  2 active torsions:
REMARK  status: ('A' for Active; 'I' for Inactive)
REMARK    1  A    between atoms: C_3  and  C_6
REMARK    2  A    between atoms: N_4  and  C_12
REMARK                            x       y       z     vdW  Elec       q    Type
REMARK                         _______ _______ _______ _____ _____    ______ ____
ROOT
ATOM      1  C   UNL     1      -1.891  -6.097  -7.223  0.00  0.00    +0.017 C 
ATOM      2  C   UNL     1      -2.456  -6.060  -5.779  0.00  0.00    +0.025 C 
ATOM      3  C   UNL     1      -1.600  -4.970  -5.099  0.00  0.00    +0.088 C 
ATOM      4  N   UNL     1      -0.350  -4.852  -5.871  0.00  0.00    -0.298 NA
ATOM      5  C   UNL     1      -0.384  -5.833  -6.976  0.00  0.00    +0.085 C 
ATOM      6  C   UNL     1      -0.174  -3.487  -6.383  0.00  0.00    +0.105 C 
ENDROOT
BRANCH   3   7
ATOM      7  C   UNL     1      -1.292  -5.371  -3.680  0.00  0.00    -0.012 A 
ATOM      8  C   UNL     1       0.013  -5.391  -3.226  0.00  0.00    +0.115 A 
ATOM      9  N   UNL     1       0.292  -5.741  -1.986  0.00  0.00    -0.263 NA
ATOM     10  C   UNL     1      -0.654  -6.083  -1.133  0.00  0.00    +0.111 A 
ATOM     11  C   UNL     1      -1.983  -6.086  -1.515  0.00  0.00    +0.020 A 
ATOM     12  C   UNL     1      -2.314  -5.719  -2.810  0.00  0.00    +0.008 A 
ENDBRANCH   3   7
TORSDOF 1
ENDMDL
MODEL 3
REMARK VINA RESULT:    -4.391      1.302      2.084
REMARK INTER + INTRA:          -4.853
REMARK INTER:                  -4.663
REMARK INTRA:                  -0.190
REMARK UNBOUND:                -0.205
REMARK  Name = Nicotine.pdb
REMARK  2 active torsions:
REMARK  status: ('A' for Active; 'I' for Inactive)
REMARK    1  A    between atoms: C_3  and  C_6
REMARK    2  A    between atoms: N_4  and  C_12
REMARK                            x       y       z     vdW  Elec       q    Type
REMARK                         _______ _______ _______ _____ _____    ______ ____
ROOT
ATOM      1  C   UNL     1      -0.535  -3.155  -7.098  0.00  0.00    +0.017 C 
ATOM      2  C   UNL     1       0.140  -3.480  -5.740  0.00  0.00    +0.025 C 
ATOM      3  C   UNL     1      -0.529  -4.808  -5.329  0.00  0.00    +0.088 C 
ATOM      4  N   UNL     1      -1.812  -4.893  -6.049  0.00  0.00    -0.298 NA
ATOM      5  C   UNL     1      -1.977  -3.669  -6.862  0.00  0.00    +0.085 C 
ATOM      6  C   UNL     1      -1.867  -6.096  -6.889  0.00  0.00    +0.105 C 
ENDROOT
BRANCH   3   7
ATOM      7  C   UNL     1      -0.772  -4.822  -3.842  0.00  0.00    -0.012 A 
ATOM      8  C   UNL     1      -0.200  -3.859  -3.031  0.00  0.00    +0.115 A 
ATOM      9  N   UNL     1      -0.407  -3.864  -1.729  0.00  0.00    -0.263 NA
ATOM     10  C   UNL     1      -1.161  -4.777  -1.150  0.00  0.00    +0.111 A 
ATOM     11  C   UNL     1      -1.767  -5.771  -1.897  0.00  0.00    +0.020 A 
ATOM     12  C   UNL     1      -1.576  -5.795  -3.270  0.00  0.00    +0.008 A 
ENDBRANCH   3   7
TORSDOF 1
ENDMDL
MODEL 4
REMARK VINA RESULT:    -4.230      1.367      4.533
REMARK INTER + INTRA:          -4.682
REMARK INTER:                  -4.459
REMARK INTRA:                  -0.223
REMARK UNBOUND:                -0.205
REMARK  Name = Nicotine.pdb
REMARK  2 active torsions:
REMARK  status: ('A' for Active; 'I' for Inactive)
REMARK    1  A    between atoms: C_3  and  C_6
REMARK    2  A    between atoms: N_4  and  C_12
REMARK                            x       y       z     vdW  Elec       q    Type
REMARK                         _______ _______ _______ _____ _____    ______ ____
ROOT
ATOM      1  C   UNL     1      -0.235  -5.933  -0.221  0.00  0.00    +0.017 C 
ATOM      2  C   UNL     1       0.099  -6.097  -1.727  0.00  0.00    +0.025 C 
ATOM      3  C   UNL     1      -0.233  -4.707  -2.310  0.00  0.00    +0.088 C 
ATOM      4  N   UNL     1      -1.179  -4.059  -1.384  0.00  0.00    -0.298 NA
ATOM      5  C   UNL     1      -1.465  -4.993  -0.274  0.00  0.00    +0.085 C 
ATOM      6  C   UNL     1      -0.639  -2.791  -0.880  0.00  0.00    +0.105 C 
ENDROOT
BRANCH   3   7
ATOM      7  C   UNL     1      -0.865  -4.858  -3.669  0.00  0.00    -0.012 A 
ATOM      8  C   UNL     1      -0.314  -4.232  -4.771  0.00  0.00    +0.115 A 
ATOM      9  N   UNL     1      -0.861  -4.360  -5.964  0.00  0.00    -0.263 NA
ATOM     10  C   UNL     1      -1.947  -5.082  -6.155  0.00  0.00    +0.111 A 
ATOM     11  C   UNL     1      -2.555  -5.738  -5.100  0.00  0.00    +0.020 A 
ATOM     12  C   UNL     1      -2.005  -5.632  -3.832  0.00  0.00    +0.008 A 
ENDBRANCH   3   7
TORSDOF 1
ENDMDL
MODEL 5
REMARK VINA RESULT:    -3.325     10.638     11.478
REMARK INTER + INTRA:          -3.725
REMARK INTER:                  -3.469
REMARK INTRA:                  -0.256
REMARK UNBOUND:                -0.205
REMARK  Name = Nicotine.pdb
REMARK  2 active torsions:
REMARK  status: ('A' for Active; 'I' for Inactive)
REMARK    1  A    between atoms: C_3  and  C_6
REMARK    2  A    between atoms: N_4  and  C_12
REMARK                            x       y       z     vdW  Elec       q    Type
REMARK                         _______ _______ _______ _____ _____    ______ ____
ROOT
ATOM      1  C   UNL     1       9.102  -0.080  -5.790  0.00  0.00    +0.017 C 
ATOM      2  C   UNL     1       8.671  -1.544  -5.514  0.00  0.00    +0.025 C 
ATOM      3  C   UNL     1       9.029  -1.736  -4.025  0.00  0.00    +0.088 C 
ATOM      4  N   UNL     1      10.058  -0.734  -3.690  0.00  0.00    -0.298 NA
ATOM      5  C   UNL     1      10.368   0.046  -4.907  0.00  0.00    +0.085 C 
ATOM      6  C   UNL     1       9.606   0.142  -2.602  0.00  0.00    +0.105 C 
ENDROOT
BRANCH   3   7
ATOM      7  C   UNL     1       9.572  -3.124  -3.802  0.00  0.00    -0.012 A 
ATOM      8  C   UNL     1       9.462  -3.727  -2.564  0.00  0.00    +0.115 A 
ATOM      9  N   UNL     1       9.934  -4.942  -2.361  0.00  0.00    -0.263 NA
ATOM     10  C   UNL     1      10.525  -5.625  -3.321  0.00  0.00    +0.111 A 
ATOM     11  C   UNL     1      10.670  -5.087  -4.586  0.00  0.00    +0.020 A 
ATOM     12  C   UNL     1      10.182  -3.814  -4.838  0.00  0.00    +0.008 A 
ENDBRANCH   3   7
TORSDOF 1
ENDMDL
MODEL 6
REMARK VINA RESULT:    -2.938     10.776     11.566
REMARK INTER + INTRA:          -3.315
REMARK INTER:                  -3.068
REMARK INTRA:                  -0.246
REMARK UNBOUND:                -0.205
REMARK  Name = Nicotine.pdb
REMARK  2 active torsions:
REMARK  status: ('A' for Active; 'I' for Inactive)
REMARK    1  A    between atoms: C_3  and  C_6
REMARK    2  A    between atoms: N_4  and  C_12
REMARK                            x       y       z     vdW  Elec       q    Type
REMARK                         _______ _______ _______ _____ _____    ______ ____
ROOT
ATOM      1  C   UNL     1      10.021  -4.526  -3.304  0.00  0.00    +0.017 C 
ATOM      2  C   UNL     1       9.273  -3.249  -2.839  0.00  0.00    +0.025 C 
ATOM      3  C   UNL     1       9.112  -2.445  -4.146  0.00  0.00    +0.088 C 
ATOM      4  N   UNL     1      10.146  -2.921  -5.082  0.00  0.00    -0.298 NA
ATOM      5  C   UNL     1      10.952  -3.960  -4.406  0.00  0.00    +0.085 C 
ATOM      6  C   UNL     1       9.542  -3.443  -6.315  0.00  0.00    +0.105 C 
ENDROOT
BRANCH   3   7
ATOM      7  C   UNL     1       9.303  -0.976  -3.872  0.00  0.00    -0.012 A 
ATOM      8  C   UNL     1       9.103  -0.046  -4.874  0.00  0.00    +0.115 A 
ATOM      9  N   UNL     1       9.268   1.242  -4.643  0.00  0.00    -0.263 NA
ATOM     10  C   UNL     1       9.627   1.692  -3.457  0.00  0.00    +0.111 A 
ATOM     11  C   UNL     1       9.845   0.821  -2.405  0.00  0.00    +0.020 A 
ATOM     12  C   UNL     1       9.676  -0.540  -2.610  0.00  0.00    +0.008 A 
ENDBRANCH   3   7
TORSDOF 1
ENDMDL
MODEL 7
REMARK VINA RESULT:    -2.849     11.399     12.412
REMARK INTER + INTRA:          -3.221
REMARK INTER:                  -3.006
REMARK INTRA:                  -0.215
REMARK UNBOUND:                -0.205
REMARK  Name = Nicotine.pdb
REMARK  2 active torsions:
REMARK  status: ('A' for Active; 'I' for Inactive)
REMARK    1  A    between atoms: C_3  and  C_6
REMARK    2  A    between atoms: N_4  and  C_12
REMARK                            x       y       z     vdW  Elec       q    Type
REMARK                         _______ _______ _______ _____ _____    ______ ____
ROOT
ATOM      1  C   UNL     1      10.366   2.117  -0.719  0.00  0.00    +0.017 C 
ATOM      2  C   UNL     1      10.953   0.688  -0.854  0.00  0.00    +0.025 C 
ATOM      3  C   UNL     1      10.635   0.318  -2.318  0.00  0.00    +0.088 C 
ATOM      4  N   UNL     1       9.510   1.168  -2.748  0.00  0.00    -0.298 NA
ATOM      5  C   UNL     1       9.104   2.023  -1.613  0.00  0.00    +0.085 C 
ATOM      6  C   UNL     1       9.879   1.980  -3.915  0.00  0.00    +0.105 C 
ENDROOT
BRANCH   3   7
ATOM      7  C   UNL     1      10.246  -1.135  -2.408  0.00  0.00    -0.012 A 
ATOM      8  C   UNL     1       9.359  -1.562  -3.377  0.00  0.00    +0.115 A 
ATOM      9  N   UNL     1       9.013  -2.832  -3.462  0.00  0.00    -0.263 NA
ATOM     10  C   UNL     1       9.494  -3.738  -2.634  0.00  0.00    +0.111 A 
ATOM     11  C   UNL     1      10.387  -3.385  -1.640  0.00  0.00    +0.020 A 
ATOM     12  C   UNL     1      10.778  -2.060  -1.523  0.00  0.00    +0.008 A 
ENDBRANCH   3   7
TORSDOF 1
ENDMDL
MODEL 8
REMARK VINA RESULT:    -2.684      9.510     10.999
REMARK INTER + INTRA:          -3.047
REMARK INTER:                  -2.791
REMARK INTRA:                  -0.256
REMARK UNBOUND:                -0.205
REMARK  Name = Nicotine.pdb
REMARK  2 active torsions:
REMARK  status: ('A' for Active; 'I' for Inactive)
REMARK    1  A    between atoms: C_3  and  C_6
REMARK    2  A    between atoms: N_4  and  C_12
REMARK                            x       y       z     vdW  Elec       q    Type
REMARK                         _______ _______ _______ _____ _____    ______ ____
ROOT
ATOM      1  C   UNL     1      10.350  -3.713  -4.182  0.00  0.00    +0.017 C 
ATOM      2  C   UNL     1       9.970  -2.968  -5.488  0.00  0.00    +0.025 C 
ATOM      3  C   UNL     1       9.504  -1.588  -4.977  0.00  0.00    +0.088 C 
ATOM      4  N   UNL     1       9.109  -1.754  -3.567  0.00  0.00    -0.298 NA
ATOM      5  C   UNL     1       9.286  -3.174  -3.193  0.00  0.00    +0.085 C 
ATOM      6  C   UNL     1       9.897  -0.877  -2.692  0.00  0.00    +0.105 C 
ENDROOT
BRANCH   3   7
ATOM      7  C   UNL     1       8.327  -1.112  -5.788  0.00  0.00    -0.012 A 
ATOM      8  C   UNL     1       7.986   0.227  -5.806  0.00  0.00    +0.115 A 
ATOM      9  N   UNL     1       6.956   0.652  -6.513  0.00  0.00    -0.263 NA
ATOM     10  C   UNL     1       6.216  -0.175  -7.225  0.00  0.00    +0.111 A 
ATOM     11  C   UNL     1       6.497  -1.528  -7.256  0.00  0.00    +0.020 A 
ATOM     12  C   UNL     1       7.575  -2.011  -6.529  0.00  0.00    +0.008 A 
ENDBRANCH   3   7
TORSDOF 1
ENDMDL
MODEL 9
REMARK VINA RESULT:    -2.602     10.271     11.715
REMARK INTER + INTRA:          -2.959
REMARK INTER:                  -2.737
REMARK INTRA:                  -0.221
REMARK UNBOUND:                -0.205
REMARK  Name = Nicotine.pdb
REMARK  2 active torsions:
REMARK  status: ('A' for Active; 'I' for Inactive)
REMARK    1  A    between atoms: C_3  and  C_6
REMARK    2  A    between atoms: N_4  and  C_12
REMARK                            x       y       z     vdW  Elec       q    Type
REMARK                         _______ _______ _______ _____ _____    ______ ____
ROOT
ATOM      1  C   UNL     1       3.144  -3.481   6.244  0.00  0.00    +0.017 C 
ATOM      2  C   UNL     1       4.421  -4.344   6.064  0.00  0.00    +0.025 C 
ATOM      3  C   UNL     1       5.523  -3.290   5.831  0.00  0.00    +0.088 C 
ATOM      4  N   UNL     1       4.861  -2.064   5.350  0.00  0.00    -0.298 NA
ATOM      5  C   UNL     1       3.409  -2.321   5.251  0.00  0.00    +0.085 C 
ATOM      6  C   UNL     1       5.136  -0.931   6.244  0.00  0.00    +0.105 C 
ENDROOT
BRANCH   3   7
ATOM      7  C   UNL     1       6.499  -3.787   4.796  0.00  0.00    -0.012 A 
ATOM      8  C   UNL     1       7.845  -3.882   5.093  0.00  0.00    +0.115 A 
ATOM      9  N   UNL     1       8.706  -4.316   4.193  0.00  0.00    -0.263 NA
ATOM     10  C   UNL     1       8.322  -4.674   2.983  0.00  0.00    +0.111 A 
ATOM     11  C   UNL     1       6.991  -4.607   2.614  0.00  0.00    +0.020 A 
ATOM     12  C   UNL     1       6.057  -4.160   3.536  0.00  0.00    +0.008 A 
ENDBRANCH   3   7
TORSDOF 1
ENDMDL
