MODEL 1
REMARK VINA RESULT:    -4.095      0.000      0.000
REMARK INTER + INTRA:          -4.529
REMARK INTER:                  -4.334
REMARK INTRA:                  -0.195
REMARK UNBOUND:                -0.195
REMARK  Name = Nicotine.pdb
REMARK  2 active torsions:
REMARK  status: ('A' for Active; 'I' for Inactive)
REMARK    1  A    between atoms: C_3  and  C_6
REMARK    2  A    between atoms: N_4  and  C_12
REMARK                            x       y       z     vdW  Elec       q    Type
REMARK                         _______ _______ _______ _____ _____    ______ ____
ROOT
ATOM      1  C   UNL     1      -3.282  -4.984  -1.558  0.00  0.00    +0.017 C 
ATOM      2  C   UNL     1      -2.114  -5.199  -0.559  0.00  0.00    +0.025 C 
ATOM      3  C   UNL     1      -1.688  -3.758  -0.208  0.00  0.00    +0.088 C 
ATOM      4  N   UNL     1      -2.145  -2.887  -1.306  0.00  0.00    -0.298 NA
ATOM      5  C   UNL     1      -2.808  -3.726  -2.327  0.00  0.00    +0.085 C 
ATOM      6  C   UNL     1      -3.052  -1.845  -0.809  0.00  0.00    +0.105 C 
ENDROOT
BRANCH   3   7
ATOM      7  C   UNL     1      -0.188  -3.683  -0.083  0.00  0.00    -0.012 A 
ATOM      8  C   UNL     1       0.426  -3.946   1.127  0.00  0.00    +0.115 A 
ATOM      9  N   UNL     1       1.738  -3.883   1.246  0.00  0.00    -0.263 NA
ATOM     10  C   UNL     1       2.511  -3.568   0.225  0.00  0.00    +0.111 A 
ATOM     11  C   UNL     1       1.969  -3.293  -1.016  0.00  0.00    +0.020 A 
ATOM     12  C   UNL     1       0.593  -3.355  -1.180  0.00  0.00    +0.008 A 
ENDBRANCH   3   7
TORSDOF 1
ENDMDL
MODEL 2
REMARK VINA RESULT:    -4.081      1.315      2.008
REMARK INTER + INTRA:          -4.514
REMARK INTER:                  -4.290
REMARK INTRA:                  -0.224
REMARK UNBOUND:                -0.195
REMARK  Name = Nicotine.pdb
REMARK  2 active torsions:
REMARK  status: ('A' for Active; 'I' for Inactive)
REMARK    1  A    between atoms: C_3  and  C_6
REMARK    2  A    between atoms: N_4  and  C_12
REMARK                            x       y       z     vdW  Elec       q    Type
REMARK                         _______ _______ _______ _____ _____    ______ ____
ROOT
ATOM      1  C   UNL     1      -2.646  -2.922  -1.152  0.00  0.00    +0.017 C 
ATOM      2  C   UNL     1      -1.179  -3.098  -1.627  0.00  0.00    +0.025 C 
ATOM      3  C   UNL     1      -0.681  -4.288  -0.781  0.00  0.00    +0.088 C 
ATOM      4  N   UNL     1      -1.543  -4.368   0.412  0.00  0.00    -0.298 NA
ATOM      5  C   UNL     1      -2.531  -3.270   0.353  0.00  0.00    +0.085 C 
ATOM      6  C   UNL     1      -2.211  -5.674   0.493  0.00  0.00    +0.105 C 
ENDROOT
BRANCH   3   7
ATOM      7  C   UNL     1       0.750  -4.060  -0.366  0.00  0.00    -0.012 A 
ATOM      8  C   UNL     1       1.102  -4.077   0.970  0.00  0.00    +0.115 A 
ATOM      9  N   UNL     1       2.352  -3.878   1.341  0.00  0.00    -0.263 NA
ATOM     10  C   UNL     1       3.308  -3.655   0.462  0.00  0.00    +0.111 A 
ATOM     11  C   UNL     1       3.032  -3.623  -0.892  0.00  0.00    +0.020 A 
ATOM     12  C   UNL     1       1.730  -3.834  -1.320  0.00  0.00    +0.008 A 
ENDBRANCH   3   7
TORSDOF 1
ENDMDL
MODEL 3
REMARK VINA RESULT:    -4.069      2.110      3.486
REMARK INTER + INTRA:          -4.502
REMARK INTER:                  -4.319
REMARK INTRA:                  -0.183
REMARK UNBOUND:                -0.195
REMARK  Name = Nicotine.pdb
REMARK  2 active torsions:
REMARK  status: ('A' for Active; 'I' for Inactive)
REMARK    1  A    between atoms: C_3  and  C_6
REMARK    2  A    between atoms: N_4  and  C_12
REMARK                            x       y       z     vdW  Elec       q    Type
REMARK                         _______ _______ _______ _____ _____    ______ ____
ROOT
ATOM      1  C   UNL     1      -0.598  -3.874  -1.568  0.00  0.00    +0.017 C 
ATOM      2  C   UNL     1       0.841  -4.267  -1.995  0.00  0.00    +0.025 C 
ATOM      3  C   UNL     1       1.410  -4.934  -0.724  0.00  0.00    +0.088 C 
ATOM      4  N   UNL     1       0.621  -4.442   0.419  0.00  0.00    -0.298 NA
ATOM      5  C   UNL     1      -0.388  -3.485  -0.083  0.00  0.00    +0.085 C 
ATOM      6  C   UNL     1      -0.017  -5.552   1.137  0.00  0.00    +0.105 C 
ENDROOT
BRANCH   3   7
ATOM      7  C   UNL     1       2.858  -4.556  -0.551  0.00  0.00    -0.012 A 
ATOM      8  C   UNL     1       3.209  -3.484   0.247  0.00  0.00    +0.115 A 
ATOM      9  N   UNL     1       4.475  -3.146   0.404  0.00  0.00    -0.263 NA
ATOM     10  C   UNL     1       5.448  -3.810  -0.188  0.00  0.00    +0.111 A 
ATOM     11  C   UNL     1       5.173  -4.894  -1.000  0.00  0.00    +0.020 A 
ATOM     12  C   UNL     1       3.855  -5.282  -1.185  0.00  0.00    +0.008 A 
ENDBRANCH   3   7
TORSDOF 1
ENDMDL
MODEL 4
REMARK VINA RESULT:    -3.983      1.520      4.518
REMARK INTER + INTRA:          -4.411
REMARK INTER:                  -4.158
REMARK INTRA:                  -0.252
REMARK UNBOUND:                -0.195
REMARK  Name = Nicotine.pdb
REMARK  2 active torsions:
REMARK  status: ('A' for Active; 'I' for Inactive)
REMARK    1  A    between atoms: C_3  and  C_6
REMARK    2  A    between atoms: N_4  and  C_12
REMARK                            x       y       z     vdW  Elec       q    Type
REMARK                         _______ _______ _______ _____ _____    ______ ____
ROOT
ATOM      1  C   UNL     1       3.236  -4.037  -0.881  0.00  0.00    +0.017 C 
ATOM      2  C   UNL     1       2.037  -3.079  -0.651  0.00  0.00    +0.025 C 
ATOM      3  C   UNL     1       1.112  -3.898   0.275  0.00  0.00    +0.088 C 
ATOM      4  N   UNL     1       1.458  -5.319   0.093  0.00  0.00    -0.298 NA
ATOM      5  C   UNL     1       2.532  -5.416  -0.918  0.00  0.00    +0.085 C 
ATOM      6  C   UNL     1       1.873  -5.927   1.363  0.00  0.00    +0.105 C 
ENDROOT
BRANCH   3   7
ATOM      7  C   UNL     1      -0.328  -3.666  -0.104  0.00  0.00    -0.012 A 
ATOM      8  C   UNL     1      -1.308  -3.621   0.868  0.00  0.00    +0.115 A 
ATOM      9  N   UNL     1      -2.571  -3.419   0.545  0.00  0.00    -0.263 NA
ATOM     10  C   UNL     1      -2.947  -3.253  -0.708  0.00  0.00    +0.111 A 
ATOM     11  C   UNL     1      -2.023  -3.285  -1.735  0.00  0.00    +0.020 A 
ATOM     12  C   UNL     1      -0.685  -3.490  -1.433  0.00  0.00    +0.008 A 
ENDBRANCH   3   7
TORSDOF 1
ENDMDL
MODEL 5
REMARK VINA RESULT:    -3.844      2.636      6.014
REMARK INTER + INTRA:          -4.263
REMARK INTER:                  -4.095
REMARK INTRA:                  -0.168
REMARK UNBOUND:                -0.195
REMARK  Name = Nicotine.pdb
REMARK  2 active torsions:
REMARK  status: ('A' for Active; 'I' for Inactive)
REMARK    1  A    between atoms: C_3  and  C_6
REMARK    2  A    between atoms: N_4  and  C_12
REMARK                            x       y       z     vdW  Elec       q    Type
REMARK                         _______ _______ _______ _____ _____    ______ ____
ROOT
ATOM      1  C   UNL     1       5.347  -4.459   2.329  0.00  0.00    +0.017 C 
ATOM      2  C   UNL     1       4.076  -5.044   1.658  0.00  0.00    +0.025 C 
ATOM      3  C   UNL     1       4.209  -4.574   0.194  0.00  0.00    +0.088 C 
ATOM      4  N   UNL     1       5.100  -3.400   0.191  0.00  0.00    -0.298 NA
ATOM      5  C   UNL     1       5.501  -3.109   1.584  0.00  0.00    +0.085 C 
ATOM      6  C   UNL     1       6.276  -3.633  -0.658  0.00  0.00    +0.105 C 
ENDROOT
BRANCH   3   7
ATOM      7  C   UNL     1       2.856  -4.194  -0.348  0.00  0.00    -0.012 A 
ATOM      8  C   UNL     1       2.269  -2.997   0.016  0.00  0.00    +0.115 A 
ATOM      9  N   UNL     1       1.084  -2.656  -0.453  0.00  0.00    -0.263 NA
ATOM     10  C   UNL     1       0.417  -3.435  -1.281  0.00  0.00    +0.111 A 
ATOM     11  C   UNL     1       0.941  -4.647  -1.690  0.00  0.00    +0.020 A 
ATOM     12  C   UNL     1       2.186  -5.036  -1.222  0.00  0.00    +0.008 A 
ENDBRANCH   3   7
TORSDOF 1
ENDMDL
MODEL 6
REMARK VINA RESULT:    -3.808      3.054      6.362
REMARK INTER + INTRA:          -4.226
REMARK INTER:                  -4.015
REMARK INTRA:                  -0.211
REMARK UNBOUND:                -0.195
REMARK  Name = Nicotine.pdb
REMARK  2 active torsions:
REMARK  status: ('A' for Active; 'I' for Inactive)
REMARK    1  A    between atoms: C_3  and  C_6
REMARK    2  A    between atoms: N_4  and  C_12
REMARK                            x       y       z     vdW  Elec       q    Type
REMARK                         _______ _______ _______ _____ _____    ______ ____
ROOT
ATOM      1  C   UNL     1       6.463  -5.835  -1.289  0.00  0.00    +0.017 C 
ATOM      2  C   UNL     1       5.092  -5.258  -1.731  0.00  0.00    +0.025 C 
ATOM      3  C   UNL     1       4.947  -3.997  -0.853  0.00  0.00    +0.088 C 
ATOM      4  N   UNL     1       5.816  -4.181   0.323  0.00  0.00    -0.298 NA
ATOM      5  C   UNL     1       6.469  -5.504   0.224  0.00  0.00    +0.085 C 
ATOM      6  C   UNL     1       6.814  -3.107   0.415  0.00  0.00    +0.105 C 
ENDROOT
BRANCH   3   7
ATOM      7  C   UNL     1       3.515  -3.840  -0.415  0.00  0.00    -0.012 A 
ATOM      8  C   UNL     1       3.162  -4.042   0.906  0.00  0.00    +0.115 A 
ATOM      9  N   UNL     1       1.910  -3.906   1.299  0.00  0.00    -0.263 NA
ATOM     10  C   UNL     1       0.951  -3.576   0.456  0.00  0.00    +0.111 A 
ATOM     11  C   UNL     1       1.229  -3.357  -0.881  0.00  0.00    +0.020 A 
ATOM     12  C   UNL     1       2.534  -3.485  -1.329  0.00  0.00    +0.008 A 
ENDBRANCH   3   7
TORSDOF 1
ENDMDL
MODEL 7
REMARK VINA RESULT:    -3.787      1.962      5.352
REMARK INTER + INTRA:          -4.204
REMARK INTER:                  -3.966
REMARK INTRA:                  -0.238
REMARK UNBOUND:                -0.195
REMARK  Name = Nicotine.pdb
REMARK  2 active torsions:
REMARK  status: ('A' for Active; 'I' for Inactive)
REMARK    1  A    between atoms: C_3  and  C_6
REMARK    2  A    between atoms: N_4  and  C_12
REMARK                            x       y       z     vdW  Elec       q    Type
REMARK                         _______ _______ _______ _____ _____    ______ ____
ROOT
ATOM      1  C   UNL     1       5.262  -4.758  -0.906  0.00  0.00    +0.017 C 
ATOM      2  C   UNL     1       4.046  -3.862  -1.259  0.00  0.00    +0.025 C 
ATOM      3  C   UNL     1       3.277  -3.777   0.077  0.00  0.00    +0.088 C 
ATOM      4  N   UNL     1       3.677  -4.942   0.886  0.00  0.00    -0.298 NA
ATOM      5  C   UNL     1       4.634  -5.753   0.103  0.00  0.00    +0.085 C 
ATOM      6  C   UNL     1       4.265  -4.520   2.164  0.00  0.00    +0.105 C 
ENDROOT
BRANCH   3   7
ATOM      7  C   UNL     1       1.794  -3.816  -0.182  0.00  0.00    -0.012 A 
ATOM      8  C   UNL     1       0.899  -3.789   0.871  0.00  0.00    +0.115 A 
ATOM      9  N   UNL     1      -0.401  -3.822   0.653  0.00  0.00    -0.263 NA
ATOM     10  C   UNL     1      -0.898  -3.883  -0.566  0.00  0.00    +0.111 A 
ATOM     11  C   UNL     1      -0.065  -3.913  -1.669  0.00  0.00    +0.020 A 
ATOM     12  C   UNL     1       1.308  -3.873  -1.480  0.00  0.00    +0.008 A 
ENDBRANCH   3   7
TORSDOF 1
ENDMDL
MODEL 8
REMARK VINA RESULT:    -3.744      1.499      2.434
REMARK INTER + INTRA:          -4.158
REMARK INTER:                  -3.964
REMARK INTRA:                  -0.195
REMARK UNBOUND:                -0.195
REMARK  Name = Nicotine.pdb
REMARK  2 active torsions:
REMARK  status: ('A' for Active; 'I' for Inactive)
REMARK    1  A    between atoms: C_3  and  C_6
REMARK    2  A    between atoms: N_4  and  C_12
REMARK                            x       y       z     vdW  Elec       q    Type
REMARK                         _______ _______ _______ _____ _____    ______ ____
ROOT
ATOM      1  C   UNL     1      -4.168  -1.591   0.005  0.00  0.00    +0.017 C 
ATOM      2  C   UNL     1      -2.960  -1.936  -0.905  0.00  0.00    +0.025 C 
ATOM      3  C   UNL     1      -2.692  -3.421  -0.579  0.00  0.00    +0.088 C 
ATOM      4  N   UNL     1      -3.271  -3.687   0.750  0.00  0.00    -0.298 NA
ATOM      5  C   UNL     1      -3.859  -2.433   1.268  0.00  0.00    +0.085 C 
ATOM      6  C   UNL     1      -4.278  -4.753   0.682  0.00  0.00    +0.105 C 
ENDROOT
BRANCH   3   7
ATOM      7  C   UNL     1      -1.208  -3.681  -0.554  0.00  0.00    -0.012 A 
ATOM      8  C   UNL     1      -0.533  -3.766   0.648  0.00  0.00    +0.115 A 
ATOM      9  N   UNL     1       0.766  -3.994   0.678  0.00  0.00    -0.263 NA
ATOM     10  C   UNL     1       1.469  -4.147  -0.427  0.00  0.00    +0.111 A 
ATOM     11  C   UNL     1       0.862  -4.075  -1.667  0.00  0.00    +0.020 A 
ATOM     12  C   UNL     1      -0.503  -3.843  -1.738  0.00  0.00    +0.008 A 
ENDBRANCH   3   7
TORSDOF 1
ENDMDL
MODEL 9
REMARK VINA RESULT:    -3.526      1.642      4.315
REMARK INTER + INTRA:          -3.927
REMARK INTER:                  -3.739
REMARK INTRA:                  -0.189
REMARK UNBOUND:                -0.195
REMARK  Name = Nicotine.pdb
REMARK  2 active torsions:
REMARK  status: ('A' for Active; 'I' for Inactive)
REMARK    1  A    between atoms: C_3  and  C_6
REMARK    2  A    between atoms: N_4  and  C_12
REMARK                            x       y       z     vdW  Elec       q    Type
REMARK                         _______ _______ _______ _____ _____    ______ ____
ROOT
ATOM      1  C   UNL     1       1.974  -4.251   1.081  0.00  0.00    +0.017 C 
ATOM      2  C   UNL     1       0.457  -4.358   1.391  0.00  0.00    +0.025 C 
ATOM      3  C   UNL     1      -0.186  -4.323  -0.012  0.00  0.00    +0.088 C 
ATOM      4  N   UNL     1       0.782  -3.683  -0.921  0.00  0.00    -0.298 NA
ATOM      5  C   UNL     1       1.978  -3.299  -0.141  0.00  0.00    +0.085 C 
ATOM      6  C   UNL     1       1.139  -4.580  -2.027  0.00  0.00    +0.105 C 
ENDROOT
BRANCH   3   7
ATOM      7  C   UNL     1      -1.461  -3.521   0.028  0.00  0.00    -0.012 A 
ATOM      8  C   UNL     1      -2.253  -3.525   1.161  0.00  0.00    +0.115 A 
ATOM      9  N   UNL     1      -3.371  -2.826   1.205  0.00  0.00    -0.263 NA
ATOM     10  C   UNL     1      -3.776  -2.102   0.180  0.00  0.00    +0.111 A 
ATOM     11  C   UNL     1      -3.036  -2.049  -0.986  0.00  0.00    +0.020 A 
ATOM     12  C   UNL     1      -1.852  -2.767  -1.067  0.00  0.00    +0.008 A 
ENDBRANCH   3   7
TORSDOF 1
ENDMDL
MODEL 10
REMARK VINA RESULT:    -3.396      1.402      4.743
REMARK INTER + INTRA:          -3.789
REMARK INTER:                  -3.601
REMARK INTRA:                  -0.189
REMARK UNBOUND:                -0.195
REMARK  Name = Nicotine.pdb
REMARK  2 active torsions:
REMARK  status: ('A' for Active; 'I' for Inactive)
REMARK    1  A    between atoms: C_3  and  C_6
REMARK    2  A    between atoms: N_4  and  C_12
REMARK                            x       y       z     vdW  Elec       q    Type
REMARK                         _______ _______ _______ _____ _____    ______ ____
ROOT
ATOM      1  C   UNL     1       2.006  -3.592  -1.247  0.00  0.00    +0.017 C 
ATOM      2  C   UNL     1       0.488  -3.269  -1.240  0.00  0.00    +0.025 C 
ATOM      3  C   UNL     1      -0.020  -4.021   0.009  0.00  0.00    +0.088 C 
ATOM      4  N   UNL     1       0.952  -5.090   0.301  0.00  0.00    -0.298 NA
ATOM      5  C   UNL     1       2.018  -5.049  -0.722  0.00  0.00    +0.085 C 
ATOM      6  C   UNL     1       1.510  -4.942   1.651  0.00  0.00    +0.105 C 
ENDROOT
BRANCH   3   7
ATOM      7  C   UNL     1      -1.375  -4.619  -0.269  0.00  0.00    -0.012 A 
ATOM      8  C   UNL     1      -2.100  -4.222  -1.376  0.00  0.00    +0.115 A 
ATOM      9  N   UNL     1      -3.287  -4.740  -1.626  0.00  0.00    -0.263 NA
ATOM     10  C   UNL     1      -3.826  -5.649  -0.839  0.00  0.00    +0.111 A 
ATOM     11  C   UNL     1      -3.159  -6.096   0.287  0.00  0.00    +0.020 A 
ATOM     12  C   UNL     1      -1.907  -5.577   0.580  0.00  0.00    +0.008 A 
ENDBRANCH   3   7
TORSDOF 1
ENDMDL
