MODEL 1
REMARK VINA RESULT:    -4.602      0.000      0.000
REMARK INTER + INTRA:          -5.063
REMARK INTER:                  -4.871
REMARK INTRA:                  -0.192
REMARK UNBOUND:                -0.192
REMARK  Name = Nicotine.pdb
REMARK  2 active torsions:
REMARK  status: ('A' for Active; 'I' for Inactive)
REMARK    1  A    between atoms: C_3  and  C_6
REMARK    2  A    between atoms: N_4  and  C_12
REMARK                            x       y       z     vdW  Elec       q    Type
REMARK                         _______ _______ _______ _____ _____    ______ ____
ROOT
ATOM      1  C   UNL     1       6.801   0.296  -6.903  0.00  0.00    +0.017 C 
ATOM      2  C   UNL     1       6.652  -1.187  -6.473  0.00  0.00    +0.025 C 
ATOM      3  C   UNL     1       7.968  -1.463  -5.716  0.00  0.00    +0.088 C 
ATOM      4  N   UNL     1       8.956  -0.472  -6.181  0.00  0.00    -0.298 NA
ATOM      5  C   UNL     1       8.318   0.383  -7.205  0.00  0.00    +0.085 C 
ATOM      6  C   UNL     1       9.461   0.333  -5.062  0.00  0.00    +0.105 C 
ENDROOT
BRANCH   3   7
ATOM      7  C   UNL     1       8.454  -2.856  -6.024  0.00  0.00    -0.012 A 
ATOM      8  C   UNL     1       7.650  -3.739  -6.720  0.00  0.00    +0.115 A 
ATOM      9  N   UNL     1       8.068  -4.960  -6.993  0.00  0.00    -0.263 NA
ATOM     10  C   UNL     1       9.258  -5.386  -6.618  0.00  0.00    +0.111 A 
ATOM     11  C   UNL     1      10.117  -4.558  -5.919  0.00  0.00    +0.020 A 
ATOM     12  C   UNL     1       9.715  -3.266  -5.618  0.00  0.00    +0.008 A 
ENDBRANCH   3   7
TORSDOF 1
ENDMDL
MODEL 2
REMARK VINA RESULT:    -4.511      0.774      1.386
REMARK INTER + INTRA:          -4.967
REMARK INTER:                  -4.727
REMARK INTRA:                  -0.240
REMARK UNBOUND:                -0.192
REMARK  Name = Nicotine.pdb
REMARK  2 active torsions:
REMARK  status: ('A' for Active; 'I' for Inactive)
REMARK    1  A    between atoms: C_3  and  C_6
REMARK    2  A    between atoms: N_4  and  C_12
REMARK                            x       y       z     vdW  Elec       q    Type
REMARK                         _______ _______ _______ _____ _____    ______ ____
ROOT
ATOM      1  C   UNL     1       6.806   0.255  -6.678  0.00  0.00    +0.017 C 
ATOM      2  C   UNL     1       6.676  -1.220  -6.217  0.00  0.00    +0.025 C 
ATOM      3  C   UNL     1       8.097  -1.554  -5.716  0.00  0.00    +0.088 C 
ATOM      4  N   UNL     1       9.022  -0.606  -6.362  0.00  0.00    -0.298 NA
ATOM      5  C   UNL     1       8.243   0.277  -7.256  0.00  0.00    +0.085 C 
ATOM      6  C   UNL     1       9.761   0.175  -5.362  0.00  0.00    +0.105 C 
ENDROOT
BRANCH   3   7
ATOM      7  C   UNL     1       8.458  -2.966  -6.098  0.00  0.00    -0.012 A 
ATOM      8  C   UNL     1       9.684  -3.495  -5.744  0.00  0.00    +0.115 A 
ATOM      9  N   UNL     1      10.008  -4.730  -6.074  0.00  0.00    -0.263 NA
ATOM     10  C   UNL     1       9.183  -5.505  -6.750  0.00  0.00    +0.111 A 
ATOM     11  C   UNL     1       7.938  -5.045  -7.139  0.00  0.00    +0.020 A 
ATOM     12  C   UNL     1       7.561  -3.753  -6.804  0.00  0.00    +0.008 A 
ENDBRANCH   3   7
TORSDOF 1
ENDMDL
MODEL 3
REMARK VINA RESULT:    -3.717      1.314      4.777
REMARK INTER + INTRA:          -4.126
REMARK INTER:                  -3.920
REMARK INTRA:                  -0.206
REMARK UNBOUND:                -0.192
REMARK  Name = Nicotine.pdb
REMARK  2 active torsions:
REMARK  status: ('A' for Active; 'I' for Inactive)
REMARK    1  A    between atoms: C_3  and  C_6
REMARK    2  A    between atoms: N_4  and  C_12
REMARK                            x       y       z     vdW  Elec       q    Type
REMARK                         _______ _______ _______ _____ _____    ______ ____
ROOT
ATOM      1  C   UNL     1       9.844  -4.149  -5.874  0.00  0.00    +0.017 C 
ATOM      2  C   UNL     1       9.844  -2.680  -5.374  0.00  0.00    +0.025 C 
ATOM      3  C   UNL     1       8.510  -2.128  -5.920  0.00  0.00    +0.088 C 
ATOM      4  N   UNL     1       8.119  -2.978  -7.059  0.00  0.00    -0.298 NA
ATOM      5  C   UNL     1       9.159  -4.009  -7.256  0.00  0.00    +0.085 C 
ATOM      6  C   UNL     1       6.804  -3.591  -6.831  0.00  0.00    +0.105 C 
ENDROOT
BRANCH   3   7
ATOM      7  C   UNL     1       8.694  -0.705  -6.379  0.00  0.00    -0.012 A 
ATOM      8  C   UNL     1       9.943  -0.115  -6.344  0.00  0.00    +0.115 A 
ATOM      9  N   UNL     1      10.113   1.130  -6.744  0.00  0.00    -0.263 NA
ATOM     10  C   UNL     1       9.108   1.858  -7.191  0.00  0.00    +0.111 A 
ATOM     11  C   UNL     1       7.830   1.335  -7.256  0.00  0.00    +0.020 A 
ATOM     12  C   UNL     1       7.614   0.027  -6.848  0.00  0.00    +0.008 A 
ENDBRANCH   3   7
TORSDOF 1
ENDMDL
MODEL 4
REMARK VINA RESULT:    -3.376      1.466      2.553
REMARK INTER + INTRA:          -3.765
REMARK INTER:                  -3.554
REMARK INTRA:                  -0.212
REMARK UNBOUND:                -0.192
REMARK  Name = Nicotine.pdb
REMARK  2 active torsions:
REMARK  status: ('A' for Active; 'I' for Inactive)
REMARK    1  A    between atoms: C_3  and  C_6
REMARK    2  A    between atoms: N_4  and  C_12
REMARK                            x       y       z     vdW  Elec       q    Type
REMARK                         _______ _______ _______ _____ _____    ______ ____
ROOT
ATOM      1  C   UNL     1      10.542   1.254  -6.109  0.00  0.00    +0.017 C 
ATOM      2  C   UNL     1      10.787  -0.104  -6.819  0.00  0.00    +0.025 C 
ATOM      3  C   UNL     1       9.371  -0.710  -6.907  0.00  0.00    +0.088 C 
ATOM      4  N   UNL     1       8.554  -0.065  -5.864  0.00  0.00    -0.298 NA
ATOM      5  C   UNL     1       9.405   0.889  -5.122  0.00  0.00    +0.085 C 
ATOM      6  C   UNL     1       7.389   0.612  -6.449  0.00  0.00    +0.105 C 
ENDROOT
BRANCH   3   7
ATOM      7  C   UNL     1       9.433  -2.196  -6.666  0.00  0.00    -0.012 A 
ATOM      8  C   UNL     1      10.602  -2.783  -6.220  0.00  0.00    +0.115 A 
ATOM      9  N   UNL     1      10.665  -4.083  -6.006  0.00  0.00    -0.263 NA
ATOM     10  C   UNL     1       9.627  -4.870  -6.207  0.00  0.00    +0.111 A 
ATOM     11  C   UNL     1       8.424  -4.354  -6.652  0.00  0.00    +0.020 A 
ATOM     12  C   UNL     1       8.318  -2.991  -6.882  0.00  0.00    +0.008 A 
ENDBRANCH   3   7
TORSDOF 1
ENDMDL
MODEL 5
REMARK VINA RESULT:    -2.828      1.404      4.497
REMARK INTER + INTRA:          -3.185
REMARK INTER:                  -2.965
REMARK INTRA:                  -0.220
REMARK UNBOUND:                -0.192
REMARK  Name = Nicotine.pdb
REMARK  2 active torsions:
REMARK  status: ('A' for Active; 'I' for Inactive)
REMARK    1  A    between atoms: C_3  and  C_6
REMARK    2  A    between atoms: N_4  and  C_12
REMARK                            x       y       z     vdW  Elec       q    Type
REMARK                         _______ _______ _______ _____ _____    ______ ____
ROOT
ATOM      1  C   UNL     1       7.826  -4.801  -6.945  0.00  0.00    +0.017 C 
ATOM      2  C   UNL     1       7.517  -3.313  -7.256  0.00  0.00    +0.025 C 
ATOM      3  C   UNL     1       8.914  -2.658  -7.249  0.00  0.00    +0.088 C 
ATOM      4  N   UNL     1       9.800  -3.529  -6.455  0.00  0.00    -0.298 NA
ATOM      5  C   UNL     1       9.010  -4.674  -5.954  0.00  0.00    +0.085 C 
ATOM      6  C   UNL     1      10.943  -3.988  -7.256  0.00  0.00    +0.105 C 
ENDROOT
BRANCH   3   7
ATOM      7  C   UNL     1       8.838  -1.292  -6.618  0.00  0.00    -0.012 A 
ATOM      8  C   UNL     1       9.516  -1.025  -5.444  0.00  0.00    +0.115 A 
ATOM      9  N   UNL     1       9.454   0.168  -4.885  0.00  0.00    -0.263 NA
ATOM     10  C   UNL     1       8.749   1.147  -5.418  0.00  0.00    +0.111 A 
ATOM     11  C   UNL     1       8.045   0.954  -6.592  0.00  0.00    +0.020 A 
ATOM     12  C   UNL     1       8.091  -0.285  -7.210  0.00  0.00    +0.008 A 
ENDBRANCH   3   7
TORSDOF 1
ENDMDL
MODEL 6
REMARK VINA RESULT:    -2.725      1.784      4.498
REMARK INTER + INTRA:          -3.077
REMARK INTER:                  -2.860
REMARK INTRA:                  -0.216
REMARK UNBOUND:                -0.192
REMARK  Name = Nicotine.pdb
REMARK  2 active torsions:
REMARK  status: ('A' for Active; 'I' for Inactive)
REMARK    1  A    between atoms: C_3  and  C_6
REMARK    2  A    between atoms: N_4  and  C_12
REMARK                            x       y       z     vdW  Elec       q    Type
REMARK                         _______ _______ _______ _____ _____    ______ ____
ROOT
ATOM      1  C   UNL     1       5.614  -1.217  -6.750  0.00  0.00    +0.017 C 
ATOM      2  C   UNL     1       6.553  -0.088  -7.251  0.00  0.00    +0.025 C 
ATOM      3  C   UNL     1       7.940  -0.766  -7.256  0.00  0.00    +0.088 C 
ATOM      4  N   UNL     1       7.872  -1.905  -6.323  0.00  0.00    -0.298 NA
ATOM      5  C   UNL     1       6.520  -1.946  -5.726  0.00  0.00    +0.085 C 
ATOM      6  C   UNL     1       8.184  -3.166  -7.008  0.00  0.00    +0.105 C 
ENDROOT
BRANCH   3   7
ATOM      7  C   UNL     1       8.990   0.213  -6.798  0.00  0.00    -0.012 A 
ATOM      8  C   UNL     1      10.029  -0.206  -5.988  0.00  0.00    +0.115 A 
ATOM      9  N   UNL     1      10.952   0.644  -5.582  0.00  0.00    -0.263 NA
ATOM     10  C   UNL     1      10.924   1.916  -5.928  0.00  0.00    +0.111 A 
ATOM     11  C   UNL     1       9.915   2.407  -6.737  0.00  0.00    +0.020 A 
ATOM     12  C   UNL     1       8.930   1.542  -7.187  0.00  0.00    +0.008 A 
ENDBRANCH   3   7
TORSDOF 1
ENDMDL
