MODEL 1
REMARK VINA RESULT:    -0.649      0.000      0.000
REMARK INTER + INTRA:          -0.913
REMARK INTER:                  -0.687
REMARK INTRA:                  -0.225
REMARK UNBOUND:                -0.225
REMARK  Name = Nicotine.pdb
REMARK  2 active torsions:
REMARK  status: ('A' for Active; 'I' for Inactive)
REMARK    1  A    between atoms: C_3  and  C_6
REMARK    2  A    between atoms: N_4  and  C_12
REMARK                            x       y       z     vdW  Elec       q    Type
REMARK                         _______ _______ _______ _____ _____    ______ ____
ROOT
ATOM      1  C   UNL     1      -3.373   3.380   0.186  0.00  0.00    +0.017 C 
ATOM      2  C   UNL     1      -4.379   2.559   1.035  0.00  0.00    +0.025 C 
ATOM      3  C   UNL     1      -4.765   3.541   2.161  0.00  0.00    +0.088 C 
ATOM      4  N   UNL     1      -3.680   4.534   2.266  0.00  0.00    -0.298 NA
ATOM      5  C   UNL     1      -2.635   4.195   1.277  0.00  0.00    +0.085 C 
ATOM      6  C   UNL     1      -4.188   5.895   2.051  0.00  0.00    +0.105 C 
ENDROOT
BRANCH   3   7
ATOM      7  C   UNL     1      -4.909   2.797   3.463  0.00  0.00    -0.012 A 
ATOM      8  C   UNL     1      -5.024   3.488   4.654  0.00  0.00    +0.115 A 
ATOM      9  N   UNL     1      -5.150   2.845   5.799  0.00  0.00    -0.263 NA
ATOM     10  C   UNL     1      -5.171   1.528   5.854  0.00  0.00    +0.111 A 
ATOM     11  C   UNL     1      -5.061   0.769   4.704  0.00  0.00    +0.020 A 
ATOM     12  C   UNL     1      -4.932   1.411   3.482  0.00  0.00    +0.008 A 
ENDBRANCH   3   7
TORSDOF 1
ENDMDL
MODEL 2
REMARK VINA RESULT:    -0.614      1.426      2.523
REMARK INTER + INTRA:          -0.875
REMARK INTER:                  -0.622
REMARK INTRA:                  -0.254
REMARK UNBOUND:                -0.225
REMARK  Name = Nicotine.pdb
REMARK  2 active torsions:
REMARK  status: ('A' for Active; 'I' for Inactive)
REMARK    1  A    between atoms: C_3  and  C_6
REMARK    2  A    between atoms: N_4  and  C_12
REMARK                            x       y       z     vdW  Elec       q    Type
REMARK                         _______ _______ _______ _____ _____    ______ ____
ROOT
ATOM      1  C   UNL     1      -2.693   3.879   0.472  0.00  0.00    +0.017 C 
ATOM      2  C   UNL     1      -2.475   3.749   2.003  0.00  0.00    +0.025 C 
ATOM      3  C   UNL     1      -3.675   2.888   2.452  0.00  0.00    +0.088 C 
ATOM      4  N   UNL     1      -4.724   3.032   1.426  0.00  0.00    -0.298 NA
ATOM      5  C   UNL     1      -4.237   3.958   0.382  0.00  0.00    +0.085 C 
ATOM      6  C   UNL     1      -5.080   1.728   0.850  0.00  0.00    +0.105 C 
ENDROOT
BRANCH   3   7
ATOM      7  C   UNL     1      -4.187   3.376   3.782  0.00  0.00    -0.012 A 
ATOM      8  C   UNL     1      -4.721   2.487   4.695  0.00  0.00    +0.115 A 
ATOM      9  N   UNL     1      -5.171   2.906   5.862  0.00  0.00    -0.263 NA
ATOM     10  C   UNL     1      -5.132   4.179   6.203  0.00  0.00    +0.111 A 
ATOM     11  C   UNL     1      -4.612   5.127   5.342  0.00  0.00    +0.020 A 
ATOM     12  C   UNL     1      -4.124   4.723   4.108  0.00  0.00    +0.008 A 
ENDBRANCH   3   7
TORSDOF 1
ENDMDL
MODEL 3
REMARK VINA RESULT:    -0.587      2.609      3.892
REMARK INTER + INTRA:          -0.847
REMARK INTER:                  -0.591
REMARK INTRA:                  -0.256
REMARK UNBOUND:                -0.225
REMARK  Name = Nicotine.pdb
REMARK  2 active torsions:
REMARK  status: ('A' for Active; 'I' for Inactive)
REMARK    1  A    between atoms: C_3  and  C_6
REMARK    2  A    between atoms: N_4  and  C_12
REMARK                            x       y       z     vdW  Elec       q    Type
REMARK                         _______ _______ _______ _____ _____    ______ ____
ROOT
ATOM      1  C   UNL     1      -2.430  -0.709   0.847  0.00  0.00    +0.017 C 
ATOM      2  C   UNL     1      -2.246   0.278   2.030  0.00  0.00    +0.025 C 
ATOM      3  C   UNL     1      -3.577   0.150   2.800  0.00  0.00    +0.088 C 
ATOM      4  N   UNL     1      -4.581  -0.369   1.853  0.00  0.00    -0.298 NA
ATOM      5  C   UNL     1      -3.938  -0.543   0.533  0.00  0.00    +0.085 C 
ATOM      6  C   UNL     1      -5.152  -1.634   2.332  0.00  0.00    +0.105 C 
ENDROOT
BRANCH   3   7
ATOM      7  C   UNL     1      -4.004   1.501   3.312  0.00  0.00    -0.012 A 
ATOM      8  C   UNL     1      -4.793   1.602   4.443  0.00  0.00    +0.115 A 
ATOM      9  N   UNL     1      -5.171   2.780   4.899  0.00  0.00    -0.263 NA
ATOM     10  C   UNL     1      -4.817   3.901   4.301  0.00  0.00    +0.111 A 
ATOM     11  C   UNL     1      -4.028   3.878   3.165  0.00  0.00    +0.020 A 
ATOM     12  C   UNL     1      -3.607   2.658   2.660  0.00  0.00    +0.008 A 
ENDBRANCH   3   7
TORSDOF 1
ENDMDL
MODEL 4
REMARK VINA RESULT:    -0.584      2.112      4.557
REMARK INTER + INTRA:          -0.844
REMARK INTER:                  -0.588
REMARK INTRA:                  -0.256
REMARK UNBOUND:                -0.225
REMARK  Name = Nicotine.pdb
REMARK  2 active torsions:
REMARK  status: ('A' for Active; 'I' for Inactive)
REMARK    1  A    between atoms: C_3  and  C_6
REMARK    2  A    between atoms: N_4  and  C_12
REMARK                            x       y       z     vdW  Elec       q    Type
REMARK                         _______ _______ _______ _____ _____    ______ ____
ROOT
ATOM      1  C   UNL     1      -4.487   3.577   5.647  0.00  0.00    +0.017 C 
ATOM      2  C   UNL     1      -5.007   3.345   4.204  0.00  0.00    +0.025 C 
ATOM      3  C   UNL     1      -5.158   1.810   4.132  0.00  0.00    +0.088 C 
ATOM      4  N   UNL     1      -4.280   1.236   5.167  0.00  0.00    -0.298 NA
ATOM      5  C   UNL     1      -3.577   2.340   5.854  0.00  0.00    +0.085 C 
ATOM      6  C   UNL     1      -5.048   0.426   6.120  0.00  0.00    +0.105 C 
ENDROOT
BRANCH   3   7
ATOM      7  C   UNL     1      -4.739   1.317   2.771  0.00  0.00    -0.012 A 
ATOM      8  C   UNL     1      -5.145   0.074   2.322  0.00  0.00    +0.115 A 
ATOM      9  N   UNL     1      -4.783  -0.365   1.133  0.00  0.00    -0.263 NA
ATOM     10  C   UNL     1      -4.026   0.356   0.329  0.00  0.00    +0.111 A 
ATOM     11  C   UNL     1      -3.583   1.609   0.709  0.00  0.00    +0.020 A 
ATOM     12  C   UNL     1      -3.948   2.106   1.950  0.00  0.00    +0.008 A 
ENDBRANCH   3   7
TORSDOF 1
ENDMDL
MODEL 5
REMARK VINA RESULT:    -0.542      2.739      3.785
REMARK INTER + INTRA:          -0.799
REMARK INTER:                  -0.548
REMARK INTRA:                  -0.251
REMARK UNBOUND:                -0.225
REMARK  Name = Nicotine.pdb
REMARK  2 active torsions:
REMARK  status: ('A' for Active; 'I' for Inactive)
REMARK    1  A    between atoms: C_3  and  C_6
REMARK    2  A    between atoms: N_4  and  C_12
REMARK                            x       y       z     vdW  Elec       q    Type
REMARK                         _______ _______ _______ _____ _____    ______ ____
ROOT
ATOM      1  C   UNL     1      -3.884  -2.365   1.169  0.00  0.00    +0.017 C 
ATOM      2  C   UNL     1      -4.761  -1.736   2.284  0.00  0.00    +0.025 C 
ATOM      3  C   UNL     1      -4.621  -0.221   2.022  0.00  0.00    +0.088 C 
ATOM      4  N   UNL     1      -3.375  -0.023   1.260  0.00  0.00    -0.298 NA
ATOM      5  C   UNL     1      -2.729  -1.338   1.062  0.00  0.00    +0.085 C 
ATOM      6  C   UNL     1      -3.644   0.631  -0.028  0.00  0.00    +0.105 C 
ENDROOT
BRANCH   3   7
ATOM      7  C   UNL     1      -4.547   0.521   3.331  0.00  0.00    -0.012 A 
ATOM      8  C   UNL     1      -5.171   1.745   3.476  0.00  0.00    +0.115 A 
ATOM      9  N   UNL     1      -5.111   2.401   4.619  0.00  0.00    -0.263 NA
ATOM     10  C   UNL     1      -4.460   1.922   5.660  0.00  0.00    +0.111 A 
ATOM     11  C   UNL     1      -3.812   0.703   5.589  0.00  0.00    +0.020 A 
ATOM     12  C   UNL     1      -3.858  -0.018   4.406  0.00  0.00    +0.008 A 
ENDBRANCH   3   7
TORSDOF 1
ENDMDL
MODEL 6
REMARK VINA RESULT:    -0.488      2.907      4.355
REMARK INTER + INTRA:          -0.742
REMARK INTER:                  -0.538
REMARK INTRA:                  -0.204
REMARK UNBOUND:                -0.225
REMARK  Name = Nicotine.pdb
REMARK  2 active torsions:
REMARK  status: ('A' for Active; 'I' for Inactive)
REMARK    1  A    between atoms: C_3  and  C_6
REMARK    2  A    between atoms: N_4  and  C_12
REMARK                            x       y       z     vdW  Elec       q    Type
REMARK                         _______ _______ _______ _____ _____    ______ ____
ROOT
ATOM      1  C   UNL     1      -3.972  -2.153   3.212  0.00  0.00    +0.017 C 
ATOM      2  C   UNL     1      -4.648  -0.762   3.343  0.00  0.00    +0.025 C 
ATOM      3  C   UNL     1      -3.445   0.203   3.405  0.00  0.00    +0.088 C 
ATOM      4  N   UNL     1      -2.279  -0.579   3.853  0.00  0.00    -0.298 NA
ATOM      5  C   UNL     1      -2.711  -1.973   4.093  0.00  0.00    +0.085 C 
ATOM      6  C   UNL     1      -1.197  -0.527   2.861  0.00  0.00    +0.105 C 
ENDROOT
BRANCH   3   7
ATOM      7  C   UNL     1      -3.727   1.311   4.386  0.00  0.00    -0.012 A 
ATOM      8  C   UNL     1      -4.916   2.014   4.325  0.00  0.00    +0.115 A 
ATOM      9  N   UNL     1      -5.171   2.985   5.180  0.00  0.00    -0.263 NA
ATOM     10  C   UNL     1      -4.311   3.324   6.120  0.00  0.00    +0.111 A 
ATOM     11  C   UNL     1      -3.102   2.666   6.244  0.00  0.00    +0.020 A 
ATOM     12  C   UNL     1      -2.801   1.636   5.366  0.00  0.00    +0.008 A 
ENDBRANCH   3   7
TORSDOF 1
ENDMDL
MODEL 7
REMARK VINA RESULT:    -0.471      5.917      7.272
REMARK INTER + INTRA:          -0.724
REMARK INTER:                  -0.486
REMARK INTRA:                  -0.238
REMARK UNBOUND:                -0.225
REMARK  Name = Nicotine.pdb
REMARK  2 active torsions:
REMARK  status: ('A' for Active; 'I' for Inactive)
REMARK    1  A    between atoms: C_3  and  C_6
REMARK    2  A    between atoms: N_4  and  C_12
REMARK                            x       y       z     vdW  Elec       q    Type
REMARK                         _______ _______ _______ _____ _____    ______ ____
ROOT
ATOM      1  C   UNL     1      -4.307  -0.171   2.081  0.00  0.00    +0.017 C 
ATOM      2  C   UNL     1      -5.142  -1.186   1.256  0.00  0.00    +0.025 C 
ATOM      3  C   UNL     1      -5.171  -2.432   2.166  0.00  0.00    +0.088 C 
ATOM      4  N   UNL     1      -4.020  -2.332   3.081  0.00  0.00    -0.298 NA
ATOM      5  C   UNL     1      -3.270  -1.098   2.762  0.00  0.00    +0.085 C 
ATOM      6  C   UNL     1      -4.459  -2.333   4.483  0.00  0.00    +0.105 C 
ENDROOT
BRANCH   3   7
ATOM      7  C   UNL     1      -5.056  -3.680   1.331  0.00  0.00    -0.012 A 
ATOM      8  C   UNL     1      -5.029  -4.924   1.932  0.00  0.00    +0.115 A 
ATOM      9  N   UNL     1      -4.928  -6.022   1.208  0.00  0.00    -0.263 NA
ATOM     10  C   UNL     1      -4.850  -5.980  -0.107  0.00  0.00    +0.111 A 
ATOM     11  C   UNL     1      -4.872  -4.772  -0.779  0.00  0.00    +0.020 A 
ATOM     12  C   UNL     1      -4.982  -3.597  -0.052  0.00  0.00    +0.008 A 
ENDBRANCH   3   7
TORSDOF 1
ENDMDL
MODEL 8
REMARK VINA RESULT:    -0.469      1.848      4.076
REMARK INTER + INTRA:          -0.721
REMARK INTER:                  -0.467
REMARK INTRA:                  -0.255
REMARK UNBOUND:                -0.225
REMARK  Name = Nicotine.pdb
REMARK  2 active torsions:
REMARK  status: ('A' for Active; 'I' for Inactive)
REMARK    1  A    between atoms: C_3  and  C_6
REMARK    2  A    between atoms: N_4  and  C_12
REMARK                            x       y       z     vdW  Elec       q    Type
REMARK                         _______ _______ _______ _____ _____    ______ ____
ROOT
ATOM      1  C   UNL     1      -3.124   2.436   6.154  0.00  0.00    +0.017 C 
ATOM      2  C   UNL     1      -2.576   2.234   4.717  0.00  0.00    +0.025 C 
ATOM      3  C   UNL     1      -3.570   3.037   3.851  0.00  0.00    +0.088 C 
ATOM      4  N   UNL     1      -4.821   3.159   4.621  0.00  0.00    -0.298 NA
ATOM      5  C   UNL     1      -4.653   2.450   5.907  0.00  0.00    +0.085 C 
ATOM      6  C   UNL     1      -5.170   4.569   4.839  0.00  0.00    +0.105 C 
ENDROOT
BRANCH   3   7
ATOM      7  C   UNL     1      -3.832   2.306   2.559  0.00  0.00    -0.012 A 
ATOM      8  C   UNL     1      -4.146   3.007   1.411  0.00  0.00    +0.115 A 
ATOM      9  N   UNL     1      -4.376   2.375   0.276  0.00  0.00    -0.263 NA
ATOM     10  C   UNL     1      -4.317   1.060   0.191  0.00  0.00    +0.111 A 
ATOM     11  C   UNL     1      -4.008   0.293   1.298  0.00  0.00    +0.020 A 
ATOM     12  C   UNL     1      -3.755   0.922   2.507  0.00  0.00    +0.008 A 
ENDBRANCH   3   7
TORSDOF 1
ENDMDL
MODEL 9
REMARK VINA RESULT:    -0.459      2.793      3.640
REMARK INTER + INTRA:          -0.712
REMARK INTER:                  -0.458
REMARK INTRA:                  -0.254
REMARK UNBOUND:                -0.225
REMARK  Name = Nicotine.pdb
REMARK  2 active torsions:
REMARK  status: ('A' for Active; 'I' for Inactive)
REMARK    1  A    between atoms: C_3  and  C_6
REMARK    2  A    between atoms: N_4  and  C_12
REMARK                            x       y       z     vdW  Elec       q    Type
REMARK                         _______ _______ _______ _____ _____    ______ ____
ROOT
ATOM      1  C   UNL     1       0.545   2.600   3.669  0.00  0.00    +0.017 C 
ATOM      2  C   UNL     1      -0.454   2.376   4.834  0.00  0.00    +0.025 C 
ATOM      3  C   UNL     1      -1.791   2.129   4.104  0.00  0.00    +0.088 C 
ATOM      4  N   UNL     1      -1.672   2.727   2.762  0.00  0.00    -0.298 NA
ATOM      5  C   UNL     1      -0.337   3.352   2.641  0.00  0.00    +0.085 C 
ATOM      6  C   UNL     1      -1.878   1.719   1.715  0.00  0.00    +0.105 C 
ENDROOT
BRANCH   3   7
ATOM      7  C   UNL     1      -2.917   2.783   4.860  0.00  0.00    -0.012 A 
ATOM      8  C   UNL     1      -4.178   2.217   4.865  0.00  0.00    +0.115 A 
ATOM      9  N   UNL     1      -5.169   2.784   5.525  0.00  0.00    -0.263 NA
ATOM     10  C   UNL     1      -5.002   3.903   6.201  0.00  0.00    +0.111 A 
ATOM     11  C   UNL     1      -3.769   4.527   6.243  0.00  0.00    +0.020 A 
ATOM     12  C   UNL     1      -2.701   3.958   5.566  0.00  0.00    +0.008 A 
ENDBRANCH   3   7
TORSDOF 1
ENDMDL
MODEL 10
REMARK VINA RESULT:    -0.439      7.282      8.118
REMARK INTER + INTRA:          -0.690
REMARK INTER:                  -0.475
REMARK INTRA:                  -0.216
REMARK UNBOUND:                -0.225
REMARK  Name = Nicotine.pdb
REMARK  2 active torsions:
REMARK  status: ('A' for Active; 'I' for Inactive)
REMARK    1  A    between atoms: C_3  and  C_6
REMARK    2  A    between atoms: N_4  and  C_12
REMARK                            x       y       z     vdW  Elec       q    Type
REMARK                         _______ _______ _______ _____ _____    ______ ____
ROOT
ATOM      1  C   UNL     1      -2.855  -3.383  -3.893  0.00  0.00    +0.017 C 
ATOM      2  C   UNL     1      -3.704  -4.429  -3.123  0.00  0.00    +0.025 C 
ATOM      3  C   UNL     1      -4.638  -3.553  -2.262  0.00  0.00    +0.088 C 
ATOM      4  N   UNL     1      -3.994  -2.235  -2.121  0.00  0.00    -0.298 NA
ATOM      5  C   UNL     1      -2.697  -2.266  -2.831  0.00  0.00    +0.085 C 
ATOM      6  C   UNL     1      -4.856  -1.167  -2.645  0.00  0.00    +0.105 C 
ENDROOT
BRANCH   3   7
ATOM      7  C   UNL     1      -4.825  -4.181  -0.906  0.00  0.00    -0.012 A 
ATOM      8  C   UNL     1      -4.981  -3.390   0.216  0.00  0.00    +0.115 A 
ATOM      9  N   UNL     1      -5.146  -3.932   1.407  0.00  0.00    -0.263 NA
ATOM     10  C   UNL     1      -5.168  -5.239   1.576  0.00  0.00    +0.111 A 
ATOM     11  C   UNL     1      -5.018  -6.095   0.500  0.00  0.00    +0.020 A 
ATOM     12  C   UNL     1      -4.849  -5.561  -0.768  0.00  0.00    +0.008 A 
ENDBRANCH   3   7
TORSDOF 1
ENDMDL
