MODEL 1
REMARK VINA RESULT:    -2.582      0.000      0.000
REMARK INTER + INTRA:          -2.948
REMARK INTER:                  -2.733
REMARK INTRA:                  -0.216
REMARK UNBOUND:                -0.216
REMARK  Name = Nicotine.pdb
REMARK  2 active torsions:
REMARK  status: ('A' for Active; 'I' for Inactive)
REMARK    1  A    between atoms: C_3  and  C_6
REMARK    2  A    between atoms: N_4  and  C_12
REMARK                            x       y       z     vdW  Elec       q    Type
REMARK                         _______ _______ _______ _____ _____    ______ ____
ROOT
ATOM      1  C   UNL     1       6.668   7.012  -5.938  0.00  0.00    +0.017 C 
ATOM      2  C   UNL     1       7.243   5.822  -6.750  0.00  0.00    +0.025 C 
ATOM      3  C   UNL     1       5.975   5.077  -7.220  0.00  0.00    +0.088 C 
ATOM      4  N   UNL     1       4.884   5.451  -6.302  0.00  0.00    -0.298 NA
ATOM      5  C   UNL     1       5.424   6.368  -5.276  0.00  0.00    +0.085 C 
ATOM      6  C   UNL     1       3.771   6.073  -7.031  0.00  0.00    +0.105 C 
ENDROOT
BRANCH   3   7
ATOM      7  C   UNL     1       6.205   3.589  -7.167  0.00  0.00    -0.012 A 
ATOM      8  C   UNL     1       5.137   2.721  -7.037  0.00  0.00    +0.115 A 
ATOM      9  N   UNL     1       5.329   1.417  -6.990  0.00  0.00    -0.263 NA
ATOM     10  C   UNL     1       6.536   0.892  -7.064  0.00  0.00    +0.111 A 
ATOM     11  C   UNL     1       7.652   1.697  -7.196  0.00  0.00    +0.020 A 
ATOM     12  C   UNL     1       7.488   3.073  -7.254  0.00  0.00    +0.008 A 
ENDBRANCH   3   7
TORSDOF 1
ENDMDL
MODEL 2
REMARK VINA RESULT:    -2.484      1.618      4.424
REMARK INTER + INTRA:          -2.845
REMARK INTER:                  -2.591
REMARK INTRA:                  -0.255
REMARK UNBOUND:                -0.216
REMARK  Name = Nicotine.pdb
REMARK  2 active torsions:
REMARK  status: ('A' for Active; 'I' for Inactive)
REMARK    1  A    between atoms: C_3  and  C_6
REMARK    2  A    between atoms: N_4  and  C_12
REMARK                            x       y       z     vdW  Elec       q    Type
REMARK                         _______ _______ _______ _____ _____    ______ ____
ROOT
ATOM      1  C   UNL     1       2.450   3.244  -6.918  0.00  0.00    +0.017 C 
ATOM      2  C   UNL     1       3.256   4.527  -7.256  0.00  0.00    +0.025 C 
ATOM      3  C   UNL     1       4.720   4.046  -7.182  0.00  0.00    +0.088 C 
ATOM      4  N   UNL     1       4.742   2.838  -6.337  0.00  0.00    -0.298 NA
ATOM      5  C   UNL     1       3.366   2.567  -5.868  0.00  0.00    +0.085 C 
ATOM      6  C   UNL     1       5.283   1.689  -7.074  0.00  0.00    +0.105 C 
ENDROOT
BRANCH   3   7
ATOM      7  C   UNL     1       5.581   5.119  -6.567  0.00  0.00    -0.012 A 
ATOM      8  C   UNL     1       6.908   5.246  -6.933  0.00  0.00    +0.115 A 
ATOM      9  N   UNL     1       7.669   6.182  -6.400  0.00  0.00    -0.263 NA
ATOM     10  C   UNL     1       7.201   7.028  -5.504  0.00  0.00    +0.111 A 
ATOM     11  C   UNL     1       5.883   6.962  -5.088  0.00  0.00    +0.020 A 
ATOM     12  C   UNL     1       5.052   5.994  -5.631  0.00  0.00    +0.008 A 
ENDBRANCH   3   7
TORSDOF 1
ENDMDL
MODEL 3
REMARK VINA RESULT:    -2.015      6.121      8.831
REMARK INTER + INTRA:          -2.349
REMARK INTER:                  -2.156
REMARK INTRA:                  -0.192
REMARK UNBOUND:                -0.216
REMARK  Name = Nicotine.pdb
REMARK  2 active torsions:
REMARK  status: ('A' for Active; 'I' for Inactive)
REMARK    1  A    between atoms: C_3  and  C_6
REMARK    2  A    between atoms: N_4  and  C_12
REMARK                            x       y       z     vdW  Elec       q    Type
REMARK                         _______ _______ _______ _____ _____    ______ ____
ROOT
ATOM      1  C   UNL     1       7.404  -5.286  -3.526  0.00  0.00    +0.017 C 
ATOM      2  C   UNL     1       7.257  -3.816  -4.003  0.00  0.00    +0.025 C 
ATOM      3  C   UNL     1       7.291  -3.945  -5.541  0.00  0.00    +0.088 C 
ATOM      4  N   UNL     1       7.964  -5.218  -5.858  0.00  0.00    -0.298 NA
ATOM      5  C   UNL     1       8.369  -5.865  -4.591  0.00  0.00    +0.085 C 
ATOM      6  C   UNL     1       7.088  -6.097  -6.643  0.00  0.00    +0.105 C 
ENDROOT
BRANCH   3   7
ATOM      7  C   UNL     1       8.061  -2.794  -6.135  0.00  0.00    -0.012 A 
ATOM      8  C   UNL     1       7.394  -1.692  -6.634  0.00  0.00    +0.115 A 
ATOM      9  N   UNL     1       8.060  -0.680  -7.156  0.00  0.00    -0.263 NA
ATOM     10  C   UNL     1       9.377  -0.678  -7.223  0.00  0.00    +0.111 A 
ATOM     11  C   UNL     1      10.111  -1.746  -6.743  0.00  0.00    +0.020 A 
ATOM     12  C   UNL     1       9.446  -2.825  -6.183  0.00  0.00    +0.008 A 
ENDBRANCH   3   7
TORSDOF 1
ENDMDL
MODEL 4
REMARK VINA RESULT:    -1.773      6.108      9.353
REMARK INTER + INTRA:          -2.092
REMARK INTER:                  -1.876
REMARK INTRA:                  -0.216
REMARK UNBOUND:                -0.216
REMARK  Name = Nicotine.pdb
REMARK  2 active torsions:
REMARK  status: ('A' for Active; 'I' for Inactive)
REMARK    1  A    between atoms: C_3  and  C_6
REMARK    2  A    between atoms: N_4  and  C_12
REMARK                            x       y       z     vdW  Elec       q    Type
REMARK                         _______ _______ _______ _____ _____    ______ ____
ROOT
ATOM      1  C   UNL     1       6.822  -6.095  -3.945  0.00  0.00    +0.017 C 
ATOM      2  C   UNL     1       6.447  -5.225  -5.174  0.00  0.00    +0.025 C 
ATOM      3  C   UNL     1       7.818  -4.918  -5.812  0.00  0.00    +0.088 C 
ATOM      4  N   UNL     1       8.837  -5.080  -4.759  0.00  0.00    -0.298 NA
ATOM      5  C   UNL     1       8.157  -5.448  -3.499  0.00  0.00    +0.085 C 
ATOM      6  C   UNL     1       9.829  -6.095  -5.138  0.00  0.00    +0.105 C 
ENDROOT
BRANCH   3   7
ATOM      7  C   UNL     1       7.836  -3.503  -6.331  0.00  0.00    -0.012 A 
ATOM      8  C   UNL     1       9.028  -2.810  -6.430  0.00  0.00    +0.115 A 
ATOM      9  N   UNL     1       9.053  -1.572  -6.883  0.00  0.00    -0.263 NA
ATOM     10  C   UNL     1       7.953  -0.948  -7.256  0.00  0.00    +0.111 A 
ATOM     11  C   UNL     1       6.724  -1.578  -7.185  0.00  0.00    +0.020 A 
ATOM     12  C   UNL     1       6.659  -2.882  -6.719  0.00  0.00    +0.008 A 
ENDBRANCH   3   7
TORSDOF 1
ENDMDL
MODEL 5
REMARK VINA RESULT:    -1.338      2.121      2.930
REMARK INTER + INTRA:          -1.632
REMARK INTER:                  -1.387
REMARK INTRA:                  -0.244
REMARK UNBOUND:                -0.216
REMARK  Name = Nicotine.pdb
REMARK  2 active torsions:
REMARK  status: ('A' for Active; 'I' for Inactive)
REMARK    1  A    between atoms: C_3  and  C_6
REMARK    2  A    between atoms: N_4  and  C_12
REMARK                            x       y       z     vdW  Elec       q    Type
REMARK                         _______ _______ _______ _____ _____    ______ ____
ROOT
ATOM      1  C   UNL     1       4.858   6.104  -6.704  0.00  0.00    +0.017 C 
ATOM      2  C   UNL     1       6.302   5.957  -7.252  0.00  0.00    +0.025 C 
ATOM      3  C   UNL     1       6.517   4.428  -7.255  0.00  0.00    +0.088 C 
ATOM      4  N   UNL     1       5.567   3.851  -6.288  0.00  0.00    -0.298 NA
ATOM      5  C   UNL     1       4.796   4.951  -5.671  0.00  0.00    +0.085 C 
ATOM      6  C   UNL     1       4.676   2.882  -6.938  0.00  0.00    +0.105 C 
ENDROOT
BRANCH   3   7
ATOM      7  C   UNL     1       7.930   4.109  -6.841  0.00  0.00    -0.012 A 
ATOM      8  C   UNL     1       8.380   2.802  -6.841  0.00  0.00    +0.115 A 
ATOM      9  N   UNL     1       9.616   2.514  -6.480  0.00  0.00    -0.263 NA
ATOM     10  C   UNL     1      10.465   3.451  -6.108  0.00  0.00    +0.111 A 
ATOM     11  C   UNL     1      10.087   4.780  -6.083  0.00  0.00    +0.020 A 
ATOM     12  C   UNL     1       8.797   5.122  -6.461  0.00  0.00    +0.008 A 
ENDBRANCH   3   7
TORSDOF 1
ENDMDL
MODEL 6
REMARK VINA RESULT:    -1.184      1.746      3.910
REMARK INTER + INTRA:          -1.469
REMARK INTER:                  -1.277
REMARK INTRA:                  -0.191
REMARK UNBOUND:                -0.216
REMARK  Name = Nicotine.pdb
REMARK  2 active torsions:
REMARK  status: ('A' for Active; 'I' for Inactive)
REMARK    1  A    between atoms: C_3  and  C_6
REMARK    2  A    between atoms: N_4  and  C_12
REMARK                            x       y       z     vdW  Elec       q    Type
REMARK                         _______ _______ _______ _____ _____    ______ ____
ROOT
ATOM      1  C   UNL     1       3.706   3.412  -6.442  0.00  0.00    +0.017 C 
ATOM      2  C   UNL     1       4.718   4.456  -6.981  0.00  0.00    +0.025 C 
ATOM      3  C   UNL     1       5.978   3.609  -7.256  0.00  0.00    +0.088 C 
ATOM      4  N   UNL     1       5.878   2.395  -6.425  0.00  0.00    -0.298 NA
ATOM      5  C   UNL     1       4.631   2.467  -5.635  0.00  0.00    +0.085 C 
ATOM      6  C   UNL     1       5.907   1.184  -7.255  0.00  0.00    +0.105 C 
ENDROOT
BRANCH   3   7
ATOM      7  C   UNL     1       7.212   4.388  -6.881  0.00  0.00    -0.012 A 
ATOM      8  C   UNL     1       7.127   5.737  -6.594  0.00  0.00    +0.115 A 
ATOM      9  N   UNL     1       8.202   6.426  -6.264  0.00  0.00    -0.263 NA
ATOM     10  C   UNL     1       9.392   5.863  -6.196  0.00  0.00    +0.111 A 
ATOM     11  C   UNL     1       9.555   4.518  -6.469  0.00  0.00    +0.020 A 
ATOM     12  C   UNL     1       8.447   3.760  -6.814  0.00  0.00    +0.008 A 
ENDBRANCH   3   7
TORSDOF 1
ENDMDL
MODEL 7
REMARK VINA RESULT:    -1.083      1.735      2.953
REMARK INTER + INTRA:          -1.363
REMARK INTER:                  -1.157
REMARK INTRA:                  -0.205
REMARK UNBOUND:                -0.216
REMARK  Name = Nicotine.pdb
REMARK  2 active torsions:
REMARK  status: ('A' for Active; 'I' for Inactive)
REMARK    1  A    between atoms: C_3  and  C_6
REMARK    2  A    between atoms: N_4  and  C_12
REMARK                            x       y       z     vdW  Elec       q    Type
REMARK                         _______ _______ _______ _____ _____    ______ ____
ROOT
ATOM      1  C   UNL     1       5.818   4.637  -6.338  0.00  0.00    +0.017 C 
ATOM      2  C   UNL     1       6.543   3.617  -7.255  0.00  0.00    +0.025 C 
ATOM      3  C   UNL     1       5.588   2.404  -7.247  0.00  0.00    +0.088 C 
ATOM      4  N   UNL     1       4.765   2.505  -6.029  0.00  0.00    -0.298 NA
ATOM      5  C   UNL     1       5.183   3.706  -5.275  0.00  0.00    +0.085 C 
ATOM      6  C   UNL     1       3.336   2.563  -6.362  0.00  0.00    +0.105 C 
ENDROOT
BRANCH   3   7
ATOM      7  C   UNL     1       6.385   1.125  -7.224  0.00  0.00    -0.012 A 
ATOM      8  C   UNL     1       7.765   1.163  -7.167  0.00  0.00    +0.115 A 
ATOM      9  N   UNL     1       8.470   0.048  -7.147  0.00  0.00    -0.263 NA
ATOM     10  C   UNL     1       7.894  -1.137  -7.181  0.00  0.00    +0.111 A 
ATOM     11  C   UNL     1       6.518  -1.253  -7.239  0.00  0.00    +0.020 A 
ATOM     12  C   UNL     1       5.743  -0.103  -7.256  0.00  0.00    +0.008 A 
ENDBRANCH   3   7
TORSDOF 1
ENDMDL
MODEL 8
REMARK VINA RESULT:    -0.843      2.606      4.343
REMARK INTER + INTRA:          -1.109
REMARK INTER:                  -0.857
REMARK INTRA:                  -0.251
REMARK UNBOUND:                -0.216
REMARK  Name = Nicotine.pdb
REMARK  2 active torsions:
REMARK  status: ('A' for Active; 'I' for Inactive)
REMARK    1  A    between atoms: C_3  and  C_6
REMARK    2  A    between atoms: N_4  and  C_12
REMARK                            x       y       z     vdW  Elec       q    Type
REMARK                         _______ _______ _______ _____ _____    ______ ____
ROOT
ATOM      1  C   UNL     1       4.770   6.008  -6.612  0.00  0.00    +0.017 C 
ATOM      2  C   UNL     1       6.104   6.718  -6.962  0.00  0.00    +0.025 C 
ATOM      3  C   UNL     1       7.092   5.542  -7.119  0.00  0.00    +0.088 C 
ATOM      4  N   UNL     1       6.533   4.400  -6.373  0.00  0.00    -0.298 NA
ATOM      5  C   UNL     1       5.263   4.824  -5.745  0.00  0.00    +0.085 C 
ATOM      6  C   UNL     1       6.324   3.245  -7.256  0.00  0.00    +0.105 C 
ENDROOT
BRANCH   3   7
ATOM      7  C   UNL     1       8.434   5.921  -6.549  0.00  0.00    -0.012 A 
ATOM      8  C   UNL     1       9.598   5.500  -7.164  0.00  0.00    +0.115 A 
ATOM      9  N   UNL     1      10.777   5.827  -6.672  0.00  0.00    -0.263 NA
ATOM     10  C   UNL     1      10.895   6.561  -5.584  0.00  0.00    +0.111 A 
ATOM     11  C   UNL     1       9.775   7.019  -4.915  0.00  0.00    +0.020 A 
ATOM     12  C   UNL     1       8.518   6.700  -5.405  0.00  0.00    +0.008 A 
ENDBRANCH   3   7
TORSDOF 1
ENDMDL
MODEL 9
REMARK VINA RESULT:    -0.838      8.281      9.538
REMARK INTER + INTRA:          -1.103
REMARK INTER:                  -0.891
REMARK INTRA:                  -0.212
REMARK UNBOUND:                -0.216
REMARK  Name = Nicotine.pdb
REMARK  2 active torsions:
REMARK  status: ('A' for Active; 'I' for Inactive)
REMARK    1  A    between atoms: C_3  and  C_6
REMARK    2  A    between atoms: N_4  and  C_12
REMARK                            x       y       z     vdW  Elec       q    Type
REMARK                         _______ _______ _______ _____ _____    ______ ____
ROOT
ATOM      1  C   UNL     1       5.915  -3.095  -4.119  0.00  0.00    +0.017 C 
ATOM      2  C   UNL     1       6.542  -3.480  -5.485  0.00  0.00    +0.025 C 
ATOM      3  C   UNL     1       7.274  -4.801  -5.170  0.00  0.00    +0.088 C 
ATOM      4  N   UNL     1       7.524  -4.828  -3.718  0.00  0.00    -0.298 NA
ATOM      5  C   UNL     1       7.004  -3.576  -3.128  0.00  0.00    +0.085 C 
ATOM      6  C   UNL     1       6.899  -6.003  -3.097  0.00  0.00    +0.105 C 
ENDROOT
BRANCH   3   7
ATOM      7  C   UNL     1       8.582  -4.854  -5.917  0.00  0.00    -0.012 A 
ATOM      8  C   UNL     1       9.316  -3.701  -6.123  0.00  0.00    +0.115 A 
ATOM      9  N   UNL     1      10.461  -3.738  -6.776  0.00  0.00    -0.263 NA
ATOM     10  C   UNL     1      10.949  -4.865  -7.256  0.00  0.00    +0.111 A 
ATOM     11  C   UNL     1      10.271  -6.058  -7.088  0.00  0.00    +0.020 A 
ATOM     12  C   UNL     1       9.066  -6.059  -6.402  0.00  0.00    +0.008 A 
ENDBRANCH   3   7
TORSDOF 1
ENDMDL
