MODEL 1
REMARK VINA RESULT:    -3.084      0.000      0.000
REMARK INTER + INTRA:          -3.481
REMARK INTER:                  -3.265
REMARK INTRA:                  -0.216
REMARK UNBOUND:                -0.216
REMARK  Name = Nicotine.pdb
REMARK  2 active torsions:
REMARK  status: ('A' for Active; 'I' for Inactive)
REMARK    1  A    between atoms: C_3  and  C_6
REMARK    2  A    between atoms: N_4  and  C_12
REMARK                            x       y       z     vdW  Elec       q    Type
REMARK                         _______ _______ _______ _____ _____    ______ ____
ROOT
ATOM      1  C   UNL     1       9.157  -2.592  -2.895  0.00  0.00    +0.017 C 
ATOM      2  C   UNL     1       7.942  -2.276  -3.807  0.00  0.00    +0.025 C 
ATOM      3  C   UNL     1       8.156  -0.790  -4.168  0.00  0.00    +0.088 C 
ATOM      4  N   UNL     1       9.022  -0.208  -3.127  0.00  0.00    -0.298 NA
ATOM      5  C   UNL     1       9.330  -1.256  -2.130  0.00  0.00    +0.085 C 
ATOM      6  C   UNL     1      10.253   0.341  -3.711  0.00  0.00    +0.105 C 
ENDROOT
BRANCH   3   7
ATOM      7  C   UNL     1       6.832  -0.073  -4.195  0.00  0.00    -0.012 A 
ATOM      8  C   UNL     1       6.766   1.284  -3.939  0.00  0.00    +0.115 A 
ATOM      9  N   UNL     1       5.610   1.919  -3.961  0.00  0.00    -0.263 NA
ATOM     10  C   UNL     1       4.480   1.293  -4.224  0.00  0.00    +0.111 A 
ATOM     11  C   UNL     1       4.468  -0.063  -4.490  0.00  0.00    +0.020 A 
ATOM     12  C   UNL     1       5.664  -0.764  -4.482  0.00  0.00    +0.008 A 
ENDBRANCH   3   7
TORSDOF 1
ENDMDL
MODEL 2
REMARK VINA RESULT:    -3.028      2.217      3.473
REMARK INTER + INTRA:          -3.421
REMARK INTER:                  -3.198
REMARK INTRA:                  -0.223
REMARK UNBOUND:                -0.216
REMARK  Name = Nicotine.pdb
REMARK  2 active torsions:
REMARK  status: ('A' for Active; 'I' for Inactive)
REMARK    1  A    between atoms: C_3  and  C_6
REMARK    2  A    between atoms: N_4  and  C_12
REMARK                            x       y       z     vdW  Elec       q    Type
REMARK                         _______ _______ _______ _____ _____    ______ ____
ROOT
ATOM      1  C   UNL     1       4.201  -3.937  -3.963  0.00  0.00    +0.017 C 
ATOM      2  C   UNL     1       3.838  -2.450  -4.221  0.00  0.00    +0.025 C 
ATOM      3  C   UNL     1       5.054  -1.930  -5.017  0.00  0.00    +0.088 C 
ATOM      4  N   UNL     1       6.187  -2.824  -4.718  0.00  0.00    -0.298 NA
ATOM      5  C   UNL     1       5.734  -3.853  -3.758  0.00  0.00    +0.085 C 
ATOM      6  C   UNL     1       6.710  -3.440  -5.944  0.00  0.00    +0.105 C 
ENDROOT
BRANCH   3   7
ATOM      7  C   UNL     1       5.382  -0.523  -4.589  0.00  0.00    -0.012 A 
ATOM      8  C   UNL     1       6.669  -0.190  -4.208  0.00  0.00    +0.115 A 
ATOM      9  N   UNL     1       6.965   1.039  -3.832  0.00  0.00    -0.263 NA
ATOM     10  C   UNL     1       6.055   1.993  -3.803  0.00  0.00    +0.111 A 
ATOM     11  C   UNL     1       4.747   1.735  -4.170  0.00  0.00    +0.020 A 
ATOM     12  C   UNL     1       4.400   0.456  -4.576  0.00  0.00    +0.008 A 
ENDBRANCH   3   7
TORSDOF 1
ENDMDL
MODEL 3
REMARK VINA RESULT:    -2.886      8.742      9.303
REMARK INTER + INTRA:          -3.270
REMARK INTER:                  -3.050
REMARK INTRA:                  -0.221
REMARK UNBOUND:                -0.216
REMARK  Name = Nicotine.pdb
REMARK  2 active torsions:
REMARK  status: ('A' for Active; 'I' for Inactive)
REMARK    1  A    between atoms: C_3  and  C_6
REMARK    2  A    between atoms: N_4  and  C_12
REMARK                            x       y       z     vdW  Elec       q    Type
REMARK                         _______ _______ _______ _____ _____    ______ ____
ROOT
ATOM      1  C   UNL     1       3.103   3.542   3.091  0.00  0.00    +0.017 C 
ATOM      2  C   UNL     1       2.354   4.025   1.822  0.00  0.00    +0.025 C 
ATOM      3  C   UNL     1       0.911   3.531   2.061  0.00  0.00    +0.088 C 
ATOM      4  N   UNL     1       0.985   2.419   3.025  0.00  0.00    -0.298 NA
ATOM      5  C   UNL     1       2.404   2.189   3.371  0.00  0.00    +0.085 C 
ATOM      6  C   UNL     1       0.190   2.709   4.226  0.00  0.00    +0.105 C 
ENDROOT
BRANCH   3   7
ATOM      7  C   UNL     1       0.313   3.049   0.765  0.00  0.00    -0.012 A 
ATOM      8  C   UNL     1      -0.329   1.826   0.703  0.00  0.00    +0.115 A 
ATOM      9  N   UNL     1      -0.855   1.397  -0.427  0.00  0.00    -0.263 NA
ATOM     10  C   UNL     1      -0.792   2.108  -1.535  0.00  0.00    +0.111 A 
ATOM     11  C   UNL     1      -0.166   3.341  -1.550  0.00  0.00    +0.020 A 
ATOM     12  C   UNL     1       0.394   3.828  -0.380  0.00  0.00    +0.008 A 
ENDBRANCH   3   7
TORSDOF 1
ENDMDL
MODEL 4
REMARK VINA RESULT:    -2.879      2.546      5.163
REMARK INTER + INTRA:          -3.263
REMARK INTER:                  -3.047
REMARK INTRA:                  -0.216
REMARK UNBOUND:                -0.216
REMARK  Name = Nicotine.pdb
REMARK  2 active torsions:
REMARK  status: ('A' for Active; 'I' for Inactive)
REMARK    1  A    between atoms: C_3  and  C_6
REMARK    2  A    between atoms: N_4  and  C_12
REMARK                            x       y       z     vdW  Elec       q    Type
REMARK                         _______ _______ _______ _____ _____    ______ ____
ROOT
ATOM      1  C   UNL     1       1.377  -1.484  -4.332  0.00  0.00    +0.017 C 
ATOM      2  C   UNL     1       2.438  -0.392  -4.630  0.00  0.00    +0.025 C 
ATOM      3  C   UNL     1       3.629  -1.206  -5.180  0.00  0.00    +0.088 C 
ATOM      4  N   UNL     1       3.476  -2.588  -4.691  0.00  0.00    -0.298 NA
ATOM      5  C   UNL     1       2.264  -2.658  -3.847  0.00  0.00    +0.085 C 
ATOM      6  C   UNL     1       3.396  -3.536  -5.809  0.00  0.00    +0.105 C 
ENDROOT
BRANCH   3   7
ATOM      7  C   UNL     1       4.924  -0.622  -4.676  0.00  0.00    -0.012 A 
ATOM      8  C   UNL     1       6.046  -1.418  -4.549  0.00  0.00    +0.115 A 
ATOM      9  N   UNL     1       7.183  -0.916  -4.109  0.00  0.00    -0.263 NA
ATOM     10  C   UNL     1       7.297   0.355  -3.776  0.00  0.00    +0.111 A 
ATOM     11  C   UNL     1       6.217   1.212  -3.878  0.00  0.00    +0.020 A 
ATOM     12  C   UNL     1       5.006   0.721  -4.341  0.00  0.00    +0.008 A 
ENDBRANCH   3   7
TORSDOF 1
ENDMDL
MODEL 5
REMARK VINA RESULT:    -2.826      1.579      4.558
REMARK INTER + INTRA:          -3.207
REMARK INTER:                  -3.009
REMARK INTRA:                  -0.198
REMARK UNBOUND:                -0.216
REMARK  Name = Nicotine.pdb
REMARK  2 active torsions:
REMARK  status: ('A' for Active; 'I' for Inactive)
REMARK    1  A    between atoms: C_3  and  C_6
REMARK    2  A    between atoms: N_4  and  C_12
REMARK                            x       y       z     vdW  Elec       q    Type
REMARK                         _______ _______ _______ _____ _____    ______ ____
ROOT
ATOM      1  C   UNL     1       4.987   0.100  -4.544  0.00  0.00    +0.017 C 
ATOM      2  C   UNL     1       6.440   0.324  -4.048  0.00  0.00    +0.025 C 
ATOM      3  C   UNL     1       7.198  -0.882  -4.642  0.00  0.00    +0.088 C 
ATOM      4  N   UNL     1       6.202  -1.934  -4.913  0.00  0.00    -0.298 NA
ATOM      5  C   UNL     1       4.872  -1.444  -4.493  0.00  0.00    +0.085 C 
ATOM      6  C   UNL     1       6.202  -2.306  -6.334  0.00  0.00    +0.105 C 
ENDROOT
BRANCH   3   7
ATOM      7  C   UNL     1       8.218  -1.384  -3.652  0.00  0.00    -0.012 A 
ATOM      8  C   UNL     1       9.026  -0.494  -2.969  0.00  0.00    +0.115 A 
ATOM      9  N   UNL     1       9.921  -0.924  -2.101  0.00  0.00    -0.263 NA
ATOM     10  C   UNL     1      10.082  -2.209  -1.852  0.00  0.00    +0.111 A 
ATOM     11  C   UNL     1       9.310  -3.157  -2.496  0.00  0.00    +0.020 A 
ATOM     12  C   UNL     1       8.355  -2.742  -3.411  0.00  0.00    +0.008 A 
ENDBRANCH   3   7
TORSDOF 1
ENDMDL
MODEL 6
REMARK VINA RESULT:    -2.789      2.339      4.079
REMARK INTER + INTRA:          -3.168
REMARK INTER:                  -2.956
REMARK INTRA:                  -0.211
REMARK UNBOUND:                -0.216
REMARK  Name = Nicotine.pdb
REMARK  2 active torsions:
REMARK  status: ('A' for Active; 'I' for Inactive)
REMARK    1  A    between atoms: C_3  and  C_6
REMARK    2  A    between atoms: N_4  and  C_12
REMARK                            x       y       z     vdW  Elec       q    Type
REMARK                         _______ _______ _______ _____ _____    ______ ____
ROOT
ATOM      1  C   UNL     1       5.264  -3.373  -6.682  0.00  0.00    +0.017 C 
ATOM      2  C   UNL     1       6.204  -2.322  -6.035  0.00  0.00    +0.025 C 
ATOM      3  C   UNL     1       5.489  -1.985  -4.710  0.00  0.00    +0.088 C 
ATOM      4  N   UNL     1       4.068  -2.340  -4.877  0.00  0.00    -0.298 NA
ATOM      5  C   UNL     1       3.870  -2.854  -6.249  0.00  0.00    +0.085 C 
ATOM      6  C   UNL     1       3.651  -3.331  -3.877  0.00  0.00    +0.105 C 
ENDROOT
BRANCH   3   7
ATOM      7  C   UNL     1       5.620  -0.513  -4.416  0.00  0.00    -0.012 A 
ATOM      8  C   UNL     1       6.846   0.026  -4.076  0.00  0.00    +0.115 A 
ATOM      9  N   UNL     1       6.970   1.313  -3.818  0.00  0.00    -0.263 NA
ATOM     10  C   UNL     1       5.939   2.133  -3.872  0.00  0.00    +0.111 A 
ATOM     11  C   UNL     1       4.681   1.666  -4.205  0.00  0.00    +0.020 A 
ATOM     12  C   UNL     1       4.513   0.320  -4.488  0.00  0.00    +0.008 A 
ENDBRANCH   3   7
TORSDOF 1
ENDMDL
MODEL 7
REMARK VINA RESULT:    -2.741      7.872      9.337
REMARK INTER + INTRA:          -3.117
REMARK INTER:                  -2.895
REMARK INTRA:                  -0.222
REMARK UNBOUND:                -0.216
REMARK  Name = Nicotine.pdb
REMARK  2 active torsions:
REMARK  status: ('A' for Active; 'I' for Inactive)
REMARK    1  A    between atoms: C_3  and  C_6
REMARK    2  A    between atoms: N_4  and  C_12
REMARK                            x       y       z     vdW  Elec       q    Type
REMARK                         _______ _______ _______ _____ _____    ______ ____
ROOT
ATOM      1  C   UNL     1       0.087   1.728   1.781  0.00  0.00    +0.017 C 
ATOM      2  C   UNL     1       1.425   2.265   2.355  0.00  0.00    +0.025 C 
ATOM      3  C   UNL     1       1.349   3.777   2.055  0.00  0.00    +0.088 C 
ATOM      4  N   UNL     1       0.395   3.956   0.946  0.00  0.00    -0.298 NA
ATOM      5  C   UNL     1      -0.100   2.625   0.533  0.00  0.00    +0.085 C 
ATOM      6  C   UNL     1      -0.716   4.831   1.342  0.00  0.00    +0.105 C 
ENDROOT
BRANCH   3   7
ATOM      7  C   UNL     1       2.708   4.289   1.652  0.00  0.00    -0.012 A 
ATOM      8  C   UNL     1       2.861   5.026   0.492  0.00  0.00    +0.115 A 
ATOM      9  N   UNL     1       4.046   5.477   0.132  0.00  0.00    -0.263 NA
ATOM     10  C   UNL     1       5.125   5.247   0.854  0.00  0.00    +0.111 A 
ATOM     11  C   UNL     1       5.049   4.518   2.027  0.00  0.00    +0.020 A 
ATOM     12  C   UNL     1       3.818   4.032   2.440  0.00  0.00    +0.008 A 
ENDBRANCH   3   7
TORSDOF 1
ENDMDL
MODEL 8
REMARK VINA RESULT:    -2.729      8.859     10.175
REMARK INTER + INTRA:          -3.104
REMARK INTER:                  -2.853
REMARK INTRA:                  -0.251
REMARK UNBOUND:                -0.216
REMARK  Name = Nicotine.pdb
REMARK  2 active torsions:
REMARK  status: ('A' for Active; 'I' for Inactive)
REMARK    1  A    between atoms: C_3  and  C_6
REMARK    2  A    between atoms: N_4  and  C_12
REMARK                            x       y       z     vdW  Elec       q    Type
REMARK                         _______ _______ _______ _____ _____    ______ ____
ROOT
ATOM      1  C   UNL     1       3.945   3.660   4.750  0.00  0.00    +0.017 C 
ATOM      2  C   UNL     1       2.997   2.445   4.566  0.00  0.00    +0.025 C 
ATOM      3  C   UNL     1       2.325   2.732   3.206  0.00  0.00    +0.088 C 
ATOM      4  N   UNL     1       2.432   4.182   2.964  0.00  0.00    -0.298 NA
ATOM      5  C   UNL     1       3.113   4.804   4.119  0.00  0.00    +0.085 C 
ATOM      6  C   UNL     1       3.155   4.456   1.715  0.00  0.00    +0.105 C 
ENDROOT
BRANCH   3   7
ATOM      7  C   UNL     1       0.876   2.325   3.254  0.00  0.00    -0.012 A 
ATOM      8  C   UNL     1       0.273   1.753   2.150  0.00  0.00    +0.115 A 
ATOM      9  N   UNL     1      -0.995   1.393   2.183  0.00  0.00    -0.263 NA
ATOM     10  C   UNL     1      -1.735   1.562   3.261  0.00  0.00    +0.111 A 
ATOM     11  C   UNL     1      -1.201   2.126   4.405  0.00  0.00    +0.020 A 
ATOM     12  C   UNL     1       0.130   2.512   4.409  0.00  0.00    +0.008 A 
ENDBRANCH   3   7
TORSDOF 1
ENDMDL
MODEL 9
REMARK VINA RESULT:    -2.654      1.376      2.208
REMARK INTER + INTRA:          -3.025
REMARK INTER:                  -2.850
REMARK INTRA:                  -0.175
REMARK UNBOUND:                -0.216
REMARK  Name = Nicotine.pdb
REMARK  2 active torsions:
REMARK  status: ('A' for Active; 'I' for Inactive)
REMARK    1  A    between atoms: C_3  and  C_6
REMARK    2  A    between atoms: N_4  and  C_12
REMARK                            x       y       z     vdW  Elec       q    Type
REMARK                         _______ _______ _______ _____ _____    ______ ____
ROOT
ATOM      1  C   UNL     1       9.954  -0.765  -5.359  0.00  0.00    +0.017 C 
ATOM      2  C   UNL     1       8.790   0.259  -5.418  0.00  0.00    +0.025 C 
ATOM      3  C   UNL     1       8.099   0.078  -4.050  0.00  0.00    +0.088 C 
ATOM      4  N   UNL     1       8.454  -1.264  -3.555  0.00  0.00    -0.298 NA
ATOM      5  C   UNL     1       9.308  -1.927  -4.563  0.00  0.00    +0.085 C 
ATOM      6  C   UNL     1       9.136  -1.184  -2.257  0.00  0.00    +0.105 C 
ENDROOT
BRANCH   3   7
ATOM      7  C   UNL     1       6.605   0.187  -4.211  0.00  0.00    -0.012 A 
ATOM      8  C   UNL     1       5.849  -0.933  -4.500  0.00  0.00    +0.115 A 
ATOM      9  N   UNL     1       4.541  -0.846  -4.643  0.00  0.00    -0.263 NA
ATOM     10  C   UNL     1       3.905   0.302  -4.518  0.00  0.00    +0.111 A 
ATOM     11  C   UNL     1       4.594   1.465  -4.229  0.00  0.00    +0.020 A 
ATOM     12  C   UNL     1       5.970   1.412  -4.067  0.00  0.00    +0.008 A 
ENDBRANCH   3   7
TORSDOF 1
ENDMDL
MODEL 10
REMARK VINA RESULT:    -2.617      8.687      9.502
REMARK INTER + INTRA:          -2.986
REMARK INTER:                  -2.801
REMARK INTRA:                  -0.185
REMARK UNBOUND:                -0.216
REMARK  Name = Nicotine.pdb
REMARK  2 active torsions:
REMARK  status: ('A' for Active; 'I' for Inactive)
REMARK    1  A    between atoms: C_3  and  C_6
REMARK    2  A    between atoms: N_4  and  C_12
REMARK                            x       y       z     vdW  Elec       q    Type
REMARK                         _______ _______ _______ _____ _____    ______ ____
ROOT
ATOM      1  C   UNL     1       4.601   4.373   3.442  0.00  0.00    +0.017 C 
ATOM      2  C   UNL     1       3.741   4.285   2.154  0.00  0.00    +0.025 C 
ATOM      3  C   UNL     1       2.300   4.435   2.688  0.00  0.00    +0.088 C 
ATOM      4  N   UNL     1       2.321   4.053   4.112  0.00  0.00    -0.298 NA
ATOM      5  C   UNL     1       3.697   3.652   4.472  0.00  0.00    +0.085 C 
ATOM      6  C   UNL     1       1.854   5.157   4.961  0.00  0.00    +0.105 C 
ENDROOT
BRANCH   3   7
ATOM      7  C   UNL     1       1.373   3.525   1.925  0.00  0.00    -0.012 A 
ATOM      8  C   UNL     1       1.059   2.273   2.420  0.00  0.00    +0.115 A 
ATOM      9  N   UNL     1       0.248   1.470   1.758  0.00  0.00    -0.263 NA
ATOM     10  C   UNL     1      -0.291   1.824   0.608  0.00  0.00    +0.111 A 
ATOM     11  C   UNL     1      -0.023   3.061   0.052  0.00  0.00    +0.020 A 
ATOM     12  C   UNL     1       0.820   3.934   0.721  0.00  0.00    +0.008 A 
ENDBRANCH   3   7
TORSDOF 1
ENDMDL
