MODEL 1
REMARK VINA RESULT:    -2.624      0.000      0.000
REMARK INTER + INTRA:          -3.032
REMARK INTER:                  -2.777
REMARK INTRA:                  -0.254
REMARK UNBOUND:                -0.254
REMARK  Name = Nicotine.pdb
REMARK  2 active torsions:
REMARK  status: ('A' for Active; 'I' for Inactive)
REMARK    1  A    between atoms: C_3  and  C_6
REMARK    2  A    between atoms: N_4  and  C_12
REMARK                            x       y       z     vdW  Elec       q    Type
REMARK                         _______ _______ _______ _____ _____    ______ ____
ROOT
ATOM      1  C   UNL     1      10.186   4.517  -5.036  0.00  0.00    +0.017 C 
ATOM      2  C   UNL     1       8.657   4.321  -4.854  0.00  0.00    +0.025 C 
ATOM      3  C   UNL     1       8.528   2.800  -4.623  0.00  0.00    +0.088 C 
ATOM      4  N   UNL     1       9.731   2.168  -5.194  0.00  0.00    -0.298 NA
ATOM      5  C   UNL     1      10.580   3.222  -5.788  0.00  0.00    +0.085 C 
ATOM      6  C   UNL     1      10.465   1.412  -4.172  0.00  0.00    +0.105 C 
ENDROOT
BRANCH   3   7
ATOM      7  C   UNL     1       7.295   2.280  -5.315  0.00  0.00    -0.012 A 
ATOM      8  C   UNL     1       6.595   1.211  -4.786  0.00  0.00    +0.115 A 
ATOM      9  N   UNL     1       5.515   0.749  -5.386  0.00  0.00    -0.263 NA
ATOM     10  C   UNL     1       5.062   1.281  -6.503  0.00  0.00    +0.111 A 
ATOM     11  C   UNL     1       5.709   2.353  -7.091  0.00  0.00    +0.020 A 
ATOM     12  C   UNL     1       6.845   2.869  -6.487  0.00  0.00    +0.008 A 
ENDBRANCH   3   7
TORSDOF 1
ENDMDL
MODEL 2
REMARK VINA RESULT:    -2.448      2.532      4.141
REMARK INTER + INTRA:          -2.846
REMARK INTER:                  -2.635
REMARK INTRA:                  -0.211
REMARK UNBOUND:                -0.254
REMARK  Name = Nicotine.pdb
REMARK  2 active torsions:
REMARK  status: ('A' for Active; 'I' for Inactive)
REMARK    1  A    between atoms: C_3  and  C_6
REMARK    2  A    between atoms: N_4  and  C_12
REMARK                            x       y       z     vdW  Elec       q    Type
REMARK                         _______ _______ _______ _____ _____    ______ ____
ROOT
ATOM      1  C   UNL     1       5.371   4.076  -6.701  0.00  0.00    +0.017 C 
ATOM      2  C   UNL     1       4.110   3.219  -6.413  0.00  0.00    +0.025 C 
ATOM      3  C   UNL     1       4.682   2.004  -5.652  0.00  0.00    +0.088 C 
ATOM      4  N   UNL     1       6.112   1.905  -5.998  0.00  0.00    -0.298 NA
ATOM      5  C   UNL     1       6.441   2.984  -6.954  0.00  0.00    +0.085 C 
ATOM      6  C   UNL     1       6.952   1.992  -4.796  0.00  0.00    +0.105 C 
ENDROOT
BRANCH   3   7
ATOM      7  C   UNL     1       3.963   0.750  -6.074  0.00  0.00    -0.012 A 
ATOM      8  C   UNL     1       2.586   0.671  -5.988  0.00  0.00    +0.115 A 
ATOM      9  N   UNL     1       1.948  -0.424  -6.356  0.00  0.00    -0.263 NA
ATOM     10  C   UNL     1       2.591  -1.479  -6.816  0.00  0.00    +0.111 A 
ATOM     11  C   UNL     1       3.969  -1.473  -6.930  0.00  0.00    +0.020 A 
ATOM     12  C   UNL     1       4.673  -0.338  -6.559  0.00  0.00    +0.008 A 
ENDBRANCH   3   7
TORSDOF 1
ENDMDL
MODEL 3
REMARK VINA RESULT:    -2.351      2.078      3.187
REMARK INTER + INTRA:          -2.742
REMARK INTER:                  -2.524
REMARK INTRA:                  -0.218
REMARK UNBOUND:                -0.254
REMARK  Name = Nicotine.pdb
REMARK  2 active torsions:
REMARK  status: ('A' for Active; 'I' for Inactive)
REMARK    1  A    between atoms: C_3  and  C_6
REMARK    2  A    between atoms: N_4  and  C_12
REMARK                            x       y       z     vdW  Elec       q    Type
REMARK                         _______ _______ _______ _____ _____    ______ ____
ROOT
ATOM      1  C   UNL     1       6.190   5.149  -6.373  0.00  0.00    +0.017 C 
ATOM      2  C   UNL     1       5.044   4.326  -5.728  0.00  0.00    +0.025 C 
ATOM      3  C   UNL     1       5.714   2.965  -5.441  0.00  0.00    +0.088 C 
ATOM      4  N   UNL     1       6.874   2.850  -6.343  0.00  0.00    -0.298 NA
ATOM      5  C   UNL     1       6.936   4.063  -7.187  0.00  0.00    +0.085 C 
ATOM      6  C   UNL     1       8.117   2.674  -5.582  0.00  0.00    +0.105 C 
ENDROOT
BRANCH   3   7
ATOM      7  C   UNL     1       4.740   1.848  -5.712  0.00  0.00    -0.012 A 
ATOM      8  C   UNL     1       5.192   0.554  -5.889  0.00  0.00    +0.115 A 
ATOM      9  N   UNL     1       4.346  -0.430  -6.127  0.00  0.00    -0.263 NA
ATOM     10  C   UNL     1       3.047  -0.223  -6.205  0.00  0.00    +0.111 A 
ATOM     11  C   UNL     1       2.521   1.045  -6.038  0.00  0.00    +0.020 A 
ATOM     12  C   UNL     1       3.379   2.103  -5.781  0.00  0.00    +0.008 A 
ENDBRANCH   3   7
TORSDOF 1
ENDMDL
MODEL 4
REMARK VINA RESULT:    -2.337      2.869      5.860
REMARK INTER + INTRA:          -2.728
REMARK INTER:                  -2.500
REMARK INTRA:                  -0.228
REMARK UNBOUND:                -0.254
REMARK  Name = Nicotine.pdb
REMARK  2 active torsions:
REMARK  status: ('A' for Active; 'I' for Inactive)
REMARK    1  A    between atoms: C_3  and  C_6
REMARK    2  A    between atoms: N_4  and  C_12
REMARK                            x       y       z     vdW  Elec       q    Type
REMARK                         _______ _______ _______ _____ _____    ______ ____
ROOT
ATOM      1  C   UNL     1       1.352   0.169  -6.656  0.00  0.00    +0.017 C 
ATOM      2  C   UNL     1       2.232   1.443  -6.754  0.00  0.00    +0.025 C 
ATOM      3  C   UNL     1       3.668   0.877  -6.708  0.00  0.00    +0.088 C 
ATOM      4  N   UNL     1       3.595  -0.450  -6.070  0.00  0.00    -0.298 NA
ATOM      5  C   UNL     1       2.189  -0.717  -5.699  0.00  0.00    +0.085 C 
ATOM      6  C   UNL     1       4.111  -1.494  -6.965  0.00  0.00    +0.105 C 
ENDROOT
BRANCH   3   7
ATOM      7  C   UNL     1       4.552   1.789  -5.898  0.00  0.00    -0.012 A 
ATOM      8  C   UNL     1       5.837   1.403  -5.565  0.00  0.00    +0.115 A 
ATOM      9  N   UNL     1       6.618   2.195  -4.857  0.00  0.00    -0.263 NA
ATOM     10  C   UNL     1       6.210   3.377  -4.439  0.00  0.00    +0.111 A 
ATOM     11  C   UNL     1       4.938   3.831  -4.733  0.00  0.00    +0.020 A 
ATOM     12  C   UNL     1       4.091   3.028  -5.481  0.00  0.00    +0.008 A 
ENDBRANCH   3   7
TORSDOF 1
ENDMDL
MODEL 5
REMARK VINA RESULT:    -2.316      2.630      3.756
REMARK INTER + INTRA:          -2.705
REMARK INTER:                  -2.503
REMARK INTRA:                  -0.203
REMARK UNBOUND:                -0.254
REMARK  Name = Nicotine.pdb
REMARK  2 active torsions:
REMARK  status: ('A' for Active; 'I' for Inactive)
REMARK    1  A    between atoms: C_3  and  C_6
REMARK    2  A    between atoms: N_4  and  C_12
REMARK                            x       y       z     vdW  Elec       q    Type
REMARK                         _______ _______ _______ _____ _____    ______ ____
ROOT
ATOM      1  C   UNL     1       7.162   3.850  -3.810  0.00  0.00    +0.017 C 
ATOM      2  C   UNL     1       6.884   2.530  -4.576  0.00  0.00    +0.025 C 
ATOM      3  C   UNL     1       5.838   2.953  -5.629  0.00  0.00    +0.088 C 
ATOM      4  N   UNL     1       5.186   4.177  -5.130  0.00  0.00    -0.298 NA
ATOM      5  C   UNL     1       5.762   4.513  -3.810  0.00  0.00    +0.085 C 
ATOM      6  C   UNL     1       5.355   5.288  -6.076  0.00  0.00    +0.105 C 
ENDROOT
BRANCH   3   7
ATOM      7  C   UNL     1       4.815   1.861  -5.804  0.00  0.00    -0.012 A 
ATOM      8  C   UNL     1       5.216   0.551  -5.984  0.00  0.00    +0.115 A 
ATOM      9  N   UNL     1       4.327  -0.412  -6.138  0.00  0.00    -0.263 NA
ATOM     10  C   UNL     1       3.031  -0.167  -6.126  0.00  0.00    +0.111 A 
ATOM     11  C   UNL     1       2.556   1.120  -5.950  0.00  0.00    +0.020 A 
ATOM     12  C   UNL     1       3.461   2.156  -5.780  0.00  0.00    +0.008 A 
ENDBRANCH   3   7
TORSDOF 1
ENDMDL
MODEL 6
REMARK VINA RESULT:    -2.235      4.354      7.577
REMARK INTER + INTRA:          -2.620
REMARK INTER:                  -2.369
REMARK INTRA:                  -0.251
REMARK UNBOUND:                -0.254
REMARK  Name = Nicotine.pdb
REMARK  2 active torsions:
REMARK  status: ('A' for Active; 'I' for Inactive)
REMARK    1  A    between atoms: C_3  and  C_6
REMARK    2  A    between atoms: N_4  and  C_12
REMARK                            x       y       z     vdW  Elec       q    Type
REMARK                         _______ _______ _______ _____ _____    ______ ____
ROOT
ATOM      1  C   UNL     1      -1.015   1.684  -5.473  0.00  0.00    +0.017 C 
ATOM      2  C   UNL     1       0.164   1.402  -6.441  0.00  0.00    +0.025 C 
ATOM      3  C   UNL     1       0.878   0.205  -5.779  0.00  0.00    +0.088 C 
ATOM      4  N   UNL     1       0.511   0.212  -4.352  0.00  0.00    -0.298 NA
ATOM      5  C   UNL     1      -0.374   1.369  -4.099  0.00  0.00    +0.085 C 
ATOM      6  C   UNL     1      -0.144  -1.046  -3.970  0.00  0.00    +0.105 C 
ENDROOT
BRANCH   3   7
ATOM      7  C   UNL     1       2.370   0.353  -5.927  0.00  0.00    -0.012 A 
ATOM      8  C   UNL     1       3.162  -0.754  -6.166  0.00  0.00    +0.115 A 
ATOM      9  N   UNL     1       4.469  -0.634  -6.297  0.00  0.00    -0.263 NA
ATOM     10  C   UNL     1       5.070   0.536  -6.205  0.00  0.00    +0.111 A 
ATOM     11  C   UNL     1       4.343   1.688  -5.967  0.00  0.00    +0.020 A 
ATOM     12  C   UNL     1       2.966   1.601  -5.829  0.00  0.00    +0.008 A 
ENDBRANCH   3   7
TORSDOF 1
ENDMDL
MODEL 7
REMARK VINA RESULT:    -2.182      3.162      4.753
REMARK INTER + INTRA:          -2.563
REMARK INTER:                  -2.351
REMARK INTRA:                  -0.213
REMARK UNBOUND:                -0.254
REMARK  Name = Nicotine.pdb
REMARK  2 active torsions:
REMARK  status: ('A' for Active; 'I' for Inactive)
REMARK    1  A    between atoms: C_3  and  C_6
REMARK    2  A    between atoms: N_4  and  C_12
REMARK                            x       y       z     vdW  Elec       q    Type
REMARK                         _______ _______ _______ _____ _____    ______ ____
ROOT
ATOM      1  C   UNL     1       6.224   3.222  -4.965  0.00  0.00    +0.017 C 
ATOM      2  C   UNL     1       6.040   1.770  -5.481  0.00  0.00    +0.025 C 
ATOM      3  C   UNL     1       4.878   1.904  -6.487  0.00  0.00    +0.088 C 
ATOM      4  N   UNL     1       4.131   3.125  -6.133  0.00  0.00    -0.298 NA
ATOM      5  C   UNL     1       4.762   3.733  -4.942  0.00  0.00    +0.085 C 
ATOM      6  C   UNL     1       4.103   4.071  -7.256  0.00  0.00    +0.105 C 
ENDROOT
BRANCH   3   7
ATOM      7  C   UNL     1       3.974   0.702  -6.391  0.00  0.00    -0.012 A 
ATOM      8  C   UNL     1       4.420  -0.541  -6.797  0.00  0.00    +0.115 A 
ATOM      9  N   UNL     1       3.635  -1.598  -6.716  0.00  0.00    -0.263 NA
ATOM     10  C   UNL     1       2.405  -1.515  -6.248  0.00  0.00    +0.111 A 
ATOM     11  C   UNL     1       1.891  -0.304  -5.823  0.00  0.00    +0.020 A 
ATOM     12  C   UNL     1       2.688   0.828  -5.888  0.00  0.00    +0.008 A 
ENDBRANCH   3   7
TORSDOF 1
ENDMDL
MODEL 8
REMARK VINA RESULT:    -2.073      5.587      9.060
REMARK INTER + INTRA:          -2.448
REMARK INTER:                  -2.242
REMARK INTRA:                  -0.206
REMARK UNBOUND:                -0.254
REMARK  Name = Nicotine.pdb
REMARK  2 active torsions:
REMARK  status: ('A' for Active; 'I' for Inactive)
REMARK    1  A    between atoms: C_3  and  C_6
REMARK    2  A    between atoms: N_4  and  C_12
REMARK                            x       y       z     vdW  Elec       q    Type
REMARK                         _______ _______ _______ _____ _____    ______ ____
ROOT
ATOM      1  C   UNL     1      -0.472  -3.622  -4.031  0.00  0.00    +0.017 C 
ATOM      2  C   UNL     1       0.262  -2.283  -4.303  0.00  0.00    +0.025 C 
ATOM      3  C   UNL     1       0.486  -2.314  -5.830  0.00  0.00    +0.088 C 
ATOM      4  N   UNL     1       0.430  -3.725  -6.251  0.00  0.00    -0.298 NA
ATOM      5  C   UNL     1       0.208  -4.565  -5.055  0.00  0.00    +0.085 C 
ATOM      6  C   UNL     1      -0.628  -3.937  -7.247  0.00  0.00    +0.105 C 
ENDROOT
BRANCH   3   7
ATOM      7  C   UNL     1       1.835  -1.731  -6.162  0.00  0.00    -0.012 A 
ATOM      8  C   UNL     1       2.209  -0.500  -5.656  0.00  0.00    +0.115 A 
ATOM      9  N   UNL     1       3.388   0.017  -5.942  0.00  0.00    -0.263 NA
ATOM     10  C   UNL     1       4.251  -0.612  -6.714  0.00  0.00    +0.111 A 
ATOM     11  C   UNL     1       3.948  -1.847  -7.256  0.00  0.00    +0.020 A 
ATOM     12  C   UNL     1       2.720  -2.425  -6.973  0.00  0.00    +0.008 A 
ENDBRANCH   3   7
TORSDOF 1
ENDMDL
MODEL 9
REMARK VINA RESULT:    -2.055      3.811      5.321
REMARK INTER + INTRA:          -2.429
REMARK INTER:                  -2.244
REMARK INTRA:                  -0.185
REMARK UNBOUND:                -0.254
REMARK  Name = Nicotine.pdb
REMARK  2 active torsions:
REMARK  status: ('A' for Active; 'I' for Inactive)
REMARK    1  A    between atoms: C_3  and  C_6
REMARK    2  A    between atoms: N_4  and  C_12
REMARK                            x       y       z     vdW  Elec       q    Type
REMARK                         _______ _______ _______ _____ _____    ______ ____
ROOT
ATOM      1  C   UNL     1       4.528   4.829  -3.811  0.00  0.00    +0.017 C 
ATOM      2  C   UNL     1       5.013   3.762  -4.827  0.00  0.00    +0.025 C 
ATOM      3  C   UNL     1       3.719   3.385  -5.578  0.00  0.00    +0.088 C 
ATOM      4  N   UNL     1       2.586   3.741  -4.704  0.00  0.00    -0.298 NA
ATOM      5  C   UNL     1       3.122   4.295  -3.442  0.00  0.00    +0.085 C 
ATOM      6  C   UNL     1       1.693   4.701  -5.364  0.00  0.00    +0.105 C 
ENDROOT
BRANCH   3   7
ATOM      7  C   UNL     1       3.703   1.905  -5.862  0.00  0.00    -0.012 A 
ATOM      8  C   UNL     1       4.875   1.174  -5.826  0.00  0.00    +0.115 A 
ATOM      9  N   UNL     1       4.871  -0.121  -6.074  0.00  0.00    -0.263 NA
ATOM     10  C   UNL     1       3.759  -0.767  -6.363  0.00  0.00    +0.111 A 
ATOM     11  C   UNL     1       2.548  -0.103  -6.417  0.00  0.00    +0.020 A 
ATOM     12  C   UNL     1       2.513   1.259  -6.158  0.00  0.00    +0.008 A 
ENDBRANCH   3   7
TORSDOF 1
ENDMDL
MODEL 10
REMARK VINA RESULT:    -1.987      4.045      7.295
REMARK INTER + INTRA:          -2.357
REMARK INTER:                  -2.136
REMARK INTRA:                  -0.221
REMARK UNBOUND:                -0.254
REMARK  Name = Nicotine.pdb
REMARK  2 active torsions:
REMARK  status: ('A' for Active; 'I' for Inactive)
REMARK    1  A    between atoms: C_3  and  C_6
REMARK    2  A    between atoms: N_4  and  C_12
REMARK                            x       y       z     vdW  Elec       q    Type
REMARK                         _______ _______ _______ _____ _____    ______ ____
ROOT
ATOM      1  C   UNL     1       1.242  -2.329  -7.256  0.00  0.00    +0.017 C 
ATOM      2  C   UNL     1       2.655  -1.757  -6.964  0.00  0.00    +0.025 C 
ATOM      3  C   UNL     1       2.389  -0.729  -5.844  0.00  0.00    +0.088 C 
ATOM      4  N   UNL     1       0.967  -0.351  -5.927  0.00  0.00    -0.298 NA
ATOM      5  C   UNL     1       0.352  -1.077  -7.058  0.00  0.00    +0.085 C 
ATOM      6  C   UNL     1       0.269  -0.646  -4.669  0.00  0.00    +0.105 C 
ENDROOT
BRANCH   3   7
ATOM      7  C   UNL     1       3.257   0.486  -6.047  0.00  0.00    -0.012 A 
ATOM      8  C   UNL     1       2.706   1.753  -6.010  0.00  0.00    +0.115 A 
ATOM      9  N   UNL     1       3.458   2.822  -6.187  0.00  0.00    -0.263 NA
ATOM     10  C   UNL     1       4.755   2.728  -6.405  0.00  0.00    +0.111 A 
ATOM     11  C   UNL     1       5.377   1.494  -6.455  0.00  0.00    +0.020 A 
ATOM     12  C   UNL     1       4.619   0.348  -6.268  0.00  0.00    +0.008 A 
ENDBRANCH   3   7
TORSDOF 1
ENDMDL
