MODEL 1
REMARK VINA RESULT:    -3.947      0.000      0.000
REMARK INTER + INTRA:          -4.383
REMARK INTER:                  -4.178
REMARK INTRA:                  -0.205
REMARK UNBOUND:                -0.205
REMARK  Name = Nicotine.pdb
REMARK  2 active torsions:
REMARK  status: ('A' for Active; 'I' for Inactive)
REMARK    1  A    between atoms: C_3  and  C_6
REMARK    2  A    between atoms: N_4  and  C_12
REMARK                            x       y       z     vdW  Elec       q    Type
REMARK                         _______ _______ _______ _____ _____    ______ ____
ROOT
ATOM      1  C   UNL     1       0.554   6.015  -1.208  0.00  0.00    +0.017 C 
ATOM      2  C   UNL     1       1.404   6.883  -2.173  0.00  0.00    +0.025 C 
ATOM      3  C   UNL     1       1.063   6.296  -3.560  0.00  0.00    +0.088 C 
ATOM      4  N   UNL     1       0.572   4.923  -3.344  0.00  0.00    -0.298 NA
ATOM      5  C   UNL     1       0.618   4.629  -1.896  0.00  0.00    +0.085 C 
ATOM      6  C   UNL     1      -0.789   4.762  -3.872  0.00  0.00    +0.105 C 
ENDROOT
BRANCH   3   7
ATOM      7  C   UNL     1       2.298   6.271  -4.423  0.00  0.00    -0.012 A 
ATOM      8  C   UNL     1       3.512   5.874  -3.896  0.00  0.00    +0.115 A 
ATOM      9  N   UNL     1       4.597   5.849  -4.645  0.00  0.00    -0.263 NA
ATOM     10  C   UNL     1       4.570   6.198  -5.916  0.00  0.00    +0.111 A 
ATOM     11  C   UNL     1       3.391   6.605  -6.513  0.00  0.00    +0.020 A 
ATOM     12  C   UNL     1       2.229   6.640  -5.758  0.00  0.00    +0.008 A 
ENDBRANCH   3   7
TORSDOF 1
ENDMDL
MODEL 2
REMARK VINA RESULT:    -3.751      0.910      1.424
REMARK INTER + INTRA:          -4.176
REMARK INTER:                  -3.964
REMARK INTRA:                  -0.211
REMARK UNBOUND:                -0.205
REMARK  Name = Nicotine.pdb
REMARK  2 active torsions:
REMARK  status: ('A' for Active; 'I' for Inactive)
REMARK    1  A    between atoms: C_3  and  C_6
REMARK    2  A    between atoms: N_4  and  C_12
REMARK                            x       y       z     vdW  Elec       q    Type
REMARK                         _______ _______ _______ _____ _____    ______ ____
ROOT
ATOM      1  C   UNL     1       0.094   3.977  -2.065  0.00  0.00    +0.017 C 
ATOM      2  C   UNL     1       1.554   4.414  -2.357  0.00  0.00    +0.025 C 
ATOM      3  C   UNL     1       1.383   5.839  -2.925  0.00  0.00    +0.088 C 
ATOM      4  N   UNL     1       0.005   5.943  -3.437  0.00  0.00    -0.298 NA
ATOM      5  C   UNL     1      -0.672   4.644  -3.234  0.00  0.00    +0.085 C 
ATOM      6  C   UNL     1      -0.725   7.027  -2.768  0.00  0.00    +0.105 C 
ENDROOT
BRANCH   3   7
ATOM      7  C   UNL     1       2.366   6.065  -4.044  0.00  0.00    -0.012 A 
ATOM      8  C   UNL     1       3.720   5.889  -3.832  0.00  0.00    +0.115 A 
ATOM      9  N   UNL     1       4.587   6.085  -4.807  0.00  0.00    -0.263 NA
ATOM     10  C   UNL     1       4.202   6.455  -6.012  0.00  0.00    +0.111 A 
ATOM     11  C   UNL     1       2.864   6.650  -6.299  0.00  0.00    +0.020 A 
ATOM     12  C   UNL     1       1.923   6.448  -5.301  0.00  0.00    +0.008 A 
ENDBRANCH   3   7
TORSDOF 1
ENDMDL
MODEL 3
REMARK VINA RESULT:    -3.605      1.452      4.699
REMARK INTER + INTRA:          -4.021
REMARK INTER:                  -3.824
REMARK INTRA:                  -0.198
REMARK UNBOUND:                -0.205
REMARK  Name = Nicotine.pdb
REMARK  2 active torsions:
REMARK  status: ('A' for Active; 'I' for Inactive)
REMARK    1  A    between atoms: C_3  and  C_6
REMARK    2  A    between atoms: N_4  and  C_12
REMARK                            x       y       z     vdW  Elec       q    Type
REMARK                         _______ _______ _______ _____ _____    ______ ____
ROOT
ATOM      1  C   UNL     1       2.656   6.854  -5.888  0.00  0.00    +0.017 C 
ATOM      2  C   UNL     1       1.338   6.853  -5.070  0.00  0.00    +0.025 C 
ATOM      3  C   UNL     1       1.834   6.728  -3.613  0.00  0.00    +0.088 C 
ATOM      4  N   UNL     1       3.184   6.138  -3.660  0.00  0.00    -0.298 NA
ATOM      5  C   UNL     1       3.532   5.870  -5.072  0.00  0.00    +0.085 C 
ATOM      6  C   UNL     1       4.170   7.028  -3.034  0.00  0.00    +0.105 C 
ENDROOT
BRANCH   3   7
ATOM      7  C   UNL     1       0.908   5.833  -2.831  0.00  0.00    -0.012 A 
ATOM      8  C   UNL     1      -0.227   6.350  -2.236  0.00  0.00    +0.115 A 
ATOM      9  N   UNL     1      -1.043   5.573  -1.550  0.00  0.00    -0.263 NA
ATOM     10  C   UNL     1      -0.812   4.284  -1.404  0.00  0.00    +0.111 A 
ATOM     11  C   UNL     1       0.303   3.695  -1.971  0.00  0.00    +0.020 A 
ATOM     12  C   UNL     1       1.181   4.480  -2.704  0.00  0.00    +0.008 A 
ENDBRANCH   3   7
TORSDOF 1
ENDMDL
MODEL 4
REMARK VINA RESULT:    -3.487      5.276      7.292
REMARK INTER + INTRA:          -3.896
REMARK INTER:                  -3.668
REMARK INTRA:                  -0.229
REMARK UNBOUND:                -0.205
REMARK  Name = Nicotine.pdb
REMARK  2 active torsions:
REMARK  status: ('A' for Active; 'I' for Inactive)
REMARK    1  A    between atoms: C_3  and  C_6
REMARK    2  A    between atoms: N_4  and  C_12
REMARK                            x       y       z     vdW  Elec       q    Type
REMARK                         _______ _______ _______ _____ _____    ______ ____
ROOT
ATOM      1  C   UNL     1      -1.824   3.395   3.894  0.00  0.00    +0.017 C 
ATOM      2  C   UNL     1      -1.276   4.675   3.208  0.00  0.00    +0.025 C 
ATOM      3  C   UNL     1      -2.535   5.287   2.559  0.00  0.00    +0.088 C 
ATOM      4  N   UNL     1      -3.515   4.199   2.395  0.00  0.00    -0.298 NA
ATOM      5  C   UNL     1      -2.911   2.942   2.887  0.00  0.00    +0.085 C 
ATOM      6  C   UNL     1      -4.762   4.499   3.110  0.00  0.00    +0.105 C 
ENDROOT
BRANCH   3   7
ATOM      7  C   UNL     1      -2.186   5.872   1.215  0.00  0.00    -0.012 A 
ATOM      8  C   UNL     1      -3.182   6.320   0.368  0.00  0.00    +0.115 A 
ATOM      9  N   UNL     1      -2.886   6.833  -0.810  0.00  0.00    -0.263 NA
ATOM     10  C   UNL     1      -1.639   6.940  -1.225  0.00  0.00    +0.111 A 
ATOM     11  C   UNL     1      -0.590   6.515  -0.432  0.00  0.00    +0.020 A 
ATOM     12  C   UNL     1      -0.863   5.974   0.815  0.00  0.00    +0.008 A 
ENDBRANCH   3   7
TORSDOF 1
ENDMDL
MODEL 5
REMARK VINA RESULT:    -3.430      3.108      4.688
REMARK INTER + INTRA:          -3.836
REMARK INTER:                  -3.665
REMARK INTRA:                  -0.171
REMARK UNBOUND:                -0.205
REMARK  Name = Nicotine.pdb
REMARK  2 active torsions:
REMARK  status: ('A' for Active; 'I' for Inactive)
REMARK    1  A    between atoms: C_3  and  C_6
REMARK    2  A    between atoms: N_4  and  C_12
REMARK                            x       y       z     vdW  Elec       q    Type
REMARK                         _______ _______ _______ _____ _____    ______ ____
ROOT
ATOM      1  C   UNL     1      -1.292   6.033   2.332  0.00  0.00    +0.017 C 
ATOM      2  C   UNL     1      -0.424   6.404   1.101  0.00  0.00    +0.025 C 
ATOM      3  C   UNL     1      -1.448   6.419  -0.054  0.00  0.00    +0.088 C 
ATOM      4  N   UNL     1      -2.591   5.589   0.365  0.00  0.00    -0.298 NA
ATOM      5  C   UNL     1      -2.310   5.044   1.711  0.00  0.00    +0.085 C 
ATOM      6  C   UNL     1      -3.837   6.367   0.362  0.00  0.00    +0.105 C 
ENDROOT
BRANCH   3   7
ATOM      7  C   UNL     1      -0.824   5.844  -1.299  0.00  0.00    -0.012 A 
ATOM      8  C   UNL     1      -0.505   4.501  -1.364  0.00  0.00    +0.115 A 
ATOM      9  N   UNL     1       0.041   3.989  -2.451  0.00  0.00    -0.263 NA
ATOM     10  C   UNL     1       0.303   4.730  -3.509  0.00  0.00    +0.111 A 
ATOM     11  C   UNL     1       0.011   6.081  -3.518  0.00  0.00    +0.020 A 
ATOM     12  C   UNL     1      -0.569   6.653  -2.395  0.00  0.00    +0.008 A 
ENDBRANCH   3   7
TORSDOF 1
ENDMDL
MODEL 6
REMARK VINA RESULT:    -3.416      7.166      9.212
REMARK INTER + INTRA:          -3.821
REMARK INTER:                  -3.570
REMARK INTRA:                  -0.251
REMARK UNBOUND:                -0.205
REMARK  Name = Nicotine.pdb
REMARK  2 active torsions:
REMARK  status: ('A' for Active; 'I' for Inactive)
REMARK    1  A    between atoms: C_3  and  C_6
REMARK    2  A    between atoms: N_4  and  C_12
REMARK                            x       y       z     vdW  Elec       q    Type
REMARK                         _______ _______ _______ _____ _____    ______ ____
ROOT
ATOM      1  C   UNL     1      -3.546   2.938   5.760  0.00  0.00    +0.017 C 
ATOM      2  C   UNL     1      -3.777   2.958   4.226  0.00  0.00    +0.025 C 
ATOM      3  C   UNL     1      -2.531   3.701   3.697  0.00  0.00    +0.088 C 
ATOM      4  N   UNL     1      -1.995   4.503   4.811  0.00  0.00    -0.298 NA
ATOM      5  C   UNL     1      -2.865   4.310   5.991  0.00  0.00    +0.085 C 
ATOM      6  C   UNL     1      -0.608   4.128   5.112  0.00  0.00    +0.105 C 
ENDROOT
BRANCH   3   7
ATOM      7  C   UNL     1      -2.919   4.602   2.554  0.00  0.00    -0.012 A 
ATOM      8  C   UNL     1      -2.081   4.750   1.465  0.00  0.00    +0.115 A 
ATOM      9  N   UNL     1      -2.412   5.537   0.460  0.00  0.00    -0.263 NA
ATOM     10  C   UNL     1      -3.546   6.210   0.452  0.00  0.00    +0.111 A 
ATOM     11  C   UNL     1      -4.435   6.112   1.506  0.00  0.00    +0.020 A 
ATOM     12  C   UNL     1      -4.123   5.290   2.578  0.00  0.00    +0.008 A 
ENDBRANCH   3   7
TORSDOF 1
ENDMDL
MODEL 7
REMARK VINA RESULT:    -2.931      6.912      9.927
REMARK INTER + INTRA:          -3.308
REMARK INTER:                  -3.096
REMARK INTRA:                  -0.212
REMARK UNBOUND:                -0.205
REMARK  Name = Nicotine.pdb
REMARK  2 active torsions:
REMARK  status: ('A' for Active; 'I' for Inactive)
REMARK    1  A    between atoms: C_3  and  C_6
REMARK    2  A    between atoms: N_4  and  C_12
REMARK                            x       y       z     vdW  Elec       q    Type
REMARK                         _______ _______ _______ _____ _____    ______ ____
ROOT
ATOM      1  C   UNL     1      -1.491   5.959   0.951  0.00  0.00    +0.017 C 
ATOM      2  C   UNL     1      -1.898   4.636   1.650  0.00  0.00    +0.025 C 
ATOM      3  C   UNL     1      -3.251   4.990   2.303  0.00  0.00    +0.088 C 
ATOM      4  N   UNL     1      -3.293   6.456   2.455  0.00  0.00    -0.298 NA
ATOM      5  C   UNL     1      -2.021   7.017   1.951  0.00  0.00    +0.085 C 
ATOM      6  C   UNL     1      -4.442   7.027   1.741  0.00  0.00    +0.105 C 
ENDROOT
BRANCH   3   7
ATOM      7  C   UNL     1      -3.357   4.331   3.654  0.00  0.00    -0.012 A 
ATOM      8  C   UNL     1      -3.459   2.956   3.754  0.00  0.00    +0.115 A 
ATOM      9  N   UNL     1      -3.552   2.371   4.933  0.00  0.00    -0.263 NA
ATOM     10  C   UNL     1      -3.552   3.065   6.053  0.00  0.00    +0.111 A 
ATOM     11  C   UNL     1      -3.453   4.444   6.032  0.00  0.00    +0.020 A 
ATOM     12  C   UNL     1      -3.348   5.094   4.812  0.00  0.00    +0.008 A 
ENDBRANCH   3   7
TORSDOF 1
ENDMDL
MODEL 8
REMARK VINA RESULT:    -2.774      6.829      8.316
REMARK INTER + INTRA:          -3.141
REMARK INTER:                  -2.929
REMARK INTRA:                  -0.212
REMARK UNBOUND:                -0.205
REMARK  Name = Nicotine.pdb
REMARK  2 active torsions:
REMARK  status: ('A' for Active; 'I' for Inactive)
REMARK    1  A    between atoms: C_3  and  C_6
REMARK    2  A    between atoms: N_4  and  C_12
REMARK                            x       y       z     vdW  Elec       q    Type
REMARK                         _______ _______ _______ _____ _____    ______ ____
ROOT
ATOM      1  C   UNL     1      -1.394   3.653   4.700  0.00  0.00    +0.017 C 
ATOM      2  C   UNL     1      -1.973   3.647   3.260  0.00  0.00    +0.025 C 
ATOM      3  C   UNL     1      -1.358   4.916   2.633  0.00  0.00    +0.088 C 
ATOM      4  N   UNL     1      -0.984   5.813   3.741  0.00  0.00    -0.298 NA
ATOM      5  C   UNL     1      -1.362   5.169   5.017  0.00  0.00    +0.085 C 
ATOM      6  C   UNL     1       0.453   6.119   3.710  0.00  0.00    +0.105 C 
ENDROOT
BRANCH   3   7
ATOM      7  C   UNL     1      -2.370   5.591   1.744  0.00  0.00    -0.012 A 
ATOM      8  C   UNL     1      -3.710   5.587   2.083  0.00  0.00    +0.115 A 
ATOM      9  N   UNL     1      -4.602   6.176   1.310  0.00  0.00    -0.263 NA
ATOM     10  C   UNL     1      -4.257   6.786   0.194  0.00  0.00    +0.111 A 
ATOM     11  C   UNL     1      -2.936   6.831  -0.209  0.00  0.00    +0.020 A 
ATOM     12  C   UNL     1      -1.969   6.228   0.580  0.00  0.00    +0.008 A 
ENDBRANCH   3   7
TORSDOF 1
ENDMDL
MODEL 9
REMARK VINA RESULT:    -2.755      8.559      9.992
REMARK INTER + INTRA:          -3.122
REMARK INTER:                  -2.867
REMARK INTRA:                  -0.254
REMARK UNBOUND:                -0.205
REMARK  Name = Nicotine.pdb
REMARK  2 active torsions:
REMARK  status: ('A' for Active; 'I' for Inactive)
REMARK    1  A    between atoms: C_3  and  C_6
REMARK    2  A    between atoms: N_4  and  C_12
REMARK                            x       y       z     vdW  Elec       q    Type
REMARK                         _______ _______ _______ _____ _____    ______ ____
ROOT
ATOM      1  C   UNL     1       6.384   6.419   4.117  0.00  0.00    +0.017 C 
ATOM      2  C   UNL     1       5.028   6.921   4.682  0.00  0.00    +0.025 C 
ATOM      3  C   UNL     1       4.507   5.700   5.469  0.00  0.00    +0.088 C 
ATOM      4  N   UNL     1       5.179   4.507   4.921  0.00  0.00    -0.298 NA
ATOM      5  C   UNL     1       6.068   4.932   3.819  0.00  0.00    +0.085 C 
ATOM      6  C   UNL     1       5.933   3.801   5.964  0.00  0.00    +0.105 C 
ENDROOT
BRANCH   3   7
ATOM      7  C   UNL     1       3.016   5.575   5.294  0.00  0.00    -0.012 A 
ATOM      8  C   UNL     1       2.283   4.741   6.117  0.00  0.00    +0.115 A 
ATOM      9  N   UNL     1       0.977   4.627   5.971  0.00  0.00    -0.263 NA
ATOM     10  C   UNL     1       0.322   5.296   5.043  0.00  0.00    +0.111 A 
ATOM     11  C   UNL     1       0.988   6.150   4.183  0.00  0.00    +0.020 A 
ATOM     12  C   UNL     1       2.361   6.300   4.310  0.00  0.00    +0.008 A 
ENDBRANCH   3   7
TORSDOF 1
ENDMDL
MODEL 10
REMARK VINA RESULT:    -1.785      2.955      6.074
REMARK INTER + INTRA:          -2.095
REMARK INTER:                  -1.847
REMARK INTRA:                  -0.248
REMARK UNBOUND:                -0.205
REMARK  Name = Nicotine.pdb
REMARK  2 active torsions:
REMARK  status: ('A' for Active; 'I' for Inactive)
REMARK    1  A    between atoms: C_3  and  C_6
REMARK    2  A    between atoms: N_4  and  C_12
REMARK                            x       y       z     vdW  Elec       q    Type
REMARK                         _______ _______ _______ _____ _____    ______ ____
ROOT
ATOM      1  C   UNL     1       0.202   6.165  -3.873  0.00  0.00    +0.017 C 
ATOM      2  C   UNL     1      -0.233   6.875  -2.563  0.00  0.00    +0.025 C 
ATOM      3  C   UNL     1      -0.259   5.723  -1.536  0.00  0.00    +0.088 C 
ATOM      4  N   UNL     1      -0.407   4.466  -2.293  0.00  0.00    -0.298 NA
ATOM      5  C   UNL     1      -0.499   4.791  -3.732  0.00  0.00    +0.085 C 
ATOM      6  C   UNL     1       0.715   3.557  -2.029  0.00  0.00    +0.105 C 
ENDROOT
BRANCH   3   7
ATOM      7  C   UNL     1      -1.425   5.898  -0.598  0.00  0.00    -0.012 A 
ATOM      8  C   UNL     1      -1.580   5.058   0.488  0.00  0.00    +0.115 A 
ATOM      9  N   UNL     1      -2.598   5.205   1.314  0.00  0.00    -0.263 NA
ATOM     10  C   UNL     1      -3.501   6.150   1.141  0.00  0.00    +0.111 A 
ATOM     11  C   UNL     1      -3.410   7.028   0.077  0.00  0.00    +0.020 A 
ATOM     12  C   UNL     1      -2.351   6.908  -0.809  0.00  0.00    +0.008 A 
ENDBRANCH   3   7
TORSDOF 1
ENDMDL
