MODEL 1
REMARK VINA RESULT:     0.000      0.000      0.000
REMARK INTER + INTRA:          -0.256
REMARK INTER:                   0.000
REMARK INTRA:                  -0.256
REMARK UNBOUND:                -0.256
REMARK  Name = Nicotine.pdb
REMARK  2 active torsions:
REMARK  status: ('A' for Active; 'I' for Inactive)
REMARK    1  A    between atoms: C_3  and  C_6
REMARK    2  A    between atoms: N_4  and  C_12
REMARK                            x       y       z     vdW  Elec       q    Type
REMARK                         _______ _______ _______ _____ _____    ______ ____
ROOT
ATOM      1  C   UNL     1       3.466  -4.706   1.408  0.00  0.00    +0.017 C 
ATOM      2  C   UNL     1       2.337  -3.839   0.790  0.00  0.00    +0.025 C 
ATOM      3  C   UNL     1       3.085  -2.996  -0.264  0.00  0.00    +0.088 C 
ATOM      4  N   UNL     1       4.505  -2.963   0.130  0.00  0.00    -0.298 NA
ATOM      5  C   UNL     1       4.662  -3.723   1.389  0.00  0.00    +0.085 C 
ATOM      6  C   UNL     1       5.360  -3.514  -0.929  0.00  0.00    +0.105 C 
ENDROOT
BRANCH   3   7
ATOM      7  C   UNL     1       2.527  -1.597  -0.292  0.00  0.00    -0.012 A 
ATOM      8  C   UNL     1       2.701  -0.797  -1.405  0.00  0.00    +0.115 A 
ATOM      9  N   UNL     1       2.215   0.429  -1.438  0.00  0.00    -0.263 NA
ATOM     10  C   UNL     1       1.549   0.938  -0.420  0.00  0.00    +0.111 A 
ATOM     11  C   UNL     1       1.335   0.197   0.727  0.00  0.00    +0.020 A 
ATOM     12  C   UNL     1       1.827  -1.098   0.796  0.00  0.00    +0.008 A 
ENDBRANCH   3   7
TORSDOF 1
ENDMDL
MODEL 2
REMARK VINA RESULT:     0.000      4.585      6.440
REMARK INTER + INTRA:          -0.256
REMARK INTER:                   0.000
REMARK INTRA:                  -0.256
REMARK UNBOUND:                -0.256
REMARK  Name = Nicotine.pdb
REMARK  2 active torsions:
REMARK  status: ('A' for Active; 'I' for Inactive)
REMARK    1  A    between atoms: C_3  and  C_6
REMARK    2  A    between atoms: N_4  and  C_12
REMARK                            x       y       z     vdW  Elec       q    Type
REMARK                         _______ _______ _______ _____ _____    ______ ____
ROOT
ATOM      1  C   UNL     1      -1.354   1.979  -0.706  0.00  0.00    +0.017 C 
ATOM      2  C   UNL     1      -2.498   0.944  -0.867  0.00  0.00    +0.025 C 
ATOM      3  C   UNL     1      -1.804  -0.394  -0.537  0.00  0.00    +0.088 C 
ATOM      4  N   UNL     1      -0.359  -0.203  -0.754  0.00  0.00    -0.298 NA
ATOM      5  C   UNL     1      -0.133   1.180  -1.226  0.00  0.00    +0.085 C 
ATOM      6  C   UNL     1       0.399  -0.471   0.474  0.00  0.00    +0.105 C 
ENDROOT
BRANCH   3   7
ATOM      7  C   UNL     1      -2.322  -1.478  -1.447  0.00  0.00    -0.012 A 
ATOM      8  C   UNL     1      -2.206  -2.807  -1.087  0.00  0.00    +0.115 A 
ATOM      9  N   UNL     1      -2.657  -3.762  -1.878  0.00  0.00    -0.263 NA
ATOM     10  C   UNL     1      -3.231  -3.491  -3.033  0.00  0.00    +0.111 A 
ATOM     11  C   UNL     1      -3.382  -2.185  -3.460  0.00  0.00    +0.020 A 
ATOM     12  C   UNL     1      -2.925  -1.155  -2.653  0.00  0.00    +0.008 A 
ENDBRANCH   3   7
TORSDOF 1
ENDMDL
MODEL 3
REMARK VINA RESULT:     0.000      5.266      7.106
REMARK INTER + INTRA:          -0.256
REMARK INTER:                   0.000
REMARK INTRA:                  -0.256
REMARK UNBOUND:                -0.256
REMARK  Name = Nicotine.pdb
REMARK  2 active torsions:
REMARK  status: ('A' for Active; 'I' for Inactive)
REMARK    1  A    between atoms: C_3  and  C_6
REMARK    2  A    between atoms: N_4  and  C_12
REMARK                            x       y       z     vdW  Elec       q    Type
REMARK                         _______ _______ _______ _____ _____    ______ ____
ROOT
ATOM      1  C   UNL     1       5.633   3.415  -2.443  0.00  0.00    +0.017 C 
ATOM      2  C   UNL     1       5.137   2.465  -3.565  0.00  0.00    +0.025 C 
ATOM      3  C   UNL     1       5.679   1.090  -3.120  0.00  0.00    +0.088 C 
ATOM      4  N   UNL     1       6.814   1.341  -2.214  0.00  0.00    -0.298 NA
ATOM      5  C   UNL     1       7.013   2.801  -2.100  0.00  0.00    +0.085 C 
ATOM      6  C   UNL     1       6.580   0.737  -0.896  0.00  0.00    +0.105 C 
ENDROOT
BRANCH   3   7
ATOM      7  C   UNL     1       6.143   0.309  -4.322  0.00  0.00    -0.012 A 
ATOM      8  C   UNL     1       6.252  -1.068  -4.261  0.00  0.00    +0.115 A 
ATOM      9  N   UNL     1       6.658  -1.760  -5.308  0.00  0.00    -0.263 NA
ATOM     10  C   UNL     1       6.973  -1.173  -6.446  0.00  0.00    +0.111 A 
ATOM     11  C   UNL     1       6.888   0.200  -6.582  0.00  0.00    +0.020 A 
ATOM     12  C   UNL     1       6.461   0.960  -5.504  0.00  0.00    +0.008 A 
ENDBRANCH   3   7
TORSDOF 1
ENDMDL
MODEL 4
REMARK VINA RESULT:     0.000      7.054      8.174
REMARK INTER + INTRA:          -0.256
REMARK INTER:                   0.000
REMARK INTRA:                  -0.256
REMARK UNBOUND:                -0.256
REMARK  Name = Nicotine.pdb
REMARK  2 active torsions:
REMARK  status: ('A' for Active; 'I' for Inactive)
REMARK    1  A    between atoms: C_3  and  C_6
REMARK    2  A    between atoms: N_4  and  C_12
REMARK                            x       y       z     vdW  Elec       q    Type
REMARK                         _______ _______ _______ _____ _____    ______ ____
ROOT
ATOM      1  C   UNL     1       8.797   3.328   3.407  0.00  0.00    +0.017 C 
ATOM      2  C   UNL     1       8.223   3.816   2.050  0.00  0.00    +0.025 C 
ATOM      3  C   UNL     1       7.294   4.977   2.464  0.00  0.00    +0.088 C 
ATOM      4  N   UNL     1       6.938   4.769   3.879  0.00  0.00    -0.298 NA
ATOM      5  C   UNL     1       7.582   3.524   4.348  0.00  0.00    +0.085 C 
ATOM      6  C   UNL     1       7.347   5.916   4.700  0.00  0.00    +0.105 C 
ENDROOT
BRANCH   3   7
ATOM      7  C   UNL     1       6.050   4.966   1.614  0.00  0.00    -0.012 A 
ATOM      8  C   UNL     1       5.288   6.111   1.473  0.00  0.00    +0.115 A 
ATOM      9  N   UNL     1       4.198   6.109   0.731  0.00  0.00    -0.263 NA
ATOM     10  C   UNL     1       3.793   5.027   0.098  0.00  0.00    +0.111 A 
ATOM     11  C   UNL     1       4.503   3.844   0.190  0.00  0.00    +0.020 A 
ATOM     12  C   UNL     1       5.658   3.809   0.957  0.00  0.00    +0.008 A 
ENDBRANCH   3   7
TORSDOF 1
ENDMDL
MODEL 5
REMARK VINA RESULT:     0.000      5.544      6.735
REMARK INTER + INTRA:          -0.256
REMARK INTER:                   0.000
REMARK INTRA:                  -0.256
REMARK UNBOUND:                -0.256
REMARK  Name = Nicotine.pdb
REMARK  2 active torsions:
REMARK  status: ('A' for Active; 'I' for Inactive)
REMARK    1  A    between atoms: C_3  and  C_6
REMARK    2  A    between atoms: N_4  and  C_12
REMARK                            x       y       z     vdW  Elec       q    Type
REMARK                         _______ _______ _______ _____ _____    ______ ____
ROOT
ATOM      1  C   UNL     1       5.453   4.706  -0.850  0.00  0.00    +0.017 C 
ATOM      2  C   UNL     1       4.613   4.829   0.449  0.00  0.00    +0.025 C 
ATOM      3  C   UNL     1       5.386   3.941   1.447  0.00  0.00    +0.088 C 
ATOM      4  N   UNL     1       6.187   2.990   0.655  0.00  0.00    -0.298 NA
ATOM      5  C   UNL     1       5.925   3.233  -0.779  0.00  0.00    +0.085 C 
ATOM      6  C   UNL     1       7.618   3.124   0.960  0.00  0.00    +0.105 C 
ENDROOT
BRANCH   3   7
ATOM      7  C   UNL     1       4.417   3.192   2.324  0.00  0.00    -0.012 A 
ATOM      8  C   UNL     1       4.824   2.691   3.546  0.00  0.00    +0.115 A 
ATOM      9  N   UNL     1       3.981   2.034   4.320  0.00  0.00    -0.263 NA
ATOM     10  C   UNL     1       2.729   1.829   3.964  0.00  0.00    +0.111 A 
ATOM     11  C   UNL     1       2.250   2.301   2.756  0.00  0.00    +0.020 A 
ATOM     12  C   UNL     1       3.105   3.001   1.918  0.00  0.00    +0.008 A 
ENDBRANCH   3   7
TORSDOF 1
ENDMDL
MODEL 6
REMARK VINA RESULT:     0.000      5.835      6.750
REMARK INTER + INTRA:          -0.256
REMARK INTER:                   0.000
REMARK INTRA:                  -0.256
REMARK UNBOUND:                -0.256
REMARK  Name = Nicotine.pdb
REMARK  2 active torsions:
REMARK  status: ('A' for Active; 'I' for Inactive)
REMARK    1  A    between atoms: C_3  and  C_6
REMARK    2  A    between atoms: N_4  and  C_12
REMARK                            x       y       z     vdW  Elec       q    Type
REMARK                         _______ _______ _______ _____ _____    ______ ____
ROOT
ATOM      1  C   UNL     1       4.552   2.347  -2.744  0.00  0.00    +0.017 C 
ATOM      2  C   UNL     1       3.232   2.085  -3.516  0.00  0.00    +0.025 C 
ATOM      3  C   UNL     1       2.532   3.460  -3.482  0.00  0.00    +0.088 C 
ATOM      4  N   UNL     1       3.094   4.209  -2.345  0.00  0.00    -0.298 NA
ATOM      5  C   UNL     1       4.087   3.353  -1.662  0.00  0.00    +0.085 C 
ATOM      6  C   UNL     1       3.703   5.469  -2.792  0.00  0.00    +0.105 C 
ENDROOT
BRANCH   3   7
ATOM      7  C   UNL     1       1.048   3.275  -3.293  0.00  0.00    -0.012 A 
ATOM      8  C   UNL     1       0.167   4.274  -3.661  0.00  0.00    +0.115 A 
ATOM      9  N   UNL     1      -1.133   4.120  -3.500  0.00  0.00    -0.263 NA
ATOM     10  C   UNL     1      -1.641   3.018  -2.985  0.00  0.00    +0.111 A 
ATOM     11  C   UNL     1      -0.822   1.976  -2.594  0.00  0.00    +0.020 A 
ATOM     12  C   UNL     1       0.550   2.099  -2.754  0.00  0.00    +0.008 A 
ENDBRANCH   3   7
TORSDOF 1
ENDMDL
MODEL 7
REMARK VINA RESULT:     0.000      3.554      5.049
REMARK INTER + INTRA:          -0.256
REMARK INTER:                   0.000
REMARK INTRA:                  -0.256
REMARK UNBOUND:                -0.256
REMARK  Name = Nicotine.pdb
REMARK  2 active torsions:
REMARK  status: ('A' for Active; 'I' for Inactive)
REMARK    1  A    between atoms: C_3  and  C_6
REMARK    2  A    between atoms: N_4  and  C_12
REMARK                            x       y       z     vdW  Elec       q    Type
REMARK                         _______ _______ _______ _____ _____    ______ ____
ROOT
ATOM      1  C   UNL     1       0.996  -0.536   2.687  0.00  0.00    +0.017 C 
ATOM      2  C   UNL     1       1.856   0.706   3.040  0.00  0.00    +0.025 C 
ATOM      3  C   UNL     1       1.584   1.663   1.860  0.00  0.00    +0.088 C 
ATOM      4  N   UNL     1       1.124   0.840   0.727  0.00  0.00    -0.298 NA
ATOM      5  C   UNL     1       1.125  -0.578   1.144  0.00  0.00    +0.085 C 
ATOM      6  C   UNL     1      -0.211   1.258   0.280  0.00  0.00    +0.105 C 
ENDROOT
BRANCH   3   7
ATOM      7  C   UNL     1       2.850   2.390   1.487  0.00  0.00    -0.012 A 
ATOM      8  C   UNL     1       2.793   3.582   0.791  0.00  0.00    +0.115 A 
ATOM      9  N   UNL     1       3.896   4.225   0.461  0.00  0.00    -0.263 NA
ATOM     10  C   UNL     1       5.089   3.761   0.777  0.00  0.00    +0.111 A 
ATOM     11  C   UNL     1       5.225   2.575   1.474  0.00  0.00    +0.020 A 
ATOM     12  C   UNL     1       4.087   1.874   1.842  0.00  0.00    +0.008 A 
ENDBRANCH   3   7
TORSDOF 1
ENDMDL
MODEL 8
REMARK VINA RESULT:     0.000      1.874      4.512
REMARK INTER + INTRA:          -0.256
REMARK INTER:                   0.000
REMARK INTRA:                  -0.256
REMARK UNBOUND:                -0.256
REMARK  Name = Nicotine.pdb
REMARK  2 active torsions:
REMARK  status: ('A' for Active; 'I' for Inactive)
REMARK    1  A    between atoms: C_3  and  C_6
REMARK    2  A    between atoms: N_4  and  C_12
REMARK                            x       y       z     vdW  Elec       q    Type
REMARK                         _______ _______ _______ _____ _____    ______ ____
ROOT
ATOM      1  C   UNL     1       3.521   0.891  -2.054  0.00  0.00    +0.017 C 
ATOM      2  C   UNL     1       4.244  -0.157  -1.167  0.00  0.00    +0.025 C 
ATOM      3  C   UNL     1       4.060  -1.468  -1.960  0.00  0.00    +0.088 C 
ATOM      4  N   UNL     1       2.893  -1.285  -2.842  0.00  0.00    -0.298 NA
ATOM      5  C   UNL     1       2.336   0.065  -2.612  0.00  0.00    +0.085 C 
ATOM      6  C   UNL     1       3.263  -1.470  -4.251  0.00  0.00    +0.105 C 
ENDROOT
BRANCH   3   7
ATOM      7  C   UNL     1       3.812  -2.611  -1.010  0.00  0.00    -0.012 A 
ATOM      8  C   UNL     1       4.049  -3.914  -1.406  0.00  0.00    +0.115 A 
ATOM      9  N   UNL     1       3.835  -4.920  -0.580  0.00  0.00    -0.263 NA
ATOM     10  C   UNL     1       3.390  -4.727   0.646  0.00  0.00    +0.111 A 
ATOM     11  C   UNL     1       3.130  -3.452   1.112  0.00  0.00    +0.020 A 
ATOM     12  C   UNL     1       3.348  -2.369   0.275  0.00  0.00    +0.008 A 
ENDBRANCH   3   7
TORSDOF 1
ENDMDL
MODEL 9
REMARK VINA RESULT:     0.000      4.532      5.021
REMARK INTER + INTRA:          -0.256
REMARK INTER:                   0.000
REMARK INTRA:                  -0.256
REMARK UNBOUND:                -0.256
REMARK  Name = Nicotine.pdb
REMARK  2 active torsions:
REMARK  status: ('A' for Active; 'I' for Inactive)
REMARK    1  A    between atoms: C_3  and  C_6
REMARK    2  A    between atoms: N_4  and  C_12
REMARK                            x       y       z     vdW  Elec       q    Type
REMARK                         _______ _______ _______ _____ _____    ______ ____
ROOT
ATOM      1  C   UNL     1       4.297  -2.564   1.953  0.00  0.00    +0.017 C 
ATOM      2  C   UNL     1       4.631  -1.069   1.705  0.00  0.00    +0.025 C 
ATOM      3  C   UNL     1       6.152  -1.091   1.447  0.00  0.00    +0.088 C 
ATOM      4  N   UNL     1       6.682  -2.323   2.059  0.00  0.00    -0.298 NA
ATOM      5  C   UNL     1       5.564  -3.047   2.702  0.00  0.00    +0.085 C 
ATOM      6  C   UNL     1       7.347  -3.165   1.056  0.00  0.00    +0.105 C 
ENDROOT
BRANCH   3   7
ATOM      7  C   UNL     1       6.797   0.115   2.080  0.00  0.00    -0.012 A 
ATOM      8  C   UNL     1       8.029   0.561   1.640  0.00  0.00    +0.115 A 
ATOM      9  N   UNL     1       8.601   1.615   2.189  0.00  0.00    -0.263 NA
ATOM     10  C   UNL     1       8.026   2.282   3.170  0.00  0.00    +0.111 A 
ATOM     11  C   UNL     1       6.794   1.896   3.662  0.00  0.00    +0.020 A 
ATOM     12  C   UNL     1       6.160   0.795   3.107  0.00  0.00    +0.008 A 
ENDBRANCH   3   7
TORSDOF 1
ENDMDL
MODEL 10
REMARK VINA RESULT:     0.000      7.694      9.783
REMARK INTER + INTRA:          -0.256
REMARK INTER:                   0.000
REMARK INTRA:                  -0.256
REMARK UNBOUND:                -0.256
REMARK  Name = Nicotine.pdb
REMARK  2 active torsions:
REMARK  status: ('A' for Active; 'I' for Inactive)
REMARK    1  A    between atoms: C_3  and  C_6
REMARK    2  A    between atoms: N_4  and  C_12
REMARK                            x       y       z     vdW  Elec       q    Type
REMARK                         _______ _______ _______ _____ _____    ______ ____
ROOT
ATOM      1  C   UNL     1      10.041   3.784  -5.158  0.00  0.00    +0.017 C 
ATOM      2  C   UNL     1       9.928   2.593  -6.146  0.00  0.00    +0.025 C 
ATOM      3  C   UNL     1       8.810   1.730  -5.523  0.00  0.00    +0.088 C 
ATOM      4  N   UNL     1       8.737   2.076  -4.092  0.00  0.00    -0.298 NA
ATOM      5  C   UNL     1       9.772   3.090  -3.799  0.00  0.00    +0.085 C 
ATOM      6  C   UNL     1       7.400   2.569  -3.737  0.00  0.00    +0.105 C 
ENDROOT
BRANCH   3   7
ATOM      7  C   UNL     1       9.141   0.269  -5.683  0.00  0.00    -0.012 A 
ATOM      8  C   UNL     1       8.143  -0.685  -5.619  0.00  0.00    +0.115 A 
ATOM      9  N   UNL     1       8.424  -1.966  -5.758  0.00  0.00    -0.263 NA
ATOM     10  C   UNL     1       9.657  -2.387  -5.961  0.00  0.00    +0.111 A 
ATOM     11  C   UNL     1      10.707  -1.491  -6.037  0.00  0.00    +0.020 A 
ATOM     12  C   UNL     1      10.449  -0.136  -5.901  0.00  0.00    +0.008 A 
ENDBRANCH   3   7
TORSDOF 1
ENDMDL
