MODEL 1
REMARK VINA RESULT:     0.000      0.000      0.000
REMARK INTER + INTRA:          -0.256
REMARK INTER:                   0.000
REMARK INTRA:                  -0.256
REMARK UNBOUND:                -0.256
REMARK  Name = Nicotine.pdb
REMARK  2 active torsions:
REMARK  status: ('A' for Active; 'I' for Inactive)
REMARK    1  A    between atoms: C_3  and  C_6
REMARK    2  A    between atoms: N_4  and  C_12
REMARK                            x       y       z     vdW  Elec       q    Type
REMARK                         _______ _______ _______ _____ _____    ______ ____
ROOT
ATOM      1  C   UNL     1      -0.540  -0.968   0.908  0.00  0.00    +0.017 C 
ATOM      2  C   UNL     1       0.171  -2.113   0.139  0.00  0.00    +0.025 C 
ATOM      3  C   UNL     1       1.572  -1.527  -0.137  0.00  0.00    +0.088 C 
ATOM      4  N   UNL     1       1.454  -0.059  -0.067  0.00  0.00    -0.298 NA
ATOM      5  C   UNL     1       0.044   0.287   0.212  0.00  0.00    +0.085 C 
ATOM      6  C   UNL     1       2.346   0.493   0.960  0.00  0.00    +0.105 C 
ENDROOT
BRANCH   3   7
ATOM      7  C   UNL     1       2.040  -1.940  -1.509  0.00  0.00    -0.012 A 
ATOM      8  C   UNL     1       3.386  -1.929  -1.821  0.00  0.00    +0.115 A 
ATOM      9  N   UNL     1       3.804  -2.290  -3.019  0.00  0.00    -0.263 NA
ATOM     10  C   UNL     1       2.964  -2.671  -3.960  0.00  0.00    +0.111 A 
ATOM     11  C   UNL     1       1.603  -2.708  -3.721  0.00  0.00    +0.020 A 
ATOM     12  C   UNL     1       1.127  -2.341  -2.471  0.00  0.00    +0.008 A 
ENDBRANCH   3   7
TORSDOF 1
ENDMDL
MODEL 2
REMARK VINA RESULT:     0.000      2.945      5.714
REMARK INTER + INTRA:          -0.256
REMARK INTER:                   0.000
REMARK INTRA:                  -0.256
REMARK UNBOUND:                -0.256
REMARK  Name = Nicotine.pdb
REMARK  2 active torsions:
REMARK  status: ('A' for Active; 'I' for Inactive)
REMARK    1  A    between atoms: C_3  and  C_6
REMARK    2  A    between atoms: N_4  and  C_12
REMARK                            x       y       z     vdW  Elec       q    Type
REMARK                         _______ _______ _______ _____ _____    ______ ____
ROOT
ATOM      1  C   UNL     1       7.425  -1.678  -0.617  0.00  0.00    +0.017 C 
ATOM      2  C   UNL     1       6.663  -2.008   0.693  0.00  0.00    +0.025 C 
ATOM      3  C   UNL     1       5.290  -2.497   0.182  0.00  0.00    +0.088 C 
ATOM      4  N   UNL     1       5.107  -1.946  -1.172  0.00  0.00    -0.298 NA
ATOM      5  C   UNL     1       6.287  -1.122  -1.509  0.00  0.00    +0.085 C 
ATOM      6  C   UNL     1       4.914  -3.019  -2.156  0.00  0.00    +0.105 C 
ENDROOT
BRANCH   3   7
ATOM      7  C   UNL     1       4.198  -1.998   1.092  0.00  0.00    -0.012 A 
ATOM      8  C   UNL     1       2.970  -2.633   1.123  0.00  0.00    +0.115 A 
ATOM      9  N   UNL     1       2.008  -2.203   1.917  0.00  0.00    -0.263 NA
ATOM     10  C   UNL     1       2.175  -1.161   2.706  0.00  0.00    +0.111 A 
ATOM     11  C   UNL     1       3.376  -0.476   2.731  0.00  0.00    +0.020 A 
ATOM     12  C   UNL     1       4.412  -0.902   1.914  0.00  0.00    +0.008 A 
ENDBRANCH   3   7
TORSDOF 1
ENDMDL
MODEL 3
REMARK VINA RESULT:     0.000      7.569      9.258
REMARK INTER + INTRA:          -0.256
REMARK INTER:                   0.000
REMARK INTRA:                  -0.256
REMARK UNBOUND:                -0.256
REMARK  Name = Nicotine.pdb
REMARK  2 active torsions:
REMARK  status: ('A' for Active; 'I' for Inactive)
REMARK    1  A    between atoms: C_3  and  C_6
REMARK    2  A    between atoms: N_4  and  C_12
REMARK                            x       y       z     vdW  Elec       q    Type
REMARK                         _______ _______ _______ _____ _____    ______ ____
ROOT
ATOM      1  C   UNL     1       7.192   1.181  -3.962  0.00  0.00    +0.017 C 
ATOM      2  C   UNL     1       7.830   1.508  -2.586  0.00  0.00    +0.025 C 
ATOM      3  C   UNL     1       7.390   2.966  -2.337  0.00  0.00    +0.088 C 
ATOM      4  N   UNL     1       7.068   3.556  -3.649  0.00  0.00    -0.298 NA
ATOM      5  C   UNL     1       7.314   2.540  -4.695  0.00  0.00    +0.085 C 
ATOM      6  C   UNL     1       5.678   4.027  -3.689  0.00  0.00    +0.105 C 
ENDROOT
BRANCH   3   7
ATOM      7  C   UNL     1       8.510   3.737  -1.688  0.00  0.00    -0.012 A 
ATOM      8  C   UNL     1       8.244   4.892  -0.978  0.00  0.00    +0.115 A 
ATOM      9  N   UNL     1       9.219   5.572  -0.406  0.00  0.00    -0.263 NA
ATOM     10  C   UNL     1      10.476   5.183  -0.488  0.00  0.00    +0.111 A 
ATOM     11  C   UNL     1      10.818   4.037  -1.182  0.00  0.00    +0.020 A 
ATOM     12  C   UNL     1       9.820   3.293  -1.791  0.00  0.00    +0.008 A 
ENDBRANCH   3   7
TORSDOF 1
ENDMDL
MODEL 4
REMARK VINA RESULT:     0.000      6.075      7.637
REMARK INTER + INTRA:          -0.256
REMARK INTER:                   0.000
REMARK INTRA:                  -0.256
REMARK UNBOUND:                -0.256
REMARK  Name = Nicotine.pdb
REMARK  2 active torsions:
REMARK  status: ('A' for Active; 'I' for Inactive)
REMARK    1  A    between atoms: C_3  and  C_6
REMARK    2  A    between atoms: N_4  and  C_12
REMARK                            x       y       z     vdW  Elec       q    Type
REMARK                         _______ _______ _______ _____ _____    ______ ____
ROOT
ATOM      1  C   UNL     1       5.700   0.305  -3.291  0.00  0.00    +0.017 C 
ATOM      2  C   UNL     1       6.678   0.057  -2.112  0.00  0.00    +0.025 C 
ATOM      3  C   UNL     1       6.630   1.390  -1.335  0.00  0.00    +0.088 C 
ATOM      4  N   UNL     1       6.169   2.427  -2.275  0.00  0.00    -0.298 NA
ATOM      5  C   UNL     1       5.954   1.802  -3.598  0.00  0.00    +0.085 C 
ATOM      6  C   UNL     1       4.940   3.069  -1.790  0.00  0.00    +0.105 C 
ENDROOT
BRANCH   3   7
ATOM      7  C   UNL     1       8.005   1.734  -0.824  0.00  0.00    -0.012 A 
ATOM      8  C   UNL     1       8.158   2.605   0.238  0.00  0.00    +0.115 A 
ATOM      9  N   UNL     1       9.358   2.912   0.692  0.00  0.00    -0.263 NA
ATOM     10  C   UNL     1      10.451   2.407   0.157  0.00  0.00    +0.111 A 
ATOM     11  C   UNL     1      10.377   1.528  -0.908  0.00  0.00    +0.020 A 
ATOM     12  C   UNL     1       9.132   1.178  -1.409  0.00  0.00    +0.008 A 
ENDBRANCH   3   7
TORSDOF 1
ENDMDL
MODEL 5
REMARK VINA RESULT:     0.000      4.533      6.362
REMARK INTER + INTRA:          -0.256
REMARK INTER:                   0.000
REMARK INTRA:                  -0.256
REMARK UNBOUND:                -0.256
REMARK  Name = Nicotine.pdb
REMARK  2 active torsions:
REMARK  status: ('A' for Active; 'I' for Inactive)
REMARK    1  A    between atoms: C_3  and  C_6
REMARK    2  A    between atoms: N_4  and  C_12
REMARK                            x       y       z     vdW  Elec       q    Type
REMARK                         _______ _______ _______ _____ _____    ______ ____
ROOT
ATOM      1  C   UNL     1       6.193  -0.881   0.814  0.00  0.00    +0.017 C 
ATOM      2  C   UNL     1       5.169   0.136   0.246  0.00  0.00    +0.025 C 
ATOM      3  C   UNL     1       5.373   1.373   1.146  0.00  0.00    +0.088 C 
ATOM      4  N   UNL     1       5.983   0.904   2.403  0.00  0.00    -0.298 NA
ATOM      5  C   UNL     1       6.140  -0.564   2.330  0.00  0.00    +0.085 C 
ATOM      6  C   UNL     1       7.274   1.561   2.640  0.00  0.00    +0.105 C 
ENDROOT
BRANCH   3   7
ATOM      7  C   UNL     1       4.044   2.025   1.431  0.00  0.00    -0.012 A 
ATOM      8  C   UNL     1       3.984   3.349   1.823  0.00  0.00    +0.115 A 
ATOM      9  N   UNL     1       2.826   3.926   2.074  0.00  0.00    -0.263 NA
ATOM     10  C   UNL     1       1.687   3.272   1.964  0.00  0.00    +0.111 A 
ATOM     11  C   UNL     1       1.668   1.945   1.576  0.00  0.00    +0.020 A 
ATOM     12  C   UNL     1       2.866   1.306   1.298  0.00  0.00    +0.008 A 
ENDBRANCH   3   7
TORSDOF 1
ENDMDL
MODEL 6
REMARK VINA RESULT:     0.000      4.370      5.301
REMARK INTER + INTRA:          -0.256
REMARK INTER:                   0.000
REMARK INTRA:                  -0.256
REMARK UNBOUND:                -0.256
REMARK  Name = Nicotine.pdb
REMARK  2 active torsions:
REMARK  status: ('A' for Active; 'I' for Inactive)
REMARK    1  A    between atoms: C_3  and  C_6
REMARK    2  A    between atoms: N_4  and  C_12
REMARK                            x       y       z     vdW  Elec       q    Type
REMARK                         _______ _______ _______ _____ _____    ______ ____
ROOT
ATOM      1  C   UNL     1      -2.356  -3.613  -0.153  0.00  0.00    +0.017 C 
ATOM      2  C   UNL     1      -1.213  -4.273   0.663  0.00  0.00    +0.025 C 
ATOM      3  C   UNL     1      -1.262  -3.513   2.006  0.00  0.00    +0.088 C 
ATOM      4  N   UNL     1      -1.927  -2.222   1.753  0.00  0.00    -0.298 NA
ATOM      5  C   UNL     1      -2.266  -2.140   0.316  0.00  0.00    +0.085 C 
ATOM      6  C   UNL     1      -3.127  -2.075   2.587  0.00  0.00    +0.105 C 
ENDROOT
BRANCH   3   7
ATOM      7  C   UNL     1       0.137  -3.280   2.515  0.00  0.00    -0.012 A 
ATOM      8  C   UNL     1       0.360  -3.031   3.856  0.00  0.00    +0.115 A 
ATOM      9  N   UNL     1       1.582  -2.827   4.309  0.00  0.00    -0.263 NA
ATOM     10  C   UNL     1       2.630  -2.850   3.511  0.00  0.00    +0.111 A 
ATOM     11  C   UNL     1       2.485  -3.094   2.158  0.00  0.00    +0.020 A 
ATOM     12  C   UNL     1       1.216  -3.319   1.646  0.00  0.00    +0.008 A 
ENDBRANCH   3   7
TORSDOF 1
ENDMDL
MODEL 7
REMARK VINA RESULT:     0.000      6.158      6.860
REMARK INTER + INTRA:          -0.256
REMARK INTER:                   0.000
REMARK INTRA:                  -0.256
REMARK UNBOUND:                -0.256
REMARK  Name = Nicotine.pdb
REMARK  2 active torsions:
REMARK  status: ('A' for Active; 'I' for Inactive)
REMARK    1  A    between atoms: C_3  and  C_6
REMARK    2  A    between atoms: N_4  and  C_12
REMARK                            x       y       z     vdW  Elec       q    Type
REMARK                         _______ _______ _______ _____ _____    ______ ____
ROOT
ATOM      1  C   UNL     1       0.493   4.627  -3.091  0.00  0.00    +0.017 C 
ATOM      2  C   UNL     1      -0.458   3.404  -3.173  0.00  0.00    +0.025 C 
ATOM      3  C   UNL     1       0.026   2.673  -4.444  0.00  0.00    +0.088 C 
ATOM      4  N   UNL     1       0.735   3.663  -5.274  0.00  0.00    -0.298 NA
ATOM      5  C   UNL     1       0.689   4.972  -4.588  0.00  0.00    +0.085 C 
ATOM      6  C   UNL     1       2.121   3.247  -5.523  0.00  0.00    +0.105 C 
ENDROOT
BRANCH   3   7
ATOM      7  C   UNL     1      -1.156   2.121  -5.199  0.00  0.00    -0.012 A 
ATOM      8  C   UNL     1      -0.989   1.083  -6.096  0.00  0.00    +0.115 A 
ATOM      9  N   UNL     1      -2.018   0.594  -6.760  0.00  0.00    -0.263 NA
ATOM     10  C   UNL     1      -3.237   1.070  -6.600  0.00  0.00    +0.111 A 
ATOM     11  C   UNL     1      -3.480   2.108  -5.719  0.00  0.00    +0.020 A 
ATOM     12  C   UNL     1      -2.424   2.644  -4.999  0.00  0.00    +0.008 A 
ENDBRANCH   3   7
TORSDOF 1
ENDMDL
MODEL 8
REMARK VINA RESULT:     0.000      3.154      4.004
REMARK INTER + INTRA:          -0.256
REMARK INTER:                   0.000
REMARK INTRA:                  -0.256
REMARK UNBOUND:                -0.256
REMARK  Name = Nicotine.pdb
REMARK  2 active torsions:
REMARK  status: ('A' for Active; 'I' for Inactive)
REMARK    1  A    between atoms: C_3  and  C_6
REMARK    2  A    between atoms: N_4  and  C_12
REMARK                            x       y       z     vdW  Elec       q    Type
REMARK                         _______ _______ _______ _____ _____    ______ ____
ROOT
ATOM      1  C   UNL     1       1.743   1.484   1.662  0.00  0.00    +0.017 C 
ATOM      2  C   UNL     1       0.410   0.698   1.552  0.00  0.00    +0.025 C 
ATOM      3  C   UNL     1       0.770  -0.681   2.146  0.00  0.00    +0.088 C 
ATOM      4  N   UNL     1       2.232  -0.834   2.041  0.00  0.00    -0.298 NA
ATOM      5  C   UNL     1       2.786   0.372   1.388  0.00  0.00    +0.085 C 
ATOM      6  C   UNL     1       2.837  -1.042   3.363  0.00  0.00    +0.105 C 
ENDROOT
BRANCH   3   7
ATOM      7  C   UNL     1       0.082  -1.771   1.366  0.00  0.00    -0.012 A 
ATOM      8  C   UNL     1      -0.121  -3.015   1.934  0.00  0.00    +0.115 A 
ATOM      9  N   UNL     1      -0.723  -3.974   1.258  0.00  0.00    -0.263 NA
ATOM     10  C   UNL     1      -1.152  -3.790   0.025  0.00  0.00    +0.111 A 
ATOM     11  C   UNL     1      -0.985  -2.572  -0.607  0.00  0.00    +0.020 A 
ATOM     12  C   UNL     1      -0.361  -1.538   0.073  0.00  0.00    +0.008 A 
ENDBRANCH   3   7
TORSDOF 1
ENDMDL
MODEL 9
REMARK VINA RESULT:     0.000      4.047      6.067
REMARK INTER + INTRA:          -0.256
REMARK INTER:                   0.000
REMARK INTRA:                  -0.256
REMARK UNBOUND:                -0.256
REMARK  Name = Nicotine.pdb
REMARK  2 active torsions:
REMARK  status: ('A' for Active; 'I' for Inactive)
REMARK    1  A    between atoms: C_3  and  C_6
REMARK    2  A    between atoms: N_4  and  C_12
REMARK                            x       y       z     vdW  Elec       q    Type
REMARK                         _______ _______ _______ _____ _____    ______ ____
ROOT
ATOM      1  C   UNL     1      -1.505  -2.956  -0.691  0.00  0.00    +0.017 C 
ATOM      2  C   UNL     1      -0.292  -2.631   0.221  0.00  0.00    +0.025 C 
ATOM      3  C   UNL     1      -0.603  -3.424   1.508  0.00  0.00    +0.088 C 
ATOM      4  N   UNL     1      -2.058  -3.662   1.534  0.00  0.00    -0.298 NA
ATOM      5  C   UNL     1      -2.659  -3.032   0.339  0.00  0.00    +0.085 C 
ATOM      6  C   UNL     1      -2.356  -5.099   1.579  0.00  0.00    +0.105 C 
ENDROOT
BRANCH   3   7
ATOM      7  C   UNL     1      -0.192  -2.623   2.716  0.00  0.00    -0.012 A 
ATOM      8  C   UNL     1       0.047  -3.252   3.923  0.00  0.00    +0.115 A 
ATOM      9  N   UNL     1       0.408  -2.558   4.985  0.00  0.00    -0.263 NA
ATOM     10  C   UNL     1       0.555  -1.249   4.941  0.00  0.00    +0.111 A 
ATOM     11  C   UNL     1       0.334  -0.551   3.768  0.00  0.00    +0.020 A 
ATOM     12  C   UNL     1      -0.041  -1.248   2.629  0.00  0.00    +0.008 A 
ENDBRANCH   3   7
TORSDOF 1
ENDMDL
MODEL 10
REMARK VINA RESULT:     0.000      4.270      5.824
REMARK INTER + INTRA:          -0.256
REMARK INTER:                   0.000
REMARK INTRA:                  -0.256
REMARK UNBOUND:                -0.256
REMARK  Name = Nicotine.pdb
REMARK  2 active torsions:
REMARK  status: ('A' for Active; 'I' for Inactive)
REMARK    1  A    between atoms: C_3  and  C_6
REMARK    2  A    between atoms: N_4  and  C_12
REMARK                            x       y       z     vdW  Elec       q    Type
REMARK                         _______ _______ _______ _____ _____    ______ ____
ROOT
ATOM      1  C   UNL     1       3.321  -5.142  -2.526  0.00  0.00    +0.017 C 
ATOM      2  C   UNL     1       2.135  -5.841  -3.242  0.00  0.00    +0.025 C 
ATOM      3  C   UNL     1       2.166  -5.217  -4.653  0.00  0.00    +0.088 C 
ATOM      4  N   UNL     1       2.875  -3.929  -4.546  0.00  0.00    -0.298 NA
ATOM      5  C   UNL     1       3.259  -3.719  -3.134  0.00  0.00    +0.085 C 
ATOM      6  C   UNL     1       4.053  -3.901  -5.423  0.00  0.00    +0.105 C 
ENDROOT
BRANCH   3   7
ATOM      7  C   UNL     1       0.759  -4.990  -5.144  0.00  0.00    -0.012 A 
ATOM      8  C   UNL     1       0.502  -4.864  -6.496  0.00  0.00    +0.115 A 
ATOM      9  N   UNL     1      -0.726  -4.666  -6.934  0.00  0.00    -0.263 NA
ATOM     10  C   UNL     1      -1.750  -4.579  -6.109  0.00  0.00    +0.111 A 
ATOM     11  C   UNL     1      -1.570  -4.695  -4.743  0.00  0.00    +0.020 A 
ATOM     12  C   UNL     1      -0.294  -4.909  -4.246  0.00  0.00    +0.008 A 
ENDBRANCH   3   7
TORSDOF 1
ENDMDL
