MODEL 1
REMARK VINA RESULT:    -3.151      0.000      0.000
REMARK INTER + INTRA:          -3.504
REMARK INTER:                  -3.335
REMARK INTRA:                  -0.168
REMARK UNBOUND:                -0.168
REMARK  Name = Nicotine.pdb
REMARK  2 active torsions:
REMARK  status: ('A' for Active; 'I' for Inactive)
REMARK    1  A    between atoms: C_3  and  C_6
REMARK    2  A    between atoms: N_4  and  C_12
REMARK                            x       y       z     vdW  Elec       q    Type
REMARK                         _______ _______ _______ _____ _____    ______ ____
ROOT
ATOM      1  C   UNL     1      -1.482  -5.637  -3.029  0.00  0.00    +0.017 C 
ATOM      2  C   UNL     1      -1.033  -5.402  -1.562  0.00  0.00    +0.025 C 
ATOM      3  C   UNL     1      -1.937  -4.237  -1.106  0.00  0.00    +0.088 C 
ATOM      4  N   UNL     1      -2.390  -3.534  -2.319  0.00  0.00    -0.298 NA
ATOM      5  C   UNL     1      -1.789  -4.193  -3.498  0.00  0.00    +0.085 C 
ATOM      6  C   UNL     1      -3.856  -3.528  -2.409  0.00  0.00    +0.105 C 
ENDROOT
BRANCH   3   7
ATOM      7  C   UNL     1      -1.156  -3.295  -0.227  0.00  0.00    -0.012 A 
ATOM      8  C   UNL     1      -0.252  -2.409  -0.782  0.00  0.00    +0.115 A 
ATOM      9  N   UNL     1       0.436  -1.581  -0.021  0.00  0.00    -0.263 NA
ATOM     10  C   UNL     1       0.294  -1.564   1.290  0.00  0.00    +0.111 A 
ATOM     11  C   UNL     1      -0.592  -2.422   1.916  0.00  0.00    +0.020 A 
ATOM     12  C   UNL     1      -1.337  -3.302   1.147  0.00  0.00    +0.008 A 
ENDBRANCH   3   7
TORSDOF 1
ENDMDL
MODEL 2
REMARK VINA RESULT:    -3.007      1.804      2.736
REMARK INTER + INTRA:          -3.351
REMARK INTER:                  -3.173
REMARK INTRA:                  -0.178
REMARK UNBOUND:                -0.168
REMARK  Name = Nicotine.pdb
REMARK  2 active torsions:
REMARK  status: ('A' for Active; 'I' for Inactive)
REMARK    1  A    between atoms: C_3  and  C_6
REMARK    2  A    between atoms: N_4  and  C_12
REMARK                            x       y       z     vdW  Elec       q    Type
REMARK                         _______ _______ _______ _____ _____    ______ ____
ROOT
ATOM      1  C   UNL     1      -0.376  -2.732  -2.686  0.00  0.00    +0.017 C 
ATOM      2  C   UNL     1      -0.248  -2.540  -1.152  0.00  0.00    +0.025 C 
ATOM      3  C   UNL     1      -0.796  -3.869  -0.589  0.00  0.00    +0.088 C 
ATOM      4  N   UNL     1      -1.659  -4.461  -1.627  0.00  0.00    -0.298 NA
ATOM      5  C   UNL     1      -1.688  -3.549  -2.791  0.00  0.00    +0.085 C 
ATOM      6  C   UNL     1      -1.179  -5.794  -2.014  0.00  0.00    +0.105 C 
ENDROOT
BRANCH   3   7
ATOM      7  C   UNL     1      -1.600  -3.605   0.658  0.00  0.00    -0.012 A 
ATOM      8  C   UNL     1      -2.960  -3.374   0.577  0.00  0.00    +0.115 A 
ATOM      9  N   UNL     1      -3.671  -3.142   1.663  0.00  0.00    -0.263 NA
ATOM     10  C   UNL     1      -3.120  -3.121   2.861  0.00  0.00    +0.111 A 
ATOM     11  C   UNL     1      -1.765  -3.344   3.020  0.00  0.00    +0.020 A 
ATOM     12  C   UNL     1      -0.986  -3.596   1.901  0.00  0.00    +0.008 A 
ENDBRANCH   3   7
TORSDOF 1
ENDMDL
MODEL 3
REMARK VINA RESULT:    -3.003      1.324      4.352
REMARK INTER + INTRA:          -3.347
REMARK INTER:                  -3.130
REMARK INTRA:                  -0.217
REMARK UNBOUND:                -0.168
REMARK  Name = Nicotine.pdb
REMARK  2 active torsions:
REMARK  status: ('A' for Active; 'I' for Inactive)
REMARK    1  A    between atoms: C_3  and  C_6
REMARK    2  A    between atoms: N_4  and  C_12
REMARK                            x       y       z     vdW  Elec       q    Type
REMARK                         _______ _______ _______ _____ _____    ______ ____
ROOT
ATOM      1  C   UNL     1      -1.320  -1.874   1.951  0.00  0.00    +0.017 C 
ATOM      2  C   UNL     1      -1.010  -3.228   1.261  0.00  0.00    +0.025 C 
ATOM      3  C   UNL     1      -0.344  -2.799  -0.063  0.00  0.00    +0.088 C 
ATOM      4  N   UNL     1      -0.770  -1.415  -0.338  0.00  0.00    -0.298 NA
ATOM      5  C   UNL     1      -1.686  -0.981   0.738  0.00  0.00    +0.085 C 
ATOM      6  C   UNL     1       0.388  -0.517  -0.439  0.00  0.00    +0.105 C 
ENDROOT
BRANCH   3   7
ATOM      7  C   UNL     1      -0.791  -3.706  -1.180  0.00  0.00    -0.012 A 
ATOM      8  C   UNL     1      -1.060  -3.190  -2.434  0.00  0.00    +0.115 A 
ATOM      9  N   UNL     1      -1.451  -3.977  -3.417  0.00  0.00    -0.263 NA
ATOM     10  C   UNL     1      -1.602  -5.276  -3.248  0.00  0.00    +0.111 A 
ATOM     11  C   UNL     1      -1.351  -5.863  -2.021  0.00  0.00    +0.020 A 
ATOM     12  C   UNL     1      -0.932  -5.068  -0.966  0.00  0.00    +0.008 A 
ENDBRANCH   3   7
TORSDOF 1
ENDMDL
MODEL 4
REMARK VINA RESULT:    -2.954      2.136      4.606
REMARK INTER + INTRA:          -3.295
REMARK INTER:                  -3.042
REMARK INTRA:                  -0.252
REMARK UNBOUND:                -0.168
REMARK  Name = Nicotine.pdb
REMARK  2 active torsions:
REMARK  status: ('A' for Active; 'I' for Inactive)
REMARK    1  A    between atoms: C_3  and  C_6
REMARK    2  A    between atoms: N_4  and  C_12
REMARK                            x       y       z     vdW  Elec       q    Type
REMARK                         _______ _______ _______ _____ _____    ______ ____
ROOT
ATOM      1  C   UNL     1      -2.214  -3.682   4.350  0.00  0.00    +0.017 C 
ATOM      2  C   UNL     1      -1.077  -3.864   3.310  0.00  0.00    +0.025 C 
ATOM      3  C   UNL     1      -1.101  -2.531   2.533  0.00  0.00    +0.088 C 
ATOM      4  N   UNL     1      -2.442  -1.945   2.712  0.00  0.00    -0.298 NA
ATOM      5  C   UNL     1      -3.251  -2.864   3.541  0.00  0.00    +0.085 C 
ATOM      6  C   UNL     1      -2.357  -0.615   3.330  0.00  0.00    +0.105 C 
ENDROOT
BRANCH   3   7
ATOM      7  C   UNL     1      -0.843  -2.785   1.070  0.00  0.00    -0.012 A 
ATOM      8  C   UNL     1      -0.111  -1.882   0.322  0.00  0.00    +0.115 A 
ATOM      9  N   UNL     1       0.119  -2.098  -0.958  0.00  0.00    -0.263 NA
ATOM     10  C   UNL     1      -0.334  -3.172  -1.573  0.00  0.00    +0.111 A 
ATOM     11  C   UNL     1      -1.074  -4.119  -0.890  0.00  0.00    +0.020 A 
ATOM     12  C   UNL     1      -1.332  -3.930   0.459  0.00  0.00    +0.008 A 
ENDBRANCH   3   7
TORSDOF 1
ENDMDL
MODEL 5
REMARK VINA RESULT:    -2.947      1.826      2.960
REMARK INTER + INTRA:          -3.288
REMARK INTER:                  -3.053
REMARK INTRA:                  -0.235
REMARK UNBOUND:                -0.168
REMARK  Name = Nicotine.pdb
REMARK  2 active torsions:
REMARK  status: ('A' for Active; 'I' for Inactive)
REMARK    1  A    between atoms: C_3  and  C_6
REMARK    2  A    between atoms: N_4  and  C_12
REMARK                            x       y       z     vdW  Elec       q    Type
REMARK                         _______ _______ _______ _____ _____    ______ ____
ROOT
ATOM      1  C   UNL     1      -2.194  -3.694  -0.618  0.00  0.00    +0.017 C 
ATOM      2  C   UNL     1      -2.058  -2.580   0.454  0.00  0.00    +0.025 C 
ATOM      3  C   UNL     1      -0.829  -1.781  -0.029  0.00  0.00    +0.088 C 
ATOM      4  N   UNL     1      -0.040  -2.675  -0.896  0.00  0.00    -0.298 NA
ATOM      5  C   UNL     1      -0.710  -3.992  -0.949  0.00  0.00    +0.085 C 
ATOM      6  C   UNL     1       0.111  -2.106  -2.241  0.00  0.00    +0.105 C 
ENDROOT
BRANCH   3   7
ATOM      7  C   UNL     1      -0.002  -1.349   1.153  0.00  0.00    -0.012 A 
ATOM      8  C   UNL     1       1.191  -0.678   0.963  0.00  0.00    +0.115 A 
ATOM      9  N   UNL     1       1.922  -0.296   1.993  0.00  0.00    -0.263 NA
ATOM     10  C   UNL     1       1.549  -0.537   3.234  0.00  0.00    +0.111 A 
ATOM     11  C   UNL     1       0.368  -1.203   3.502  0.00  0.00    +0.020 A 
ATOM     12  C   UNL     1      -0.429  -1.615   2.445  0.00  0.00    +0.008 A 
ENDBRANCH   3   7
TORSDOF 1
ENDMDL
MODEL 6
REMARK VINA RESULT:    -2.942      1.598      4.530
REMARK INTER + INTRA:          -3.282
REMARK INTER:                  -3.028
REMARK INTRA:                  -0.254
REMARK UNBOUND:                -0.168
REMARK  Name = Nicotine.pdb
REMARK  2 active torsions:
REMARK  status: ('A' for Active; 'I' for Inactive)
REMARK    1  A    between atoms: C_3  and  C_6
REMARK    2  A    between atoms: N_4  and  C_12
REMARK                            x       y       z     vdW  Elec       q    Type
REMARK                         _______ _______ _______ _____ _____    ______ ____
ROOT
ATOM      1  C   UNL     1      -0.553  -2.226   1.770  0.00  0.00    +0.017 C 
ATOM      2  C   UNL     1      -0.612  -2.515   0.247  0.00  0.00    +0.025 C 
ATOM      3  C   UNL     1      -2.068  -2.983   0.039  0.00  0.00    +0.088 C 
ATOM      4  N   UNL     1      -2.564  -3.462   1.343  0.00  0.00    -0.298 NA
ATOM      5  C   UNL     1      -1.476  -3.335   2.335  0.00  0.00    +0.085 C 
ATOM      6  C   UNL     1      -3.752  -2.709   1.764  0.00  0.00    +0.105 C 
ENDROOT
BRANCH   3   7
ATOM      7  C   UNL     1      -2.108  -4.103  -0.968  0.00  0.00    -0.012 A 
ATOM      8  C   UNL     1      -3.206  -4.261  -1.793  0.00  0.00    +0.115 A 
ATOM      9  N   UNL     1      -3.248  -5.238  -2.678  0.00  0.00    -0.263 NA
ATOM     10  C   UNL     1      -2.257  -6.097  -2.812  0.00  0.00    +0.111 A 
ATOM     11  C   UNL     1      -1.126  -6.000  -2.022  0.00  0.00    +0.020 A 
ATOM     12  C   UNL     1      -1.043  -4.983  -1.084  0.00  0.00    +0.008 A 
ENDBRANCH   3   7
TORSDOF 1
ENDMDL
MODEL 7
REMARK VINA RESULT:    -2.829      1.831      5.121
REMARK INTER + INTRA:          -3.162
REMARK INTER:                  -2.949
REMARK INTRA:                  -0.213
REMARK UNBOUND:                -0.168
REMARK  Name = Nicotine.pdb
REMARK  2 active torsions:
REMARK  status: ('A' for Active; 'I' for Inactive)
REMARK    1  A    between atoms: C_3  and  C_6
REMARK    2  A    between atoms: N_4  and  C_12
REMARK                            x       y       z     vdW  Elec       q    Type
REMARK                         _______ _______ _______ _____ _____    ______ ____
ROOT
ATOM      1  C   UNL     1       1.303   1.002   1.356  0.00  0.00    +0.017 C 
ATOM      2  C   UNL     1       0.299   0.355   0.366  0.00  0.00    +0.025 C 
ATOM      3  C   UNL     1      -0.235  -0.859   1.156  0.00  0.00    +0.088 C 
ATOM      4  N   UNL     1       0.768  -1.184   2.187  0.00  0.00    -0.298 NA
ATOM      5  C   UNL     1       1.902  -0.245   2.053  0.00  0.00    +0.085 C 
ATOM      6  C   UNL     1       0.182  -1.114   3.532  0.00  0.00    +0.105 C 
ENDROOT
BRANCH   3   7
ATOM      7  C   UNL     1      -0.418  -2.033   0.230  0.00  0.00    -0.012 A 
ATOM      8  C   UNL     1       0.098  -2.000  -1.052  0.00  0.00    +0.115 A 
ATOM      9  N   UNL     1      -0.058  -3.023  -1.869  0.00  0.00    -0.263 NA
ATOM     10  C   UNL     1      -0.708  -4.110  -1.502  0.00  0.00    +0.111 A 
ATOM     11  C   UNL     1      -1.251  -4.216  -0.235  0.00  0.00    +0.020 A 
ATOM     12  C   UNL     1      -1.102  -3.162   0.653  0.00  0.00    +0.008 A 
ENDBRANCH   3   7
TORSDOF 1
ENDMDL
MODEL 8
REMARK VINA RESULT:    -2.776      2.096      3.912
REMARK INTER + INTRA:          -3.106
REMARK INTER:                  -2.905
REMARK INTRA:                  -0.201
REMARK UNBOUND:                -0.168
REMARK  Name = Nicotine.pdb
REMARK  2 active torsions:
REMARK  status: ('A' for Active; 'I' for Inactive)
REMARK    1  A    between atoms: C_3  and  C_6
REMARK    2  A    between atoms: N_4  and  C_12
REMARK                            x       y       z     vdW  Elec       q    Type
REMARK                         _______ _______ _______ _____ _____    ______ ____
ROOT
ATOM      1  C   UNL     1      -4.130  -3.269   1.541  0.00  0.00    +0.017 C 
ATOM      2  C   UNL     1      -3.307  -3.459   0.239  0.00  0.00    +0.025 C 
ATOM      3  C   UNL     1      -1.848  -3.401   0.740  0.00  0.00    +0.088 C 
ATOM      4  N   UNL     1      -1.856  -2.682   2.026  0.00  0.00    -0.298 NA
ATOM      5  C   UNL     1      -3.244  -2.273   2.329  0.00  0.00    +0.085 C 
ATOM      6  C   UNL     1      -1.307  -3.518   3.101  0.00  0.00    +0.105 C 
ENDROOT
BRANCH   3   7
ATOM      7  C   UNL     1      -0.993  -2.663  -0.257  0.00  0.00    -0.012 A 
ATOM      8  C   UNL     1      -0.501  -3.313  -1.373  0.00  0.00    +0.115 A 
ATOM      9  N   UNL     1       0.248  -2.674  -2.250  0.00  0.00    -0.263 NA
ATOM     10  C   UNL     1       0.556  -1.401  -2.102  0.00  0.00    +0.111 A 
ATOM     11  C   UNL     1       0.100  -0.685  -1.010  0.00  0.00    +0.020 A 
ATOM     12  C   UNL     1      -0.694  -1.322  -0.070  0.00  0.00    +0.008 A 
ENDBRANCH   3   7
TORSDOF 1
ENDMDL
MODEL 9
REMARK VINA RESULT:    -2.712      1.075      2.046
REMARK INTER + INTRA:          -3.039
REMARK INTER:                  -2.828
REMARK INTRA:                  -0.211
REMARK UNBOUND:                -0.168
REMARK  Name = Nicotine.pdb
REMARK  2 active torsions:
REMARK  status: ('A' for Active; 'I' for Inactive)
REMARK    1  A    between atoms: C_3  and  C_6
REMARK    2  A    between atoms: N_4  and  C_12
REMARK                            x       y       z     vdW  Elec       q    Type
REMARK                         _______ _______ _______ _____ _____    ______ ____
ROOT
ATOM      1  C   UNL     1      -2.789  -3.470  -4.599  0.00  0.00    +0.017 C 
ATOM      2  C   UNL     1      -1.669  -2.686  -3.865  0.00  0.00    +0.025 C 
ATOM      3  C   UNL     1      -1.077  -3.742  -2.907  0.00  0.00    +0.088 C 
ATOM      4  N   UNL     1      -2.109  -4.775  -2.705  0.00  0.00    -0.298 NA
ATOM      5  C   UNL     1      -3.314  -4.394  -3.472  0.00  0.00    +0.085 C 
ATOM      6  C   UNL     1      -1.618  -6.097  -3.116  0.00  0.00    +0.105 C 
ENDROOT
BRANCH   3   7
ATOM      7  C   UNL     1      -0.729  -3.099  -1.589  0.00  0.00    -0.012 A 
ATOM      8  C   UNL     1       0.128  -2.015  -1.545  0.00  0.00    +0.115 A 
ATOM      9  N   UNL     1       0.438  -1.447  -0.396  0.00  0.00    -0.263 NA
ATOM     10  C   UNL     1      -0.050  -1.885   0.748  0.00  0.00    +0.111 A 
ATOM     11  C   UNL     1      -0.913  -2.964   0.782  0.00  0.00    +0.020 A 
ATOM     12  C   UNL     1      -1.266  -3.584  -0.407  0.00  0.00    +0.008 A 
ENDBRANCH   3   7
TORSDOF 1
ENDMDL
MODEL 10
REMARK VINA RESULT:    -0.638      1.540      4.413
REMARK INTER + INTRA:          -0.844
REMARK INTER:                  -0.646
REMARK INTRA:                  -0.198
REMARK UNBOUND:                -0.168
REMARK  Name = Nicotine.pdb
REMARK  2 active torsions:
REMARK  status: ('A' for Active; 'I' for Inactive)
REMARK    1  A    between atoms: C_3  and  C_6
REMARK    2  A    between atoms: N_4  and  C_12
REMARK                            x       y       z     vdW  Elec       q    Type
REMARK                         _______ _______ _______ _____ _____    ______ ____
ROOT
ATOM      1  C   UNL     1      -0.810   0.002  -2.109  0.00  0.00    +0.017 C 
ATOM      2  C   UNL     1      -1.766  -1.195  -2.357  0.00  0.00    +0.025 C 
ATOM      3  C   UNL     1      -1.331  -2.214  -1.283  0.00  0.00    +0.088 C 
ATOM      4  N   UNL     1       0.051  -1.880  -0.897  0.00  0.00    -0.298 NA
ATOM      5  C   UNL     1       0.497  -0.721  -1.700  0.00  0.00    +0.085 C 
ATOM      6  C   UNL     1       0.142  -1.592   0.540  0.00  0.00    +0.105 C 
ENDROOT
BRANCH   3   7
ATOM      7  C   UNL     1      -1.384  -3.610  -1.849  0.00  0.00    -0.012 A 
ATOM      8  C   UNL     1      -1.850  -3.827  -3.131  0.00  0.00    +0.115 A 
ATOM      9  N   UNL     1      -1.899  -5.045  -3.634  0.00  0.00    -0.263 NA
ATOM     10  C   UNL     1      -1.510  -6.097  -2.942  0.00  0.00    +0.111 A 
ATOM     11  C   UNL     1      -1.032  -5.958  -1.652  0.00  0.00    +0.020 A 
ATOM     12  C   UNL     1      -0.960  -4.692  -1.092  0.00  0.00    +0.008 A 
ENDBRANCH   3   7
TORSDOF 1
ENDMDL
