MODEL 1
REMARK VINA RESULT:    -2.999      0.000      0.000
REMARK INTER + INTRA:          -3.390
REMARK INTER:                  -3.175
REMARK INTRA:                  -0.215
REMARK UNBOUND:                -0.215
REMARK  Name = Nicotine.pdb
REMARK  2 active torsions:
REMARK  status: ('A' for Active; 'I' for Inactive)
REMARK    1  A    between atoms: C_3  and  C_6
REMARK    2  A    between atoms: N_4  and  C_12
REMARK                            x       y       z     vdW  Elec       q    Type
REMARK                         _______ _______ _______ _____ _____    ______ ____
ROOT
ATOM      1  C   UNL     1      -4.350   0.194  -5.754  0.00  0.00    +0.017 C 
ATOM      2  C   UNL     1      -5.007   0.058  -4.355  0.00  0.00    +0.025 C 
ATOM      3  C   UNL     1      -5.171   1.525  -3.904  0.00  0.00    +0.088 C 
ATOM      4  N   UNL     1      -4.200   2.328  -4.668  0.00  0.00    -0.298 NA
ATOM      5  C   UNL     1      -3.429   1.424  -5.549  0.00  0.00    +0.085 C 
ATOM      6  C   UNL     1      -4.877   3.372  -5.448  0.00  0.00    +0.105 C 
ENDROOT
BRANCH   3   7
ATOM      7  C   UNL     1      -4.887   1.643  -2.429  0.00  0.00    -0.012 A 
ATOM      8  C   UNL     1      -4.374   2.815  -1.907  0.00  0.00    +0.115 A 
ATOM      9  N   UNL     1      -4.123   2.927  -0.617  0.00  0.00    -0.263 NA
ATOM     10  C   UNL     1      -4.348   1.934   0.221  0.00  0.00    +0.111 A 
ATOM     11  C   UNL     1      -4.860   0.731  -0.228  0.00  0.00    +0.020 A 
ATOM     12  C   UNL     1      -5.142   0.579  -1.577  0.00  0.00    +0.008 A 
ENDBRANCH   3   7
TORSDOF 1
ENDMDL
MODEL 2
REMARK VINA RESULT:    -2.898      1.950      3.968
REMARK INTER + INTRA:          -3.283
REMARK INTER:                  -3.068
REMARK INTRA:                  -0.214
REMARK UNBOUND:                -0.215
REMARK  Name = Nicotine.pdb
REMARK  2 active torsions:
REMARK  status: ('A' for Active; 'I' for Inactive)
REMARK    1  A    between atoms: C_3  and  C_6
REMARK    2  A    between atoms: N_4  and  C_12
REMARK                            x       y       z     vdW  Elec       q    Type
REMARK                         _______ _______ _______ _____ _____    ______ ____
ROOT
ATOM      1  C   UNL     1      -4.603   0.057  -2.385  0.00  0.00    +0.017 C 
ATOM      2  C   UNL     1      -5.171   1.472  -2.673  0.00  0.00    +0.025 C 
ATOM      3  C   UNL     1      -5.086   1.573  -4.211  0.00  0.00    +0.088 C 
ATOM      4  N   UNL     1      -4.066   0.607  -4.657  0.00  0.00    -0.298 NA
ATOM      5  C   UNL     1      -3.502  -0.065  -3.467  0.00  0.00    +0.085 C 
ATOM      6  C   UNL     1      -4.639  -0.371  -5.591  0.00  0.00    +0.105 C 
ENDROOT
BRANCH   3   7
ATOM      7  C   UNL     1      -4.683   2.968  -4.612  0.00  0.00    -0.012 A 
ATOM      8  C   UNL     1      -3.916   3.745  -3.764  0.00  0.00    +0.115 A 
ATOM      9  N   UNL     1      -3.558   4.967  -4.107  0.00  0.00    -0.263 NA
ATOM     10  C   UNL     1      -3.914   5.495  -5.262  0.00  0.00    +0.111 A 
ATOM     11  C   UNL     1      -4.681   4.778  -6.161  0.00  0.00    +0.020 A 
ATOM     12  C   UNL     1      -5.071   3.487  -5.837  0.00  0.00    +0.008 A 
ENDBRANCH   3   7
TORSDOF 1
ENDMDL
MODEL 3
REMARK VINA RESULT:    -2.853      2.015      3.526
REMARK INTER + INTRA:          -3.235
REMARK INTER:                  -3.020
REMARK INTRA:                  -0.215
REMARK UNBOUND:                -0.215
REMARK  Name = Nicotine.pdb
REMARK  2 active torsions:
REMARK  status: ('A' for Active; 'I' for Inactive)
REMARK    1  A    between atoms: C_3  and  C_6
REMARK    2  A    between atoms: N_4  and  C_12
REMARK                            x       y       z     vdW  Elec       q    Type
REMARK                         _______ _______ _______ _____ _____    ______ ____
ROOT
ATOM      1  C   UNL     1      -3.889   4.731  -6.459  0.00  0.00    +0.017 C 
ATOM      2  C   UNL     1      -4.874   3.564  -6.185  0.00  0.00    +0.025 C 
ATOM      3  C   UNL     1      -4.709   3.318  -4.670  0.00  0.00    +0.088 C 
ATOM      4  N   UNL     1      -3.393   3.856  -4.281  0.00  0.00    -0.298 NA
ATOM      5  C   UNL     1      -2.730   4.397  -5.487  0.00  0.00    +0.085 C 
ATOM      6  C   UNL     1      -3.530   4.889  -3.247  0.00  0.00    +0.105 C 
ENDROOT
BRANCH   3   7
ATOM      7  C   UNL     1      -4.766   1.841  -4.381  0.00  0.00    -0.012 A 
ATOM      8  C   UNL     1      -4.455   0.923  -5.367  0.00  0.00    +0.115 A 
ATOM      9  N   UNL     1      -4.502  -0.372  -5.122  0.00  0.00    -0.263 NA
ATOM     10  C   UNL     1      -4.846  -0.842  -3.939  0.00  0.00    +0.111 A 
ATOM     11  C   UNL     1      -5.170   0.016  -2.904  0.00  0.00    +0.020 A 
ATOM     12  C   UNL     1      -5.126   1.384  -3.123  0.00  0.00    +0.008 A 
ENDBRANCH   3   7
TORSDOF 1
ENDMDL
MODEL 4
REMARK VINA RESULT:    -2.829      1.785      4.519
REMARK INTER + INTRA:          -3.209
REMARK INTER:                  -2.990
REMARK INTRA:                  -0.220
REMARK UNBOUND:                -0.215
REMARK  Name = Nicotine.pdb
REMARK  2 active torsions:
REMARK  status: ('A' for Active; 'I' for Inactive)
REMARK    1  A    between atoms: C_3  and  C_6
REMARK    2  A    between atoms: N_4  and  C_12
REMARK                            x       y       z     vdW  Elec       q    Type
REMARK                         _______ _______ _______ _____ _____    ______ ____
ROOT
ATOM      1  C   UNL     1      -5.077   1.066  -1.937  0.00  0.00    +0.017 C 
ATOM      2  C   UNL     1      -5.171   1.477  -3.430  0.00  0.00    +0.025 C 
ATOM      3  C   UNL     1      -3.899   2.327  -3.637  0.00  0.00    +0.088 C 
ATOM      4  N   UNL     1      -3.481   2.817  -2.311  0.00  0.00    -0.298 NA
ATOM      5  C   UNL     1      -4.447   2.332  -1.303  0.00  0.00    +0.085 C 
ATOM      6  C   UNL     1      -2.118   2.374  -1.991  0.00  0.00    +0.105 C 
ENDROOT
BRANCH   3   7
ATOM      7  C   UNL     1      -4.202   3.491  -4.543  0.00  0.00    -0.012 A 
ATOM      8  C   UNL     1      -3.776   4.764  -4.213  0.00  0.00    +0.115 A 
ATOM      9  N   UNL     1      -4.037   5.789  -5.002  0.00  0.00    -0.263 NA
ATOM     10  C   UNL     1      -4.710   5.644  -6.126  0.00  0.00    +0.111 A 
ATOM     11  C   UNL     1      -5.168   4.402  -6.522  0.00  0.00    +0.020 A 
ATOM     12  C   UNL     1      -4.908   3.300  -5.721  0.00  0.00    +0.008 A 
ENDBRANCH   3   7
TORSDOF 1
ENDMDL
MODEL 5
REMARK VINA RESULT:    -2.817      1.505      4.404
REMARK INTER + INTRA:          -3.197
REMARK INTER:                  -3.007
REMARK INTRA:                  -0.190
REMARK UNBOUND:                -0.215
REMARK  Name = Nicotine.pdb
REMARK  2 active torsions:
REMARK  status: ('A' for Active; 'I' for Inactive)
REMARK    1  A    between atoms: C_3  and  C_6
REMARK    2  A    between atoms: N_4  and  C_12
REMARK                            x       y       z     vdW  Elec       q    Type
REMARK                         _______ _______ _______ _____ _____    ______ ____
ROOT
ATOM      1  C   UNL     1      -3.468   3.544  -2.336  0.00  0.00    +0.017 C 
ATOM      2  C   UNL     1      -4.184   3.044  -3.618  0.00  0.00    +0.025 C 
ATOM      3  C   UNL     1      -4.895   1.760  -3.139  0.00  0.00    +0.088 C 
ATOM      4  N   UNL     1      -4.187   1.292  -1.934  0.00  0.00    -0.298 NA
ATOM      5  C   UNL     1      -3.060   2.209  -1.663  0.00  0.00    +0.085 C 
ATOM      6  C   UNL     1      -5.096   1.219  -0.783  0.00  0.00    +0.105 C 
ENDROOT
BRANCH   3   7
ATOM      7  C   UNL     1      -4.831   0.707  -4.215  0.00  0.00    -0.012 A 
ATOM      8  C   UNL     1      -4.428   1.039  -5.495  0.00  0.00    +0.115 A 
ATOM      9  N   UNL     1      -4.370   0.124  -6.442  0.00  0.00    -0.263 NA
ATOM     10  C   UNL     1      -4.690  -1.134  -6.211  0.00  0.00    +0.111 A 
ATOM     11  C   UNL     1      -5.102  -1.540  -4.956  0.00  0.00    +0.020 A 
ATOM     12  C   UNL     1      -5.171  -0.607  -3.933  0.00  0.00    +0.008 A 
ENDBRANCH   3   7
TORSDOF 1
ENDMDL
MODEL 6
REMARK VINA RESULT:    -2.805      1.588      2.099
REMARK INTER + INTRA:          -3.184
REMARK INTER:                  -2.958
REMARK INTRA:                  -0.225
REMARK UNBOUND:                -0.215
REMARK  Name = Nicotine.pdb
REMARK  2 active torsions:
REMARK  status: ('A' for Active; 'I' for Inactive)
REMARK    1  A    between atoms: C_3  and  C_6
REMARK    2  A    between atoms: N_4  and  C_12
REMARK                            x       y       z     vdW  Elec       q    Type
REMARK                         _______ _______ _______ _____ _____    ______ ____
ROOT
ATOM      1  C   UNL     1      -4.596  -1.318  -4.267  0.00  0.00    +0.017 C 
ATOM      2  C   UNL     1      -5.171  -0.193  -3.366  0.00  0.00    +0.025 C 
ATOM      3  C   UNL     1      -4.899   1.084  -4.190  0.00  0.00    +0.088 C 
ATOM      4  N   UNL     1      -3.799   0.777  -5.121  0.00  0.00    -0.298 NA
ATOM      5  C   UNL     1      -3.364  -0.618  -4.894  0.00  0.00    +0.085 C 
ATOM      6  C   UNL     1      -4.216   0.978  -6.515  0.00  0.00    +0.105 C 
ENDROOT
BRANCH   3   7
ATOM      7  C   UNL     1      -4.497   2.209  -3.272  0.00  0.00    -0.012 A 
ATOM      8  C   UNL     1      -3.994   3.388  -3.790  0.00  0.00    +0.115 A 
ATOM      9  N   UNL     1      -3.640   4.378  -2.994  0.00  0.00    -0.263 NA
ATOM     10  C   UNL     1      -3.748   4.286  -1.683  0.00  0.00    +0.111 A 
ATOM     11  C   UNL     1      -4.243   3.138  -1.093  0.00  0.00    +0.020 A 
ATOM     12  C   UNL     1      -4.631   2.078  -1.898  0.00  0.00    +0.008 A 
ENDBRANCH   3   7
TORSDOF 1
ENDMDL
MODEL 7
REMARK VINA RESULT:    -2.791      1.735      4.640
REMARK INTER + INTRA:          -3.170
REMARK INTER:                  -2.917
REMARK INTRA:                  -0.252
REMARK UNBOUND:                -0.215
REMARK  Name = Nicotine.pdb
REMARK  2 active torsions:
REMARK  status: ('A' for Active; 'I' for Inactive)
REMARK    1  A    between atoms: C_3  and  C_6
REMARK    2  A    between atoms: N_4  and  C_12
REMARK                            x       y       z     vdW  Elec       q    Type
REMARK                         _______ _______ _______ _____ _____    ______ ____
ROOT
ATOM      1  C   UNL     1      -4.257   0.681  -1.155  0.00  0.00    +0.017 C 
ATOM      2  C   UNL     1      -5.170   1.134  -2.325  0.00  0.00    +0.025 C 
ATOM      3  C   UNL     1      -4.584   0.377  -3.535  0.00  0.00    +0.088 C 
ATOM      4  N   UNL     1      -3.189   0.035  -3.203  0.00  0.00    -0.298 NA
ATOM      5  C   UNL     1      -2.882   0.566  -1.858  0.00  0.00    +0.085 C 
ATOM      6  C   UNL     1      -2.976  -1.417  -3.258  0.00  0.00    +0.105 C 
ENDROOT
BRANCH   3   7
ATOM      7  C   UNL     1      -4.620   1.258  -4.757  0.00  0.00    -0.012 A 
ATOM      8  C   UNL     1      -4.360   0.730  -6.008  0.00  0.00    +0.115 A 
ATOM      9  N   UNL     1      -4.390   1.494  -7.082  0.00  0.00    -0.263 NA
ATOM     10  C   UNL     1      -4.665   2.781  -7.010  0.00  0.00    +0.111 A 
ATOM     11  C   UNL     1      -4.936   3.380  -5.793  0.00  0.00    +0.020 A 
ATOM     12  C   UNL     1      -4.919   2.607  -4.642  0.00  0.00    +0.008 A 
ENDBRANCH   3   7
TORSDOF 1
ENDMDL
MODEL 8
REMARK VINA RESULT:    -2.742      1.413      4.726
REMARK INTER + INTRA:          -3.117
REMARK INTER:                  -2.909
REMARK INTRA:                  -0.208
REMARK UNBOUND:                -0.215
REMARK  Name = Nicotine.pdb
REMARK  2 active torsions:
REMARK  status: ('A' for Active; 'I' for Inactive)
REMARK    1  A    between atoms: C_3  and  C_6
REMARK    2  A    between atoms: N_4  and  C_12
REMARK                            x       y       z     vdW  Elec       q    Type
REMARK                         _______ _______ _______ _____ _____    ______ ____
ROOT
ATOM      1  C   UNL     1      -3.243   4.108   0.590  0.00  0.00    +0.017 C 
ATOM      2  C   UNL     1      -4.223   3.866  -0.588  0.00  0.00    +0.025 C 
ATOM      3  C   UNL     1      -4.573   2.370  -0.447  0.00  0.00    +0.088 C 
ATOM      4  N   UNL     1      -3.485   1.737   0.321  0.00  0.00    -0.298 NA
ATOM      5  C   UNL     1      -2.471   2.766   0.636  0.00  0.00    +0.085 C 
ATOM      6  C   UNL     1      -3.999   1.111   1.546  0.00  0.00    +0.105 C 
ENDROOT
BRANCH   3   7
ATOM      7  C   UNL     1      -4.677   1.736  -1.810  0.00  0.00    -0.012 A 
ATOM      8  C   UNL     1      -4.359   2.460  -2.943  0.00  0.00    +0.115 A 
ATOM      9  N   UNL     1      -4.447   1.913  -4.140  0.00  0.00    -0.263 NA
ATOM     10  C   UNL     1      -4.838   0.664  -4.304  0.00  0.00    +0.111 A 
ATOM     11  C   UNL     1      -5.171  -0.122  -3.217  0.00  0.00    +0.020 A 
ATOM     12  C   UNL     1      -5.086   0.418  -1.943  0.00  0.00    +0.008 A 
ENDBRANCH   3   7
TORSDOF 1
ENDMDL
MODEL 9
REMARK VINA RESULT:    -2.686      2.525      4.173
REMARK INTER + INTRA:          -3.059
REMARK INTER:                  -2.858
REMARK INTRA:                  -0.200
REMARK UNBOUND:                -0.215
REMARK  Name = Nicotine.pdb
REMARK  2 active torsions:
REMARK  status: ('A' for Active; 'I' for Inactive)
REMARK    1  A    between atoms: C_3  and  C_6
REMARK    2  A    between atoms: N_4  and  C_12
REMARK                            x       y       z     vdW  Elec       q    Type
REMARK                         _______ _______ _______ _____ _____    ______ ____
ROOT
ATOM      1  C   UNL     1      -2.246   5.100  -6.989  0.00  0.00    +0.017 C 
ATOM      2  C   UNL     1      -2.799   3.655  -7.106  0.00  0.00    +0.025 C 
ATOM      3  C   UNL     1      -4.174   3.753  -6.411  0.00  0.00    +0.088 C 
ATOM      4  N   UNL     1      -4.127   4.920  -5.512  0.00  0.00    -0.298 NA
ATOM      5  C   UNL     1      -2.783   5.530  -5.601  0.00  0.00    +0.085 C 
ATOM      6  C   UNL     1      -5.171   5.894  -5.858  0.00  0.00    +0.105 C 
ENDROOT
BRANCH   3   7
ATOM      7  C   UNL     1      -4.437   2.501  -5.615  0.00  0.00    -0.012 A 
ATOM      8  C   UNL     1      -4.199   1.258  -6.169  0.00  0.00    +0.115 A 
ATOM      9  N   UNL     1      -4.426   0.157  -5.478  0.00  0.00    -0.263 NA
ATOM     10  C   UNL     1      -4.885   0.196  -4.243  0.00  0.00    +0.111 A 
ATOM     11  C   UNL     1      -5.146   1.404  -3.623  0.00  0.00    +0.020 A 
ATOM     12  C   UNL     1      -4.914   2.582  -4.316  0.00  0.00    +0.008 A 
ENDBRANCH   3   7
TORSDOF 1
ENDMDL
