MODEL 1
REMARK VINA RESULT:    -3.312      0.000      0.000
REMARK INTER + INTRA:          -3.720
REMARK INTER:                  -3.506
REMARK INTRA:                  -0.214
REMARK UNBOUND:                -0.214
REMARK  Name = Nicotine.pdb
REMARK  2 active torsions:
REMARK  status: ('A' for Active; 'I' for Inactive)
REMARK    1  A    between atoms: C_3  and  C_6
REMARK    2  A    between atoms: N_4  and  C_12
REMARK                            x       y       z     vdW  Elec       q    Type
REMARK                         _______ _______ _______ _____ _____    ______ ____
ROOT
ATOM      1  C   UNL     1       0.902   4.641   1.398  0.00  0.00    +0.017 C 
ATOM      2  C   UNL     1      -0.357   4.050   2.087  0.00  0.00    +0.025 C 
ATOM      3  C   UNL     1      -1.398   4.028   0.947  0.00  0.00    +0.088 C 
ATOM      4  N   UNL     1      -0.968   5.018  -0.057  0.00  0.00    -0.298 NA
ATOM      5  C   UNL     1       0.272   5.666   0.422  0.00  0.00    +0.085 C 
ATOM      6  C   UNL     1      -0.761   4.386  -1.366  0.00  0.00    +0.105 C 
ENDROOT
BRANCH   3   7
ATOM      7  C   UNL     1      -2.755   4.398   1.485  0.00  0.00    -0.012 A 
ATOM      8  C   UNL     1      -2.870   5.250   2.568  0.00  0.00    +0.115 A 
ATOM      9  N   UNL     1      -4.054   5.579   3.045  0.00  0.00    -0.263 NA
ATOM     10  C   UNL     1      -5.169   5.114   2.516  0.00  0.00    +0.111 A 
ATOM     11  C   UNL     1      -5.133   4.258   1.431  0.00  0.00    +0.020 A 
ATOM     12  C   UNL     1      -3.906   3.894   0.898  0.00  0.00    +0.008 A 
ENDBRANCH   3   7
TORSDOF 1
ENDMDL
MODEL 2
REMARK VINA RESULT:    -3.311      1.388      2.347
REMARK INTER + INTRA:          -3.718
REMARK INTER:                  -3.472
REMARK INTRA:                  -0.246
REMARK UNBOUND:                -0.214
REMARK  Name = Nicotine.pdb
REMARK  2 active torsions:
REMARK  status: ('A' for Active; 'I' for Inactive)
REMARK    1  A    between atoms: C_3  and  C_6
REMARK    2  A    between atoms: N_4  and  C_12
REMARK                            x       y       z     vdW  Elec       q    Type
REMARK                         _______ _______ _______ _____ _____    ______ ____
ROOT
ATOM      1  C   UNL     1      -1.982   5.663  -2.118  0.00  0.00    +0.017 C 
ATOM      2  C   UNL     1      -2.864   6.331  -1.030  0.00  0.00    +0.025 C 
ATOM      3  C   UNL     1      -2.106   6.011   0.276  0.00  0.00    +0.088 C 
ATOM      4  N   UNL     1      -1.263   4.831   0.014  0.00  0.00    -0.298 NA
ATOM      5  C   UNL     1      -1.484   4.395  -1.381  0.00  0.00    +0.085 C 
ATOM      6  C   UNL     1       0.154   5.133   0.253  0.00  0.00    +0.105 C 
ENDROOT
BRANCH   3   7
ATOM      7  C   UNL     1      -3.088   5.707   1.377  0.00  0.00    -0.012 A 
ATOM      8  C   UNL     1      -2.886   6.204   2.651  0.00  0.00    +0.115 A 
ATOM      9  N   UNL     1      -3.741   5.942   3.621  0.00  0.00    -0.263 NA
ATOM     10  C   UNL     1      -4.814   5.203   3.418  0.00  0.00    +0.111 A 
ATOM     11  C   UNL     1      -5.082   4.672   2.170  0.00  0.00    +0.020 A 
ATOM     12  C   UNL     1      -4.209   4.930   1.125  0.00  0.00    +0.008 A 
ENDBRANCH   3   7
TORSDOF 1
ENDMDL
MODEL 3
REMARK VINA RESULT:    -3.281      1.808      4.328
REMARK INTER + INTRA:          -3.687
REMARK INTER:                  -3.464
REMARK INTRA:                  -0.223
REMARK UNBOUND:                -0.214
REMARK  Name = Nicotine.pdb
REMARK  2 active torsions:
REMARK  status: ('A' for Active; 'I' for Inactive)
REMARK    1  A    between atoms: C_3  and  C_6
REMARK    2  A    between atoms: N_4  and  C_12
REMARK                            x       y       z     vdW  Elec       q    Type
REMARK                         _______ _______ _______ _____ _____    ______ ____
ROOT
ATOM      1  C   UNL     1      -4.510   6.906  -0.059  0.00  0.00    +0.017 C 
ATOM      2  C   UNL     1      -3.130   6.297  -0.424  0.00  0.00    +0.025 C 
ATOM      3  C   UNL     1      -3.140   4.945   0.320  0.00  0.00    +0.088 C 
ATOM      4  N   UNL     1      -4.118   5.056   1.417  0.00  0.00    -0.298 NA
ATOM      5  C   UNL     1      -4.691   6.419   1.400  0.00  0.00    +0.085 C 
ATOM      6  C   UNL     1      -5.170   4.040   1.290  0.00  0.00    +0.105 C 
ENDROOT
BRANCH   3   7
ATOM      7  C   UNL     1      -1.771   4.657   0.879  0.00  0.00    -0.012 A 
ATOM      8  C   UNL     1      -1.613   4.348   2.217  0.00  0.00    +0.115 A 
ATOM      9  N   UNL     1      -0.418   4.095   2.714  0.00  0.00    -0.263 NA
ATOM     10  C   UNL     1       0.666   4.125   1.964  0.00  0.00    +0.111 A 
ATOM     11  C   UNL     1       0.586   4.426   0.617  0.00  0.00    +0.020 A 
ATOM     12  C   UNL     1      -0.654   4.693   0.058  0.00  0.00    +0.008 A 
ENDBRANCH   3   7
TORSDOF 1
ENDMDL
MODEL 4
REMARK VINA RESULT:    -3.222      2.027      5.071
REMARK INTER + INTRA:          -3.624
REMARK INTER:                  -3.456
REMARK INTRA:                  -0.168
REMARK UNBOUND:                -0.214
REMARK  Name = Nicotine.pdb
REMARK  2 active torsions:
REMARK  status: ('A' for Active; 'I' for Inactive)
REMARK    1  A    between atoms: C_3  and  C_6
REMARK    2  A    between atoms: N_4  and  C_12
REMARK                            x       y       z     vdW  Elec       q    Type
REMARK                         _______ _______ _______ _____ _____    ______ ____
ROOT
ATOM      1  C   UNL     1      -2.684   4.446   1.291  0.00  0.00    +0.017 C 
ATOM      2  C   UNL     1      -1.418   4.125   2.128  0.00  0.00    +0.025 C 
ATOM      3  C   UNL     1      -0.287   4.795   1.318  0.00  0.00    +0.088 C 
ATOM      4  N   UNL     1      -0.770   4.941  -0.067  0.00  0.00    -0.298 NA
ATOM      5  C   UNL     1      -2.131   4.371  -0.154  0.00  0.00    +0.085 C 
ATOM      6  C   UNL     1      -0.761   6.349  -0.483  0.00  0.00    +0.105 C 
ENDROOT
BRANCH   3   7
ATOM      7  C   UNL     1       0.945   3.929   1.345  0.00  0.00    -0.012 A 
ATOM      8  C   UNL     1       1.012   2.784   0.574  0.00  0.00    +0.115 A 
ATOM      9  N   UNL     1       2.087   2.021   0.591  0.00  0.00    -0.263 NA
ATOM     10  C   UNL     1       3.133   2.314   1.338  0.00  0.00    +0.111 A 
ATOM     11  C   UNL     1       3.140   3.444   2.135  0.00  0.00    +0.020 A 
ATOM     12  C   UNL     1       2.029   4.273   2.138  0.00  0.00    +0.008 A 
ENDBRANCH   3   7
TORSDOF 1
ENDMDL
MODEL 5
REMARK VINA RESULT:    -3.118      1.324      2.287
REMARK INTER + INTRA:          -3.514
REMARK INTER:                  -3.332
REMARK INTRA:                  -0.182
REMARK UNBOUND:                -0.214
REMARK  Name = Nicotine.pdb
REMARK  2 active torsions:
REMARK  status: ('A' for Active; 'I' for Inactive)
REMARK    1  A    between atoms: C_3  and  C_6
REMARK    2  A    between atoms: N_4  and  C_12
REMARK                            x       y       z     vdW  Elec       q    Type
REMARK                         _______ _______ _______ _____ _____    ______ ____
ROOT
ATOM      1  C   UNL     1       0.128   5.152  -1.101  0.00  0.00    +0.017 C 
ATOM      2  C   UNL     1      -1.178   5.743  -0.508  0.00  0.00    +0.025 C 
ATOM      3  C   UNL     1      -1.179   5.203   0.938  0.00  0.00    +0.088 C 
ATOM      4  N   UNL     1      -0.322   4.003   0.956  0.00  0.00    -0.298 NA
ATOM      5  C   UNL     1       0.184   3.765  -0.413  0.00  0.00    +0.085 C 
ATOM      6  C   UNL     1       0.785   4.160   1.908  0.00  0.00    +0.105 C 
ENDROOT
BRANCH   3   7
ATOM      7  C   UNL     1      -2.582   4.839   1.349  0.00  0.00    -0.012 A 
ATOM      8  C   UNL     1      -3.305   3.912   0.622  0.00  0.00    +0.115 A 
ATOM      9  N   UNL     1      -4.534   3.587   0.974  0.00  0.00    -0.263 NA
ATOM     10  C   UNL     1      -5.119   4.128   2.025  0.00  0.00    +0.111 A 
ATOM     11  C   UNL     1      -4.457   5.062   2.801  0.00  0.00    +0.020 A 
ATOM     12  C   UNL     1      -3.162   5.424   2.463  0.00  0.00    +0.008 A 
ENDBRANCH   3   7
TORSDOF 1
ENDMDL
MODEL 6
REMARK VINA RESULT:    -3.116      2.660      5.619
REMARK INTER + INTRA:          -3.513
REMARK INTER:                  -3.307
REMARK INTRA:                  -0.205
REMARK UNBOUND:                -0.214
REMARK  Name = Nicotine.pdb
REMARK  2 active torsions:
REMARK  status: ('A' for Active; 'I' for Inactive)
REMARK    1  A    between atoms: C_3  and  C_6
REMARK    2  A    between atoms: N_4  and  C_12
REMARK                            x       y       z     vdW  Elec       q    Type
REMARK                         _______ _______ _______ _____ _____    ______ ____
ROOT
ATOM      1  C   UNL     1      -0.598   4.528  -0.953  0.00  0.00    +0.017 C 
ATOM      2  C   UNL     1       0.604   3.585  -0.682  0.00  0.00    +0.025 C 
ATOM      3  C   UNL     1       0.528   3.354   0.842  0.00  0.00    +0.088 C 
ATOM      4  N   UNL     1      -0.231   4.479   1.417  0.00  0.00    -0.298 NA
ATOM      5  C   UNL     1      -0.603   5.404   0.325  0.00  0.00    +0.085 C 
ATOM      6  C   UNL     1      -1.422   4.001   2.131  0.00  0.00    +0.105 C 
ENDROOT
BRANCH   3   7
ATOM      7  C   UNL     1       1.916   3.319   1.425  0.00  0.00    -0.012 A 
ATOM      8  C   UNL     1       2.382   4.375   2.186  0.00  0.00    +0.115 A 
ATOM      9  N   UNL     1       3.596   4.352   2.701  0.00  0.00    -0.263 NA
ATOM     10  C   UNL     1       4.409   3.332   2.513  0.00  0.00    +0.111 A 
ATOM     11  C   UNL     1       4.013   2.240   1.764  0.00  0.00    +0.020 A 
ATOM     12  C   UNL     1       2.741   2.225   1.211  0.00  0.00    +0.008 A 
ENDBRANCH   3   7
TORSDOF 1
ENDMDL
MODEL 7
REMARK VINA RESULT:    -3.100      1.166      4.613
REMARK INTER + INTRA:          -3.495
REMARK INTER:                  -3.299
REMARK INTRA:                  -0.196
REMARK UNBOUND:                -0.214
REMARK  Name = Nicotine.pdb
REMARK  2 active torsions:
REMARK  status: ('A' for Active; 'I' for Inactive)
REMARK    1  A    between atoms: C_3  and  C_6
REMARK    2  A    between atoms: N_4  and  C_12
REMARK                            x       y       z     vdW  Elec       q    Type
REMARK                         _______ _______ _______ _____ _____    ______ ____
ROOT
ATOM      1  C   UNL     1      -5.111   4.601   0.974  0.00  0.00    +0.017 C 
ATOM      2  C   UNL     1      -3.878   3.659   0.961  0.00  0.00    +0.025 C 
ATOM      3  C   UNL     1      -2.809   4.476   1.718  0.00  0.00    +0.088 C 
ATOM      4  N   UNL     1      -3.200   5.894   1.630  0.00  0.00    -0.298 NA
ATOM      5  C   UNL     1      -4.443   5.992   0.836  0.00  0.00    +0.085 C 
ATOM      6  C   UNL     1      -3.382   6.474   2.967  0.00  0.00    +0.105 C 
ENDROOT
BRANCH   3   7
ATOM      7  C   UNL     1      -1.461   4.274   1.076  0.00  0.00    -0.012 A 
ATOM      8  C   UNL     1      -1.311   4.401  -0.292  0.00  0.00    +0.115 A 
ATOM      9  N   UNL     1      -0.135   4.226  -0.861  0.00  0.00    -0.263 NA
ATOM     10  C   UNL     1       0.938   3.925  -0.157  0.00  0.00    +0.111 A 
ATOM     11  C   UNL     1       0.866   3.782   1.216  0.00  0.00    +0.020 A 
ATOM     12  C   UNL     1      -0.353   3.963   1.851  0.00  0.00    +0.008 A 
ENDBRANCH   3   7
TORSDOF 1
ENDMDL
MODEL 8
REMARK VINA RESULT:    -3.095      1.869      4.377
REMARK INTER + INTRA:          -3.490
REMARK INTER:                  -3.241
REMARK INTRA:                  -0.248
REMARK UNBOUND:                -0.214
REMARK  Name = Nicotine.pdb
REMARK  2 active torsions:
REMARK  status: ('A' for Active; 'I' for Inactive)
REMARK    1  A    between atoms: C_3  and  C_6
REMARK    2  A    between atoms: N_4  and  C_12
REMARK                            x       y       z     vdW  Elec       q    Type
REMARK                         _______ _______ _______ _____ _____    ______ ____
ROOT
ATOM      1  C   UNL     1      -4.163   4.833   2.383  0.00  0.00    +0.017 C 
ATOM      2  C   UNL     1      -4.148   4.552   0.857  0.00  0.00    +0.025 C 
ATOM      3  C   UNL     1      -2.647   4.349   0.557  0.00  0.00    +0.088 C 
ATOM      4  N   UNL     1      -1.892   5.016   1.632  0.00  0.00    -0.298 NA
ATOM      5  C   UNL     1      -2.854   5.641   2.565  0.00  0.00    +0.085 C 
ATOM      6  C   UNL     1      -1.020   4.064   2.333  0.00  0.00    +0.105 C 
ENDROOT
BRANCH   3   7
ATOM      7  C   UNL     1      -2.303   4.967  -0.773  0.00  0.00    -0.012 A 
ATOM      8  C   UNL     1      -1.433   4.328  -1.637  0.00  0.00    +0.115 A 
ATOM      9  N   UNL     1      -1.126   4.862  -2.803  0.00  0.00    -0.263 NA
ATOM     10  C   UNL     1      -1.630   6.017  -3.190  0.00  0.00    +0.111 A 
ATOM     11  C   UNL     1      -2.507   6.714  -2.380  0.00  0.00    +0.020 A 
ATOM     12  C   UNL     1      -2.857   6.181  -1.149  0.00  0.00    +0.008 A 
ENDBRANCH   3   7
TORSDOF 1
ENDMDL
MODEL 9
REMARK VINA RESULT:    -3.053      1.769      2.608
REMARK INTER + INTRA:          -3.446
REMARK INTER:                  -3.227
REMARK INTRA:                  -0.219
REMARK UNBOUND:                -0.214
REMARK  Name = Nicotine.pdb
REMARK  2 active torsions:
REMARK  status: ('A' for Active; 'I' for Inactive)
REMARK    1  A    between atoms: C_3  and  C_6
REMARK    2  A    between atoms: N_4  and  C_12
REMARK                            x       y       z     vdW  Elec       q    Type
REMARK                         _______ _______ _______ _____ _____    ______ ____
ROOT
ATOM      1  C   UNL     1       2.854   4.197   1.425  0.00  0.00    +0.017 C 
ATOM      2  C   UNL     1       1.465   4.085   2.107  0.00  0.00    +0.025 C 
ATOM      3  C   UNL     1       0.594   3.432   1.014  0.00  0.00    +0.088 C 
ATOM      4  N   UNL     1       1.244   3.700  -0.282  0.00  0.00    -0.298 NA
ATOM      5  C   UNL     1       2.460   4.507  -0.040  0.00  0.00    +0.085 C 
ATOM      6  C   UNL     1       1.572   2.448  -0.976  0.00  0.00    +0.105 C 
ENDROOT
BRANCH   3   7
ATOM      7  C   UNL     1      -0.787   4.036   1.030  0.00  0.00    -0.012 A 
ATOM      8  C   UNL     1      -1.399   4.414  -0.150  0.00  0.00    +0.115 A 
ATOM      9  N   UNL     1      -2.607   4.943  -0.145  0.00  0.00    -0.263 NA
ATOM     10  C   UNL     1      -3.275   5.133   0.975  0.00  0.00    +0.111 A 
ATOM     11  C   UNL     1      -2.727   4.780   2.195  0.00  0.00    +0.020 A 
ATOM     12  C   UNL     1      -1.461   4.216   2.228  0.00  0.00    +0.008 A 
ENDBRANCH   3   7
TORSDOF 1
ENDMDL
MODEL 10
REMARK VINA RESULT:    -2.989      1.623      2.852
REMARK INTER + INTRA:          -3.378
REMARK INTER:                  -3.133
REMARK INTRA:                  -0.245
REMARK UNBOUND:                -0.214
REMARK  Name = Nicotine.pdb
REMARK  2 active torsions:
REMARK  status: ('A' for Active; 'I' for Inactive)
REMARK    1  A    between atoms: C_3  and  C_6
REMARK    2  A    between atoms: N_4  and  C_12
REMARK                            x       y       z     vdW  Elec       q    Type
REMARK                         _______ _______ _______ _____ _____    ______ ____
ROOT
ATOM      1  C   UNL     1      -1.435   4.939  -3.375  0.00  0.00    +0.017 C 
ATOM      2  C   UNL     1      -2.108   5.730  -2.222  0.00  0.00    +0.025 C 
ATOM      3  C   UNL     1      -1.179   5.452  -1.022  0.00  0.00    +0.088 C 
ATOM      4  N   UNL     1      -0.446   4.208  -1.316  0.00  0.00    -0.298 NA
ATOM      5  C   UNL     1      -0.897   3.694  -2.626  0.00  0.00    +0.085 C 
ATOM      6  C   UNL     1       1.005   4.437  -1.310  0.00  0.00    +0.105 C 
ENDROOT
BRANCH   3   7
ATOM      7  C   UNL     1      -1.998   5.283   0.232  0.00  0.00    -0.012 A 
ATOM      8  C   UNL     1      -1.377   5.110   1.454  0.00  0.00    +0.115 A 
ATOM      9  N   UNL     1      -2.086   4.961   2.556  0.00  0.00    -0.263 NA
ATOM     10  C   UNL     1      -3.405   4.970   2.538  0.00  0.00    +0.111 A 
ATOM     11  C   UNL     1      -4.095   5.139   1.352  0.00  0.00    +0.020 A 
ATOM     12  C   UNL     1      -3.383   5.304   0.174  0.00  0.00    +0.008 A 
ENDBRANCH   3   7
TORSDOF 1
ENDMDL
