MODEL 1
REMARK VINA RESULT:    -2.826      0.000      0.000
REMARK INTER + INTRA:          -3.246
REMARK INTER:                  -2.991
REMARK INTRA:                  -0.255
REMARK UNBOUND:                -0.255
REMARK  Name = Nicotine.pdb
REMARK  2 active torsions:
REMARK  status: ('A' for Active; 'I' for Inactive)
REMARK    1  A    between atoms: C_3  and  C_6
REMARK    2  A    between atoms: N_4  and  C_12
REMARK                            x       y       z     vdW  Elec       q    Type
REMARK                         _______ _______ _______ _____ _____    ______ ____
ROOT
ATOM      1  C   UNL     1       9.704   5.314  -3.774  0.00  0.00    +0.017 C 
ATOM      2  C   UNL     1      10.216   3.854  -3.656  0.00  0.00    +0.025 C 
ATOM      3  C   UNL     1      10.528   3.477  -5.120  0.00  0.00    +0.088 C 
ATOM      4  N   UNL     1       9.736   4.374  -5.981  0.00  0.00    -0.298 NA
ATOM      5  C   UNL     1       8.934   5.268  -5.118  0.00  0.00    +0.085 C 
ATOM      6  C   UNL     1      10.605   5.148  -6.877  0.00  0.00    +0.105 C 
ENDROOT
BRANCH   3   7
ATOM      7  C   UNL     1      10.137   2.044  -5.374  0.00  0.00    -0.012 A 
ATOM      8  C   UNL     1      10.585   1.387  -6.505  0.00  0.00    +0.115 A 
ATOM      9  N   UNL     1      10.247   0.133  -6.735  0.00  0.00    -0.263 NA
ATOM     10  C   UNL     1       9.476  -0.540  -5.905  0.00  0.00    +0.111 A 
ATOM     11  C   UNL     1       8.990   0.051  -4.753  0.00  0.00    +0.020 A 
ATOM     12  C   UNL     1       9.328   1.366  -4.475  0.00  0.00    +0.008 A 
ENDBRANCH   3   7
TORSDOF 1
ENDMDL
MODEL 2
REMARK VINA RESULT:    -2.744      2.161      2.900
REMARK INTER + INTRA:          -3.159
REMARK INTER:                  -2.945
REMARK INTRA:                  -0.214
REMARK UNBOUND:                -0.255
REMARK  Name = Nicotine.pdb
REMARK  2 active torsions:
REMARK  status: ('A' for Active; 'I' for Inactive)
REMARK    1  A    between atoms: C_3  and  C_6
REMARK    2  A    between atoms: N_4  and  C_12
REMARK                            x       y       z     vdW  Elec       q    Type
REMARK                         _______ _______ _______ _____ _____    ______ ____
ROOT
ATOM      1  C   UNL     1       5.611   4.356  -3.960  0.00  0.00    +0.017 C 
ATOM      2  C   UNL     1       6.940   3.613  -3.663  0.00  0.00    +0.025 C 
ATOM      3  C   UNL     1       7.919   4.233  -4.682  0.00  0.00    +0.088 C 
ATOM      4  N   UNL     1       7.110   4.793  -5.780  0.00  0.00    -0.298 NA
ATOM      5  C   UNL     1       5.684   4.526  -5.498  0.00  0.00    +0.085 C 
ATOM      6  C   UNL     1       7.357   6.233  -5.934  0.00  0.00    +0.105 C 
ENDROOT
BRANCH   3   7
ATOM      7  C   UNL     1       8.844   3.170  -5.216  0.00  0.00    -0.012 A 
ATOM      8  C   UNL     1       8.412   1.863  -5.334  0.00  0.00    +0.115 A 
ATOM      9  N   UNL     1       9.215   0.926  -5.800  0.00  0.00    -0.263 NA
ATOM     10  C   UNL     1      10.452   1.195  -6.170  0.00  0.00    +0.111 A 
ATOM     11  C   UNL     1      10.953   2.480  -6.082  0.00  0.00    +0.020 A 
ATOM     12  C   UNL     1      10.137   3.492  -5.601  0.00  0.00    +0.008 A 
ENDBRANCH   3   7
TORSDOF 1
ENDMDL
MODEL 3
REMARK VINA RESULT:    -2.648      1.337      4.440
REMARK INTER + INTRA:          -3.057
REMARK INTER:                  -2.844
REMARK INTRA:                  -0.214
REMARK UNBOUND:                -0.255
REMARK  Name = Nicotine.pdb
REMARK  2 active torsions:
REMARK  status: ('A' for Active; 'I' for Inactive)
REMARK    1  A    between atoms: C_3  and  C_6
REMARK    2  A    between atoms: N_4  and  C_12
REMARK                            x       y       z     vdW  Elec       q    Type
REMARK                         _______ _______ _______ _____ _____    ______ ____
ROOT
ATOM      1  C   UNL     1       9.945  -0.669  -5.887  0.00  0.00    +0.017 C 
ATOM      2  C   UNL     1      10.511   0.658  -6.458  0.00  0.00    +0.025 C 
ATOM      3  C   UNL     1      10.607   1.560  -5.210  0.00  0.00    +0.088 C 
ATOM      4  N   UNL     1       9.670   1.022  -4.208  0.00  0.00    -0.298 NA
ATOM      5  C   UNL     1       8.983  -0.152  -4.789  0.00  0.00    +0.085 C 
ATOM      6  C   UNL     1      10.371   0.662  -2.969  0.00  0.00    +0.105 C 
ENDROOT
BRANCH   3   7
ATOM      7  C   UNL     1      10.223   2.972  -5.567  0.00  0.00    -0.012 A 
ATOM      8  C   UNL     1      10.954   3.680  -6.503  0.00  0.00    +0.115 A 
ATOM      9  N   UNL     1      10.624   4.917  -6.821  0.00  0.00    -0.263 NA
ATOM     10  C   UNL     1       9.595   5.524  -6.266  0.00  0.00    +0.111 A 
ATOM     11  C   UNL     1       8.817   4.880  -5.322  0.00  0.00    +0.020 A 
ATOM     12  C   UNL     1       9.130   3.577  -4.966  0.00  0.00    +0.008 A 
ENDBRANCH   3   7
TORSDOF 1
ENDMDL
MODEL 4
REMARK VINA RESULT:    -2.518      2.910      4.068
REMARK INTER + INTRA:          -2.920
REMARK INTER:                  -2.690
REMARK INTRA:                  -0.230
REMARK UNBOUND:                -0.255
REMARK  Name = Nicotine.pdb
REMARK  2 active torsions:
REMARK  status: ('A' for Active; 'I' for Inactive)
REMARK    1  A    between atoms: C_3  and  C_6
REMARK    2  A    between atoms: N_4  and  C_12
REMARK                            x       y       z     vdW  Elec       q    Type
REMARK                         _______ _______ _______ _____ _____    ______ ____
ROOT
ATOM      1  C   UNL     1       4.354   3.446  -5.992  0.00  0.00    +0.017 C 
ATOM      2  C   UNL     1       5.566   2.885  -5.202  0.00  0.00    +0.025 C 
ATOM      3  C   UNL     1       6.505   4.106  -5.095  0.00  0.00    +0.088 C 
ATOM      4  N   UNL     1       6.142   5.032  -6.183  0.00  0.00    -0.298 NA
ATOM      5  C   UNL     1       5.044   4.430  -6.969  0.00  0.00    +0.085 C 
ATOM      6  C   UNL     1       5.751   6.344  -5.650  0.00  0.00    +0.105 C 
ENDROOT
BRANCH   3   7
ATOM      7  C   UNL     1       7.937   3.666  -5.251  0.00  0.00    -0.012 A 
ATOM      8  C   UNL     1       8.950   4.602  -5.337  0.00  0.00    +0.115 A 
ATOM      9  N   UNL     1      10.207   4.225  -5.473  0.00  0.00    -0.263 NA
ATOM     10  C   UNL     1      10.547   2.953  -5.532  0.00  0.00    +0.111 A 
ATOM     11  C   UNL     1       9.588   1.960  -5.451  0.00  0.00    +0.020 A 
ATOM     12  C   UNL     1       8.257   2.318  -5.303  0.00  0.00    +0.008 A 
ENDBRANCH   3   7
TORSDOF 1
ENDMDL
MODEL 5
REMARK VINA RESULT:    -2.466      2.021      2.803
REMARK INTER + INTRA:          -2.865
REMARK INTER:                  -2.632
REMARK INTRA:                  -0.233
REMARK UNBOUND:                -0.255
REMARK  Name = Nicotine.pdb
REMARK  2 active torsions:
REMARK  status: ('A' for Active; 'I' for Inactive)
REMARK    1  A    between atoms: C_3  and  C_6
REMARK    2  A    between atoms: N_4  and  C_12
REMARK                            x       y       z     vdW  Elec       q    Type
REMARK                         _______ _______ _______ _____ _____    ______ ____
ROOT
ATOM      1  C   UNL     1       6.363   5.953  -3.688  0.00  0.00    +0.017 C 
ATOM      2  C   UNL     1       7.749   5.265  -3.575  0.00  0.00    +0.025 C 
ATOM      3  C   UNL     1       8.286   5.326  -5.021  0.00  0.00    +0.088 C 
ATOM      4  N   UNL     1       7.122   5.476  -5.913  0.00  0.00    -0.298 NA
ATOM      5  C   UNL     1       5.895   5.485  -5.089  0.00  0.00    +0.085 C 
ATOM      6  C   UNL     1       7.227   6.702  -6.715  0.00  0.00    +0.105 C 
ENDROOT
BRANCH   3   7
ATOM      7  C   UNL     1       9.024   4.054  -5.348  0.00  0.00    -0.012 A 
ATOM      8  C   UNL     1      10.297   4.102  -5.885  0.00  0.00    +0.115 A 
ATOM      9  N   UNL     1      10.950   2.994  -6.174  0.00  0.00    -0.263 NA
ATOM     10  C   UNL     1      10.421   1.804  -5.966  0.00  0.00    +0.111 A 
ATOM     11  C   UNL     1       9.152   1.677  -5.432  0.00  0.00    +0.020 A 
ATOM     12  C   UNL     1       8.438   2.820  -5.110  0.00  0.00    +0.008 A 
ENDBRANCH   3   7
TORSDOF 1
ENDMDL
MODEL 6
REMARK VINA RESULT:    -2.448      1.406      4.832
REMARK INTER + INTRA:          -2.846
REMARK INTER:                  -2.637
REMARK INTRA:                  -0.209
REMARK UNBOUND:                -0.255
REMARK  Name = Nicotine.pdb
REMARK  2 active torsions:
REMARK  status: ('A' for Active; 'I' for Inactive)
REMARK    1  A    between atoms: C_3  and  C_6
REMARK    2  A    between atoms: N_4  and  C_12
REMARK                            x       y       z     vdW  Elec       q    Type
REMARK                         _______ _______ _______ _____ _____    ______ ____
ROOT
ATOM      1  C   UNL     1       9.197  -1.846  -3.681  0.00  0.00    +0.017 C 
ATOM      2  C   UNL     1       8.559  -0.441  -3.845  0.00  0.00    +0.025 C 
ATOM      3  C   UNL     1       8.869  -0.089  -5.315  0.00  0.00    +0.088 C 
ATOM      4  N   UNL     1      10.026  -0.905  -5.725  0.00  0.00    -0.298 NA
ATOM      5  C   UNL     1      10.458  -1.722  -4.572  0.00  0.00    +0.085 C 
ATOM      6  C   UNL     1       9.692  -1.753  -6.877  0.00  0.00    +0.105 C 
ENDROOT
BRANCH   3   7
ATOM      7  C   UNL     1       9.205   1.375  -5.432  0.00  0.00    -0.012 A 
ATOM      8  C   UNL     1       8.214   2.331  -5.316  0.00  0.00    +0.115 A 
ATOM      9  N   UNL     1       8.499   3.615  -5.417  0.00  0.00    -0.263 NA
ATOM     10  C   UNL     1       9.730   4.036  -5.630  0.00  0.00    +0.111 A 
ATOM     11  C   UNL     1      10.774   3.139  -5.756  0.00  0.00    +0.020 A 
ATOM     12  C   UNL     1      10.513   1.781  -5.651  0.00  0.00    +0.008 A 
ENDBRANCH   3   7
TORSDOF 1
ENDMDL
MODEL 7
REMARK VINA RESULT:    -2.447      3.039      4.508
REMARK INTER + INTRA:          -2.845
REMARK INTER:                  -2.589
REMARK INTRA:                  -0.256
REMARK UNBOUND:                -0.255
REMARK  Name = Nicotine.pdb
REMARK  2 active torsions:
REMARK  status: ('A' for Active; 'I' for Inactive)
REMARK    1  A    between atoms: C_3  and  C_6
REMARK    2  A    between atoms: N_4  and  C_12
REMARK                            x       y       z     vdW  Elec       q    Type
REMARK                         _______ _______ _______ _____ _____    ______ ____
ROOT
ATOM      1  C   UNL     1       9.829   5.525  -4.383  0.00  0.00    +0.017 C 
ATOM      2  C   UNL     1       8.303   5.463  -4.111  0.00  0.00    +0.025 C 
ATOM      3  C   UNL     1       7.902   4.090  -4.691  0.00  0.00    +0.088 C 
ATOM      4  N   UNL     1       8.932   3.714  -5.676  0.00  0.00    -0.298 NA
ATOM      5  C   UNL     1       9.933   4.800  -5.748  0.00  0.00    +0.085 C 
ATOM      6  C   UNL     1       9.564   2.438  -5.316  0.00  0.00    +0.105 C 
ENDROOT
BRANCH   3   7
ATOM      7  C   UNL     1       6.559   4.191  -5.365  0.00  0.00    -0.012 A 
ATOM      8  C   UNL     1       5.779   3.064  -5.542  0.00  0.00    +0.115 A 
ATOM      9  N   UNL     1       4.601   3.144  -6.131  0.00  0.00    -0.263 NA
ATOM     10  C   UNL     1       4.124   4.291  -6.572  0.00  0.00    +0.111 A 
ATOM     11  C   UNL     1       4.847   5.460  -6.430  0.00  0.00    +0.020 A 
ATOM     12  C   UNL     1       6.086   5.416  -5.811  0.00  0.00    +0.008 A 
ENDBRANCH   3   7
TORSDOF 1
ENDMDL
MODEL 8
REMARK VINA RESULT:    -2.440      3.192      4.390
REMARK INTER + INTRA:          -2.838
REMARK INTER:                  -2.597
REMARK INTRA:                  -0.241
REMARK UNBOUND:                -0.255
REMARK  Name = Nicotine.pdb
REMARK  2 active torsions:
REMARK  status: ('A' for Active; 'I' for Inactive)
REMARK    1  A    between atoms: C_3  and  C_6
REMARK    2  A    between atoms: N_4  and  C_12
REMARK                            x       y       z     vdW  Elec       q    Type
REMARK                         _______ _______ _______ _____ _____    ______ ____
ROOT
ATOM      1  C   UNL     1       4.417   3.277  -4.412  0.00  0.00    +0.017 C 
ATOM      2  C   UNL     1       5.525   3.071  -5.478  0.00  0.00    +0.025 C 
ATOM      3  C   UNL     1       6.538   2.160  -4.753  0.00  0.00    +0.088 C 
ATOM      4  N   UNL     1       6.324   2.333  -3.305  0.00  0.00    -0.298 NA
ATOM      5  C   UNL     1       5.246   3.325  -3.104  0.00  0.00    +0.085 C 
ATOM      6  C   UNL     1       5.990   1.055  -2.665  0.00  0.00    +0.105 C 
ENDROOT
BRANCH   3   7
ATOM      7  C   UNL     1       7.943   2.565  -5.117  0.00  0.00    -0.012 A 
ATOM      8  C   UNL     1       8.881   1.608  -5.454  0.00  0.00    +0.115 A 
ATOM      9  N   UNL     1      10.113   1.954  -5.774  0.00  0.00    -0.263 NA
ATOM     10  C   UNL     1      10.498   3.215  -5.785  0.00  0.00    +0.111 A 
ATOM     11  C   UNL     1       9.615   4.228  -5.460  0.00  0.00    +0.020 A 
ATOM     12  C   UNL     1       8.310   3.902  -5.124  0.00  0.00    +0.008 A 
ENDBRANCH   3   7
TORSDOF 1
ENDMDL
MODEL 9
REMARK VINA RESULT:    -2.405      2.698      3.344
REMARK INTER + INTRA:          -2.801
REMARK INTER:                  -2.599
REMARK INTRA:                  -0.202
REMARK UNBOUND:                -0.255
REMARK  Name = Nicotine.pdb
REMARK  2 active torsions:
REMARK  status: ('A' for Active; 'I' for Inactive)
REMARK    1  A    between atoms: C_3  and  C_6
REMARK    2  A    between atoms: N_4  and  C_12
REMARK                            x       y       z     vdW  Elec       q    Type
REMARK                         _______ _______ _______ _____ _____    ______ ____
ROOT
ATOM      1  C   UNL     1       5.987   3.883  -2.881  0.00  0.00    +0.017 C 
ATOM      2  C   UNL     1       7.439   4.114  -3.375  0.00  0.00    +0.025 C 
ATOM      3  C   UNL     1       7.371   3.699  -4.860  0.00  0.00    +0.088 C 
ATOM      4  N   UNL     1       6.212   2.801  -5.010  0.00  0.00    -0.298 NA
ATOM      5  C   UNL     1       5.579   2.623  -3.686  0.00  0.00    +0.085 C 
ATOM      6  C   UNL     1       5.252   3.337  -5.985  0.00  0.00    +0.105 C 
ENDROOT
BRANCH   3   7
ATOM      7  C   UNL     1       8.634   2.977  -5.250  0.00  0.00    -0.012 A 
ATOM      8  C   UNL     1       9.782   3.686  -5.548  0.00  0.00    +0.115 A 
ATOM      9  N   UNL     1      10.892   3.062  -5.889  0.00  0.00    -0.263 NA
ATOM     10  C   UNL     1      10.954   1.747  -5.961  0.00  0.00    +0.111 A 
ATOM     11  C   UNL     1       9.846   0.970  -5.676  0.00  0.00    +0.020 A 
ATOM     12  C   UNL     1       8.662   1.592  -5.308  0.00  0.00    +0.008 A 
ENDBRANCH   3   7
TORSDOF 1
ENDMDL
MODEL 10
REMARK VINA RESULT:    -2.344      2.006      3.148
REMARK INTER + INTRA:          -2.736
REMARK INTER:                  -2.550
REMARK INTRA:                  -0.185
REMARK UNBOUND:                -0.255
REMARK  Name = Nicotine.pdb
REMARK  2 active torsions:
REMARK  status: ('A' for Active; 'I' for Inactive)
REMARK    1  A    between atoms: C_3  and  C_6
REMARK    2  A    between atoms: N_4  and  C_12
REMARK                            x       y       z     vdW  Elec       q    Type
REMARK                         _______ _______ _______ _____ _____    ______ ____
ROOT
ATOM      1  C   UNL     1       6.855   2.334  -3.935  0.00  0.00    +0.017 C 
ATOM      2  C   UNL     1       7.526   0.956  -3.691  0.00  0.00    +0.025 C 
ATOM      3  C   UNL     1       8.829   1.054  -4.513  0.00  0.00    +0.088 C 
ATOM      4  N   UNL     1       8.620   2.090  -5.541  0.00  0.00    -0.298 NA
ATOM      5  C   UNL     1       7.244   2.615  -5.407  0.00  0.00    +0.085 C 
ATOM      6  C   UNL     1       9.610   3.166  -5.413  0.00  0.00    +0.105 C 
ENDROOT
BRANCH   3   7
ATOM      7  C   UNL     1       9.121  -0.270  -5.169  0.00  0.00    -0.012 A 
ATOM      8  C   UNL     1       8.575  -1.436  -4.666  0.00  0.00    +0.115 A 
ATOM      9  N   UNL     1       8.826  -2.599  -5.235  0.00  0.00    -0.263 NA
ATOM     10  C   UNL     1       9.602  -2.698  -6.296  0.00  0.00    +0.111 A 
ATOM     11  C   UNL     1      10.183  -1.576  -6.855  0.00  0.00    +0.020 A 
ATOM     12  C   UNL     1       9.938  -0.335  -6.288  0.00  0.00    +0.008 A 
ENDBRANCH   3   7
TORSDOF 1
ENDMDL
