MODEL 1
REMARK VINA RESULT:    -4.463      0.000      0.000
REMARK INTER + INTRA:          -4.936
REMARK INTER:                  -4.723
REMARK INTRA:                  -0.212
REMARK UNBOUND:                -0.212
REMARK  Name = Nicotine.pdb
REMARK  2 active torsions:
REMARK  status: ('A' for Active; 'I' for Inactive)
REMARK    1  A    between atoms: C_3  and  C_6
REMARK    2  A    between atoms: N_4  and  C_12
REMARK                            x       y       z     vdW  Elec       q    Type
REMARK                         _______ _______ _______ _____ _____    ______ ____
ROOT
ATOM      1  C   UNL     1       0.062  -3.858   4.340  0.00  0.00    +0.017 C 
ATOM      2  C   UNL     1      -0.282  -4.515   2.977  0.00  0.00    +0.025 C 
ATOM      3  C   UNL     1       1.034  -5.222   2.591  0.00  0.00    +0.088 C 
ATOM      4  N   UNL     1       2.122  -4.554   3.327  0.00  0.00    -0.298 NA
ATOM      5  C   UNL     1       1.543  -3.454   4.128  0.00  0.00    +0.085 C 
ATOM      6  C   UNL     1       2.842  -5.506   4.183  0.00  0.00    +0.105 C 
ENDROOT
BRANCH   3   7
ATOM      7  C   UNL     1       1.267  -5.099   1.107  0.00  0.00    -0.012 A 
ATOM      8  C   UNL     1       0.479  -4.258   0.344  0.00  0.00    +0.115 A 
ATOM      9  N   UNL     1       0.675  -4.144  -0.955  0.00  0.00    -0.263 NA
ATOM     10  C   UNL     1       1.622  -4.821  -1.575  0.00  0.00    +0.111 A 
ATOM     11  C   UNL     1       2.450  -5.680  -0.877  0.00  0.00    +0.020 A 
ATOM     12  C   UNL     1       2.276  -5.822   0.491  0.00  0.00    +0.008 A 
ENDBRANCH   3   7
TORSDOF 1
ENDMDL
MODEL 2
REMARK VINA RESULT:    -4.457      1.350      4.851
REMARK INTER + INTRA:          -4.929
REMARK INTER:                  -4.729
REMARK INTRA:                  -0.200
REMARK UNBOUND:                -0.212
REMARK  Name = Nicotine.pdb
REMARK  2 active torsions:
REMARK  status: ('A' for Active; 'I' for Inactive)
REMARK    1  A    between atoms: C_3  and  C_6
REMARK    2  A    between atoms: N_4  and  C_12
REMARK                            x       y       z     vdW  Elec       q    Type
REMARK                         _______ _______ _______ _____ _____    ______ ____
ROOT
ATOM      1  C   UNL     1       2.357  -4.973  -2.033  0.00  0.00    +0.017 C 
ATOM      2  C   UNL     1       2.366  -5.315  -0.519  0.00  0.00    +0.025 C 
ATOM      3  C   UNL     1       0.897  -5.697  -0.241  0.00  0.00    +0.088 C 
ATOM      4  N   UNL     1       0.077  -5.077  -1.297  0.00  0.00    -0.298 NA
ATOM      5  C   UNL     1       0.966  -4.311  -2.196  0.00  0.00    +0.085 C 
ATOM      6  C   UNL     1      -0.679  -6.093  -2.042  0.00  0.00    +0.105 C 
ENDROOT
BRANCH   3   7
ATOM      7  C   UNL     1       0.478  -5.175   1.109  0.00  0.00    -0.012 A 
ATOM      8  C   UNL     1       1.381  -4.499   1.908  0.00  0.00    +0.115 A 
ATOM      9  N   UNL     1       1.022  -4.039   3.091  0.00  0.00    -0.263 NA
ATOM     10  C   UNL     1      -0.200  -4.203   3.557  0.00  0.00    +0.111 A 
ATOM     11  C   UNL     1      -1.157  -4.869   2.814  0.00  0.00    +0.020 A 
ATOM     12  C   UNL     1      -0.818  -5.362   1.563  0.00  0.00    +0.008 A 
ENDBRANCH   3   7
TORSDOF 1
ENDMDL
MODEL 3
REMARK VINA RESULT:    -4.358      1.429      2.037
REMARK INTER + INTRA:          -4.825
REMARK INTER:                  -4.592
REMARK INTRA:                  -0.233
REMARK UNBOUND:                -0.212
REMARK  Name = Nicotine.pdb
REMARK  2 active torsions:
REMARK  status: ('A' for Active; 'I' for Inactive)
REMARK    1  A    between atoms: C_3  and  C_6
REMARK    2  A    between atoms: N_4  and  C_12
REMARK                            x       y       z     vdW  Elec       q    Type
REMARK                         _______ _______ _______ _____ _____    ______ ____
ROOT
ATOM      1  C   UNL     1      -0.913  -5.281   2.894  0.00  0.00    +0.017 C 
ATOM      2  C   UNL     1      -0.804  -5.788   1.431  0.00  0.00    +0.025 C 
ATOM      3  C   UNL     1       0.715  -5.740   1.160  0.00  0.00    +0.088 C 
ATOM      4  N   UNL     1       1.299  -4.779   2.113  0.00  0.00    -0.298 NA
ATOM      5  C   UNL     1       0.210  -4.215   2.940  0.00  0.00    +0.085 C 
ATOM      6  C   UNL     1       2.319  -5.422   2.952  0.00  0.00    +0.105 C 
ENDROOT
BRANCH   3   7
ATOM      7  C   UNL     1       0.969  -5.282  -0.252  0.00  0.00    -0.012 A 
ATOM      8  C   UNL     1       2.260  -5.058  -0.693  0.00  0.00    +0.115 A 
ATOM      9  N   UNL     1       2.491  -4.657  -1.928  0.00  0.00    -0.263 NA
ATOM     10  C   UNL     1       1.511  -4.454  -2.786  0.00  0.00    +0.111 A 
ATOM     11  C   UNL     1       0.194  -4.657  -2.417  0.00  0.00    +0.020 A 
ATOM     12  C   UNL     1      -0.087  -5.084  -1.128  0.00  0.00    +0.008 A 
ENDBRANCH   3   7
TORSDOF 1
ENDMDL
MODEL 4
REMARK VINA RESULT:    -4.136      1.519      4.382
REMARK INTER + INTRA:          -4.590
REMARK INTER:                  -4.371
REMARK INTRA:                  -0.219
REMARK UNBOUND:                -0.212
REMARK  Name = Nicotine.pdb
REMARK  2 active torsions:
REMARK  status: ('A' for Active; 'I' for Inactive)
REMARK    1  A    between atoms: C_3  and  C_6
REMARK    2  A    between atoms: N_4  and  C_12
REMARK                            x       y       z     vdW  Elec       q    Type
REMARK                         _______ _______ _______ _____ _____    ______ ____
ROOT
ATOM      1  C   UNL     1       1.141  -5.124  -0.429  0.00  0.00    +0.017 C 
ATOM      2  C   UNL     1       2.166  -5.753   0.550  0.00  0.00    +0.025 C 
ATOM      3  C   UNL     1       1.363  -5.875   1.863  0.00  0.00    +0.088 C 
ATOM      4  N   UNL     1       0.257  -4.904   1.790  0.00  0.00    -0.298 NA
ATOM      5  C   UNL     1       0.355  -4.173   0.509  0.00  0.00    +0.085 C 
ATOM      6  C   UNL     1      -1.043  -5.576   1.915  0.00  0.00    +0.105 C 
ENDROOT
BRANCH   3   7
ATOM      7  C   UNL     1       2.250  -5.556   3.038  0.00  0.00    -0.012 A 
ATOM      8  C   UNL     1       1.802  -4.726   4.048  0.00  0.00    +0.115 A 
ATOM      9  N   UNL     1       2.572  -4.442   5.080  0.00  0.00    -0.263 NA
ATOM     10  C   UNL     1       3.790  -4.933   5.192  0.00  0.00    +0.111 A 
ATOM     11  C   UNL     1       4.307  -5.771   4.221  0.00  0.00    +0.020 A 
ATOM     12  C   UNL     1       3.525  -6.096   3.124  0.00  0.00    +0.008 A 
ENDBRANCH   3   7
TORSDOF 1
ENDMDL
MODEL 5
REMARK VINA RESULT:    -3.961      1.653      4.209
REMARK INTER + INTRA:          -4.405
REMARK INTER:                  -4.220
REMARK INTRA:                  -0.186
REMARK UNBOUND:                -0.212
REMARK  Name = Nicotine.pdb
REMARK  2 active torsions:
REMARK  status: ('A' for Active; 'I' for Inactive)
REMARK    1  A    between atoms: C_3  and  C_6
REMARK    2  A    between atoms: N_4  and  C_12
REMARK                            x       y       z     vdW  Elec       q    Type
REMARK                         _______ _______ _______ _____ _____    ______ ____
ROOT
ATOM      1  C   UNL     1      -1.214  -4.723   2.469  0.00  0.00    +0.017 C 
ATOM      2  C   UNL     1      -0.031  -4.122   3.273  0.00  0.00    +0.025 C 
ATOM      3  C   UNL     1       1.204  -4.574   2.465  0.00  0.00    +0.088 C 
ATOM      4  N   UNL     1       0.802  -5.753   1.677  0.00  0.00    -0.298 NA
ATOM      5  C   UNL     1      -0.611  -6.064   1.980  0.00  0.00    +0.085 C 
ATOM      6  C   UNL     1       0.993  -5.517   0.240  0.00  0.00    +0.105 C 
ENDROOT
BRANCH   3   7
ATOM      7  C   UNL     1       2.325  -4.940   3.402  0.00  0.00    -0.012 A 
ATOM      8  C   UNL     1       2.354  -4.434   4.688  0.00  0.00    +0.115 A 
ATOM      9  N   UNL     1       3.332  -4.749   5.515  0.00  0.00    -0.263 NA
ATOM     10  C   UNL     1       4.313  -5.552   5.154  0.00  0.00    +0.111 A 
ATOM     11  C   UNL     1       4.351  -6.097   3.884  0.00  0.00    +0.020 A 
ATOM     12  C   UNL     1       3.337  -5.792   2.989  0.00  0.00    +0.008 A 
ENDBRANCH   3   7
TORSDOF 1
ENDMDL
MODEL 6
REMARK VINA RESULT:    -3.857      1.452      4.641
REMARK INTER + INTRA:          -4.295
REMARK INTER:                  -4.044
REMARK INTRA:                  -0.251
REMARK UNBOUND:                -0.212
REMARK  Name = Nicotine.pdb
REMARK  2 active torsions:
REMARK  status: ('A' for Active; 'I' for Inactive)
REMARK    1  A    between atoms: C_3  and  C_6
REMARK    2  A    between atoms: N_4  and  C_12
REMARK                            x       y       z     vdW  Elec       q    Type
REMARK                         _______ _______ _______ _____ _____    ______ ____
ROOT
ATOM      1  C   UNL     1       0.213  -4.646  -2.446  0.00  0.00    +0.017 C 
ATOM      2  C   UNL     1       0.148  -3.883  -1.097  0.00  0.00    +0.025 C 
ATOM      3  C   UNL     1       1.249  -4.566  -0.258  0.00  0.00    +0.088 C 
ATOM      4  N   UNL     1       1.475  -5.902  -0.838  0.00  0.00    -0.298 NA
ATOM      5  C   UNL     1       0.549  -6.084  -1.976  0.00  0.00    +0.085 C 
ATOM      6  C   UNL     1       2.871  -6.063  -1.263  0.00  0.00    +0.105 C 
ENDROOT
BRANCH   3   7
ATOM      7  C   UNL     1       0.796  -4.697   1.173  0.00  0.00    -0.012 A 
ATOM      8  C   UNL     1       1.695  -4.525   2.209  0.00  0.00    +0.115 A 
ATOM      9  N   UNL     1       1.307  -4.637   3.465  0.00  0.00    -0.263 NA
ATOM     10  C   UNL     1       0.058  -4.916   3.782  0.00  0.00    +0.111 A 
ATOM     11  C   UNL     1      -0.897  -5.101   2.800  0.00  0.00    +0.020 A 
ATOM     12  C   UNL     1      -0.527  -4.985   1.468  0.00  0.00    +0.008 A 
ENDBRANCH   3   7
TORSDOF 1
ENDMDL
MODEL 7
REMARK VINA RESULT:    -3.102      1.721      2.335
REMARK INTER + INTRA:          -3.496
REMARK INTER:                  -3.278
REMARK INTRA:                  -0.218
REMARK UNBOUND:                -0.212
REMARK  Name = Nicotine.pdb
REMARK  2 active torsions:
REMARK  status: ('A' for Active; 'I' for Inactive)
REMARK    1  A    between atoms: C_3  and  C_6
REMARK    2  A    between atoms: N_4  and  C_12
REMARK                            x       y       z     vdW  Elec       q    Type
REMARK                         _______ _______ _______ _____ _____    ______ ____
ROOT
ATOM      1  C   UNL     1       0.971  -6.097   3.603  0.00  0.00    +0.017 C 
ATOM      2  C   UNL     1       1.886  -5.899   2.366  0.00  0.00    +0.025 C 
ATOM      3  C   UNL     1       1.091  -4.895   1.504  0.00  0.00    +0.088 C 
ATOM      4  N   UNL     1      -0.322  -4.991   1.912  0.00  0.00    -0.298 NA
ATOM      5  C   UNL     1      -0.439  -6.022   2.965  0.00  0.00    +0.085 C 
ATOM      6  C   UNL     1      -0.823  -3.695   2.386  0.00  0.00    +0.105 C 
ENDROOT
BRANCH   3   7
ATOM      7  C   UNL     1       1.230  -5.249   0.046  0.00  0.00    -0.012 A 
ATOM      8  C   UNL     1       0.141  -5.169  -0.800  0.00  0.00    +0.115 A 
ATOM      9  N   UNL     1       0.254  -5.477  -2.078  0.00  0.00    -0.263 NA
ATOM     10  C   UNL     1       1.400  -5.871  -2.596  0.00  0.00    +0.111 A 
ATOM     11  C   UNL     1       2.533  -5.976  -1.812  0.00  0.00    +0.020 A 
ATOM     12  C   UNL     1       2.454  -5.655  -0.465  0.00  0.00    +0.008 A 
ENDBRANCH   3   7
TORSDOF 1
ENDMDL
MODEL 8
REMARK VINA RESULT:    -2.415      3.221      5.190
REMARK INTER + INTRA:          -2.768
REMARK INTER:                  -2.517
REMARK INTRA:                  -0.251
REMARK UNBOUND:                -0.212
REMARK  Name = Nicotine.pdb
REMARK  2 active torsions:
REMARK  status: ('A' for Active; 'I' for Inactive)
REMARK    1  A    between atoms: C_3  and  C_6
REMARK    2  A    between atoms: N_4  and  C_12
REMARK                            x       y       z     vdW  Elec       q    Type
REMARK                         _______ _______ _______ _____ _____    ______ ____
ROOT
ATOM      1  C   UNL     1       2.967  -5.510  -0.718  0.00  0.00    +0.017 C 
ATOM      2  C   UNL     1       2.937  -4.940  -2.161  0.00  0.00    +0.025 C 
ATOM      3  C   UNL     1       1.490  -4.424  -2.301  0.00  0.00    +0.088 C 
ATOM      4  N   UNL     1       0.671  -5.145  -1.309  0.00  0.00    -0.298 NA
ATOM      5  C   UNL     1       1.539  -6.097  -0.584  0.00  0.00    +0.085 C 
ATOM      6  C   UNL     1       0.023  -4.210  -0.380  0.00  0.00    +0.105 C 
ENDROOT
BRANCH   3   7
ATOM      7  C   UNL     1       0.978  -4.703  -3.690  0.00  0.00    -0.012 A 
ATOM      8  C   UNL     1       0.172  -3.784  -4.335  0.00  0.00    +0.115 A 
ATOM      9  N   UNL     1      -0.280  -4.020  -5.552  0.00  0.00    -0.263 NA
ATOM     10  C   UNL     1       0.014  -5.131  -6.197  0.00  0.00    +0.111 A 
ATOM     11  C   UNL     1       0.816  -6.096  -5.615  0.00  0.00    +0.020 A 
ATOM     12  C   UNL     1       1.314  -5.881  -4.340  0.00  0.00    +0.008 A 
ENDBRANCH   3   7
TORSDOF 1
ENDMDL
