MODEL 1
REMARK VINA RESULT:    -3.022      0.000      0.000
REMARK INTER + INTRA:          -3.414
REMARK INTER:                  -3.199
REMARK INTRA:                  -0.216
REMARK UNBOUND:                -0.216
REMARK  Name = Nicotine.pdb
REMARK  2 active torsions:
REMARK  status: ('A' for Active; 'I' for Inactive)
REMARK    1  A    between atoms: C_3  and  C_6
REMARK    2  A    between atoms: N_4  and  C_12
REMARK                            x       y       z     vdW  Elec       q    Type
REMARK                         _______ _______ _______ _____ _____    ______ ____
ROOT
ATOM      1  C   UNL     1       6.160  -4.314  -1.803  0.00  0.00    +0.017 C 
ATOM      2  C   UNL     1       6.510  -4.957  -3.171  0.00  0.00    +0.025 C 
ATOM      3  C   UNL     1       7.812  -5.729  -2.868  0.00  0.00    +0.088 C 
ATOM      4  N   UNL     1       8.418  -5.113  -1.674  0.00  0.00    -0.298 NA
ATOM      5  C   UNL     1       7.566  -3.984  -1.243  0.00  0.00    +0.085 C 
ATOM      6  C   UNL     1       8.575  -6.097  -0.595  0.00  0.00    +0.105 C 
ENDROOT
BRANCH   3   7
ATOM      7  C   UNL     1       8.756  -5.621  -4.038  0.00  0.00    -0.012 A 
ATOM      8  C   UNL     1      10.120  -5.735  -3.848  0.00  0.00    +0.115 A 
ATOM      9  N   UNL     1      10.953  -5.642  -4.866  0.00  0.00    -0.263 NA
ATOM     10  C   UNL     1      10.524  -5.437  -6.096  0.00  0.00    +0.111 A 
ATOM     11  C   UNL     1       9.173  -5.314  -6.363  0.00  0.00    +0.020 A 
ATOM     12  C   UNL     1       8.267  -5.411  -5.318  0.00  0.00    +0.008 A 
ENDBRANCH   3   7
TORSDOF 1
ENDMDL
MODEL 2
REMARK VINA RESULT:    -2.924      0.794      1.369
REMARK INTER + INTRA:          -3.311
REMARK INTER:                  -3.126
REMARK INTRA:                  -0.185
REMARK UNBOUND:                -0.216
REMARK  Name = Nicotine.pdb
REMARK  2 active torsions:
REMARK  status: ('A' for Active; 'I' for Inactive)
REMARK    1  A    between atoms: C_3  and  C_6
REMARK    2  A    between atoms: N_4  and  C_12
REMARK                            x       y       z     vdW  Elec       q    Type
REMARK                         _______ _______ _______ _____ _____    ______ ____
ROOT
ATOM      1  C   UNL     1       6.176  -4.352  -1.771  0.00  0.00    +0.017 C 
ATOM      2  C   UNL     1       6.519  -4.972  -3.151  0.00  0.00    +0.025 C 
ATOM      3  C   UNL     1       7.841  -5.720  -2.877  0.00  0.00    +0.088 C 
ATOM      4  N   UNL     1       8.452  -5.105  -1.685  0.00  0.00    -0.298 NA
ATOM      5  C   UNL     1       7.583  -3.999  -1.228  0.00  0.00    +0.085 C 
ATOM      6  C   UNL     1       8.645  -6.097  -0.620  0.00  0.00    +0.105 C 
ENDROOT
BRANCH   3   7
ATOM      7  C   UNL     1       8.764  -5.579  -4.059  0.00  0.00    -0.012 A 
ATOM      8  C   UNL     1       8.259  -5.268  -5.307  0.00  0.00    +0.115 A 
ATOM      9  N   UNL     1       9.061  -5.143  -6.347  0.00  0.00    -0.263 NA
ATOM     10  C   UNL     1      10.364  -5.308  -6.241  0.00  0.00    +0.111 A 
ATOM     11  C   UNL     1      10.942  -5.620  -5.024  0.00  0.00    +0.020 A 
ATOM     12  C   UNL     1      10.131  -5.754  -3.908  0.00  0.00    +0.008 A 
ENDBRANCH   3   7
TORSDOF 1
ENDMDL
MODEL 3
REMARK VINA RESULT:    -1.969      1.700      4.322
REMARK INTER + INTRA:          -2.299
REMARK INTER:                  -2.097
REMARK INTRA:                  -0.202
REMARK UNBOUND:                -0.216
REMARK  Name = Nicotine.pdb
REMARK  2 active torsions:
REMARK  status: ('A' for Active; 'I' for Inactive)
REMARK    1  A    between atoms: C_3  and  C_6
REMARK    2  A    between atoms: N_4  and  C_12
REMARK                            x       y       z     vdW  Elec       q    Type
REMARK                         _______ _______ _______ _____ _____    ______ ____
ROOT
ATOM      1  C   UNL     1       9.001  -5.151  -4.971  0.00  0.00    +0.017 C 
ATOM      2  C   UNL     1       9.545  -6.090  -3.863  0.00  0.00    +0.025 C 
ATOM      3  C   UNL     1       8.415  -6.078  -2.811  0.00  0.00    +0.088 C 
ATOM      4  N   UNL     1       7.634  -4.845  -3.024  0.00  0.00    -0.298 NA
ATOM      5  C   UNL     1       8.244  -4.088  -4.137  0.00  0.00    +0.085 C 
ATOM      6  C   UNL     1       6.227  -5.155  -3.306  0.00  0.00    +0.105 C 
ENDROOT
BRANCH   3   7
ATOM      7  C   UNL     1       9.004  -6.080  -1.425  0.00  0.00    -0.012 A 
ATOM      8  C   UNL     1      10.375  -6.095  -1.248  0.00  0.00    +0.115 A 
ATOM      9  N   UNL     1      10.899  -6.097  -0.038  0.00  0.00    -0.263 NA
ATOM     10  C   UNL     1      10.145  -6.086   1.044  0.00  0.00    +0.111 A 
ATOM     11  C   UNL     1       8.766  -6.070   0.945  0.00  0.00    +0.020 A 
ATOM     12  C   UNL     1       8.179  -6.062  -0.310  0.00  0.00    +0.008 A 
ENDBRANCH   3   7
TORSDOF 1
ENDMDL
