MODEL 1
REMARK VINA RESULT:    11.099      0.000      0.000
REMARK INTER + INTRA:          11.557
REMARK INTER:                  11.748
REMARK INTRA:                  -0.191
REMARK UNBOUND:                -0.191
REMARK  Name = Nicotine.pdb
REMARK  2 active torsions:
REMARK  status: ('A' for Active; 'I' for Inactive)
REMARK    1  A    between atoms: C_3  and  C_6
REMARK    2  A    between atoms: N_4  and  C_12
REMARK                            x       y       z     vdW  Elec       q    Type
REMARK                         _______ _______ _______ _____ _____    ______ ____
ROOT
ATOM      1  C   UNL     1       9.813   7.027  -3.513  0.00  0.00    +0.017 C 
ATOM      2  C   UNL     1      10.712   5.763  -3.473  0.00  0.00    +0.025 C 
ATOM      3  C   UNL     1      10.927   5.443  -4.968  0.00  0.00    +0.088 C 
ATOM      4  N   UNL     1       9.821   6.071  -5.713  0.00  0.00    -0.298 NA
ATOM      5  C   UNL     1       8.922   6.740  -4.747  0.00  0.00    +0.085 C 
ATOM      6  C   UNL     1      10.329   7.025  -6.707  0.00  0.00    +0.105 C 
ENDROOT
BRANCH   3   7
ATOM      7  C   UNL     1      10.909   3.952  -5.181  0.00  0.00    -0.012 A 
ATOM      8  C   UNL     1      10.935   3.091  -4.100  0.00  0.00    +0.115 A 
ATOM      9  N   UNL     1      10.919   1.784  -4.278  0.00  0.00    -0.263 NA
ATOM     10  C   UNL     1      10.878   1.249  -5.482  0.00  0.00    +0.111 A 
ATOM     11  C   UNL     1      10.850   2.047  -6.611  0.00  0.00    +0.020 A 
ATOM     12  C   UNL     1      10.860   3.426  -6.463  0.00  0.00    +0.008 A 
ENDBRANCH   3   7
TORSDOF 1
ENDMDL
