MODEL 1
REMARK VINA RESULT:    -1.132      0.000      0.000
REMARK INTER + INTRA:          -1.382
REMARK INTER:                  -1.198
REMARK INTRA:                  -0.184
REMARK UNBOUND:                -0.184
REMARK  Name = Nicotine.pdb
REMARK  2 active torsions:
REMARK  status: ('A' for Active; 'I' for Inactive)
REMARK    1  A    between atoms: C_3  and  C_6
REMARK    2  A    between atoms: N_4  and  C_12
REMARK                            x       y       z     vdW  Elec       q    Type
REMARK                         _______ _______ _______ _____ _____    ______ ____
ROOT
ATOM      1  C   UNL     1      -3.722   7.028  -1.983  0.00  0.00    +0.017 C 
ATOM      2  C   UNL     1      -4.525   6.631  -3.249  0.00  0.00    +0.025 C 
ATOM      3  C   UNL     1      -5.168   5.286  -2.845  0.00  0.00    +0.088 C 
ATOM      4  N   UNL     1      -4.357   4.727  -1.749  0.00  0.00    -0.298 NA
ATOM      5  C   UNL     1      -3.233   5.648  -1.476  0.00  0.00    +0.085 C 
ATOM      6  C   UNL     1      -5.170   4.518  -0.544  0.00  0.00    +0.105 C 
ENDROOT
BRANCH   3   7
ATOM      7  C   UNL     1      -5.165   4.343  -4.020  0.00  0.00    -0.012 A 
ATOM      8  C   UNL     1      -5.164   4.835  -5.311  0.00  0.00    +0.115 A 
ATOM      9  N   UNL     1      -5.161   4.017  -6.345  0.00  0.00    -0.263 NA
ATOM     10  C   UNL     1      -5.161   2.707  -6.192  0.00  0.00    +0.111 A 
ATOM     11  C   UNL     1      -5.161   2.142  -4.931  0.00  0.00    +0.020 A 
ATOM     12  C   UNL     1      -5.158   2.971  -3.820  0.00  0.00    +0.008 A 
ENDBRANCH   3   7
TORSDOF 1
ENDMDL
MODEL 2
REMARK VINA RESULT:     0.181     13.853     15.100
REMARK INTER + INTRA:           0.007
REMARK INTER:                   0.218
REMARK INTRA:                  -0.211
REMARK UNBOUND:                -0.184
REMARK  Name = Nicotine.pdb
REMARK  2 active torsions:
REMARK  status: ('A' for Active; 'I' for Inactive)
REMARK    1  A    between atoms: C_3  and  C_6
REMARK    2  A    between atoms: N_4  and  C_12
REMARK                            x       y       z     vdW  Elec       q    Type
REMARK                         _______ _______ _______ _____ _____    ______ ____
ROOT
ATOM      1  C   UNL     1       9.020   3.981   3.319  0.00  0.00    +0.017 C 
ATOM      2  C   UNL     1       7.963   3.638   4.401  0.00  0.00    +0.025 C 
ATOM      3  C   UNL     1       8.233   2.146   4.689  0.00  0.00    +0.088 C 
ATOM      4  N   UNL     1       8.926   1.592   3.512  0.00  0.00    -0.298 NA
ATOM      5  C   UNL     1       9.073   2.665   2.505  0.00  0.00    +0.085 C 
ATOM      6  C   UNL     1      10.233   1.035   3.884  0.00  0.00    +0.105 C 
ENDROOT
BRANCH   3   7
ATOM      7  C   UNL     1       6.929   1.422   4.905  0.00  0.00    -0.012 A 
ATOM      8  C   UNL     1       6.184   1.650   6.047  0.00  0.00    +0.115 A 
ATOM      9  N   UNL     1       5.042   1.020   6.244  0.00  0.00    -0.263 NA
ATOM     10  C   UNL     1       4.568   0.155   5.370  0.00  0.00    +0.111 A 
ATOM     11  C   UNL     1       5.258  -0.124   4.204  0.00  0.00    +0.020 A 
ATOM     12  C   UNL     1       6.459   0.523   3.960  0.00  0.00    +0.008 A 
ENDBRANCH   3   7
TORSDOF 1
ENDMDL
MODEL 3
REMARK VINA RESULT:     1.684     13.057     14.805
REMARK INTER + INTRA:           1.598
REMARK INTER:                   1.814
REMARK INTRA:                  -0.216
REMARK UNBOUND:                -0.184
REMARK  Name = Nicotine.pdb
REMARK  2 active torsions:
REMARK  status: ('A' for Active; 'I' for Inactive)
REMARK    1  A    between atoms: C_3  and  C_6
REMARK    2  A    between atoms: N_4  and  C_12
REMARK                            x       y       z     vdW  Elec       q    Type
REMARK                         _______ _______ _______ _____ _____    ______ ____
ROOT
ATOM      1  C   UNL     1       9.772   1.400   4.493  0.00  0.00    +0.017 C 
ATOM      2  C   UNL     1       8.508   1.084   3.651  0.00  0.00    +0.025 C 
ATOM      3  C   UNL     1       7.388   1.821   4.416  0.00  0.00    +0.088 C 
ATOM      4  N   UNL     1       7.856   2.009   5.801  0.00  0.00    -0.298 NA
ATOM      5  C   UNL     1       9.197   1.401   5.932  0.00  0.00    +0.085 C 
ATOM      6  C   UNL     1       7.885   3.433   6.159  0.00  0.00    +0.105 C 
ENDROOT
BRANCH   3   7
ATOM      7  C   UNL     1       6.130   0.992   4.406  0.00  0.00    -0.012 A 
ATOM      8  C   UNL     1       5.272   1.012   5.490  0.00  0.00    +0.115 A 
ATOM      9  N   UNL     1       4.168   0.290   5.489  0.00  0.00    -0.263 NA
ATOM     10  C   UNL     1       3.840  -0.474   4.466  0.00  0.00    +0.111 A 
ATOM     11  C   UNL     1       4.649  -0.543   3.347  0.00  0.00    +0.020 A 
ATOM     12  C   UNL     1       5.814   0.206   3.309  0.00  0.00    +0.008 A 
ENDBRANCH   3   7
TORSDOF 1
ENDMDL
