MODEL 1
REMARK VINA RESULT:    -4.417      0.000      0.000
REMARK INTER + INTRA:          -4.892
REMARK INTER:                  -4.675
REMARK INTRA:                  -0.218
REMARK UNBOUND:                -0.218
REMARK  Name = Nicotine.pdb
REMARK  2 active torsions:
REMARK  status: ('A' for Active; 'I' for Inactive)
REMARK    1  A    between atoms: C_3  and  C_6
REMARK    2  A    between atoms: N_4  and  C_12
REMARK                            x       y       z     vdW  Elec       q    Type
REMARK                         _______ _______ _______ _____ _____    ______ ____
ROOT
ATOM      1  C   UNL     1       7.255   6.209   2.683  0.00  0.00    +0.017 C 
ATOM      2  C   UNL     1       6.061   6.851   3.438  0.00  0.00    +0.025 C 
ATOM      3  C   UNL     1       5.541   5.692   4.315  0.00  0.00    +0.088 C 
ATOM      4  N   UNL     1       5.993   4.436   3.691  0.00  0.00    -0.298 NA
ATOM      5  C   UNL     1       6.743   4.764   2.460  0.00  0.00    +0.085 C 
ATOM      6  C   UNL     1       6.820   3.654   4.619  0.00  0.00    +0.105 C 
ENDROOT
BRANCH   3   7
ATOM      7  C   UNL     1       4.036   5.727   4.370  0.00  0.00    -0.012 A 
ATOM      8  C   UNL     1       3.384   5.855   5.582  0.00  0.00    +0.115 A 
ATOM      9  N   UNL     1       2.067   5.886   5.640  0.00  0.00    -0.263 NA
ATOM     10  C   UNL     1       1.324   5.796   4.554  0.00  0.00    +0.111 A 
ATOM     11  C   UNL     1       1.905   5.667   3.307  0.00  0.00    +0.020 A 
ATOM     12  C   UNL     1       3.288   5.636   3.207  0.00  0.00    +0.008 A 
ENDBRANCH   3   7
TORSDOF 1
ENDMDL
MODEL 2
REMARK VINA RESULT:    -3.861      2.076      3.732
REMARK INTER + INTRA:          -4.304
REMARK INTER:                  -4.089
REMARK INTRA:                  -0.215
REMARK UNBOUND:                -0.218
REMARK  Name = Nicotine.pdb
REMARK  2 active torsions:
REMARK  status: ('A' for Active; 'I' for Inactive)
REMARK    1  A    between atoms: C_3  and  C_6
REMARK    2  A    between atoms: N_4  and  C_12
REMARK                            x       y       z     vdW  Elec       q    Type
REMARK                         _______ _______ _______ _____ _____    ______ ____
ROOT
ATOM      1  C   UNL     1       8.976   2.156   5.800  0.00  0.00    +0.017 C 
ATOM      2  C   UNL     1       7.611   2.251   5.069  0.00  0.00    +0.025 C 
ATOM      3  C   UNL     1       7.861   3.342   4.007  0.00  0.00    +0.088 C 
ATOM      4  N   UNL     1       8.998   4.156   4.475  0.00  0.00    -0.298 NA
ATOM      5  C   UNL     1       9.442   3.634   5.785  0.00  0.00    +0.085 C 
ATOM      6  C   UNL     1      10.096   4.138   3.501  0.00  0.00    +0.105 C 
ENDROOT
BRANCH   3   7
ATOM      7  C   UNL     1       6.636   4.206   3.861  0.00  0.00    -0.012 A 
ATOM      8  C   UNL     1       5.635   4.167   4.814  0.00  0.00    +0.115 A 
ATOM      9  N   UNL     1       4.559   4.920   4.694  0.00  0.00    -0.263 NA
ATOM     10  C   UNL     1       4.394   5.734   3.670  0.00  0.00    +0.111 A 
ATOM     11  C   UNL     1       5.353   5.828   2.679  0.00  0.00    +0.020 A 
ATOM     12  C   UNL     1       6.500   5.056   2.773  0.00  0.00    +0.008 A 
ENDBRANCH   3   7
TORSDOF 1
ENDMDL
MODEL 3
REMARK VINA RESULT:    -3.849      2.158      5.103
REMARK INTER + INTRA:          -4.292
REMARK INTER:                  -4.036
REMARK INTRA:                  -0.256
REMARK UNBOUND:                -0.218
REMARK  Name = Nicotine.pdb
REMARK  2 active torsions:
REMARK  status: ('A' for Active; 'I' for Inactive)
REMARK    1  A    between atoms: C_3  and  C_6
REMARK    2  A    between atoms: N_4  and  C_12
REMARK                            x       y       z     vdW  Elec       q    Type
REMARK                         _______ _______ _______ _____ _____    ______ ____
ROOT
ATOM      1  C   UNL     1       5.677   6.460   2.774  0.00  0.00    +0.017 C 
ATOM      2  C   UNL     1       6.446   5.142   2.491  0.00  0.00    +0.025 C 
ATOM      3  C   UNL     1       6.196   4.313   3.770  0.00  0.00    +0.088 C 
ATOM      4  N   UNL     1       5.853   5.262   4.845  0.00  0.00    -0.298 NA
ATOM      5  C   UNL     1       5.904   6.634   4.297  0.00  0.00    +0.085 C 
ATOM      6  C   UNL     1       4.528   4.967   5.405  0.00  0.00    +0.105 C 
ENDROOT
BRANCH   3   7
ATOM      7  C   UNL     1       7.441   3.549   4.136  0.00  0.00    -0.012 A 
ATOM      8  C   UNL     1       7.361   2.423   4.934  0.00  0.00    +0.115 A 
ATOM      9  N   UNL     1       8.446   1.748   5.259  0.00  0.00    -0.263 NA
ATOM     10  C   UNL     1       9.642   2.115   4.843  0.00  0.00    +0.111 A 
ATOM     11  C   UNL     1       9.800   3.230   4.041  0.00  0.00    +0.020 A 
ATOM     12  C   UNL     1       8.682   3.962   3.674  0.00  0.00    +0.008 A 
ENDBRANCH   3   7
TORSDOF 1
ENDMDL
MODEL 4
REMARK VINA RESULT:    -3.785      2.210      3.567
REMARK INTER + INTRA:          -4.224
REMARK INTER:                  -4.001
REMARK INTRA:                  -0.224
REMARK UNBOUND:                -0.218
REMARK  Name = Nicotine.pdb
REMARK  2 active torsions:
REMARK  status: ('A' for Active; 'I' for Inactive)
REMARK    1  A    between atoms: C_3  and  C_6
REMARK    2  A    between atoms: N_4  and  C_12
REMARK                            x       y       z     vdW  Elec       q    Type
REMARK                         _______ _______ _______ _____ _____    ______ ____
ROOT
ATOM      1  C   UNL     1       9.582   2.296   2.253  0.00  0.00    +0.017 C 
ATOM      2  C   UNL     1       8.665   3.513   1.962  0.00  0.00    +0.025 C 
ATOM      3  C   UNL     1       8.416   4.104   3.366  0.00  0.00    +0.088 C 
ATOM      4  N   UNL     1       8.657   3.027   4.342  0.00  0.00    -0.298 NA
ATOM      5  C   UNL     1       9.018   1.796   3.606  0.00  0.00    +0.085 C 
ATOM      6  C   UNL     1       9.714   3.402   5.291  0.00  0.00    +0.105 C 
ENDROOT
BRANCH   3   7
ATOM      7  C   UNL     1       6.993   4.587   3.474  0.00  0.00    -0.012 A 
ATOM      8  C   UNL     1       6.164   4.102   4.467  0.00  0.00    +0.115 A 
ATOM      9  N   UNL     1       4.917   4.519   4.569  0.00  0.00    -0.263 NA
ATOM     10  C   UNL     1       4.414   5.408   3.735  0.00  0.00    +0.111 A 
ATOM     11  C   UNL     1       5.183   5.939   2.717  0.00  0.00    +0.020 A 
ATOM     12  C   UNL     1       6.501   5.528   2.582  0.00  0.00    +0.008 A 
ENDBRANCH   3   7
TORSDOF 1
ENDMDL
MODEL 5
REMARK VINA RESULT:    -3.650      2.278      5.306
REMARK INTER + INTRA:          -4.081
REMARK INTER:                  -3.883
REMARK INTRA:                  -0.198
REMARK UNBOUND:                -0.218
REMARK  Name = Nicotine.pdb
REMARK  2 active torsions:
REMARK  status: ('A' for Active; 'I' for Inactive)
REMARK    1  A    between atoms: C_3  and  C_6
REMARK    2  A    between atoms: N_4  and  C_12
REMARK                            x       y       z     vdW  Elec       q    Type
REMARK                         _______ _______ _______ _____ _____    ______ ____
ROOT
ATOM      1  C   UNL     1       4.487   5.167   4.556  0.00  0.00    +0.017 C 
ATOM      2  C   UNL     1       5.464   4.054   5.018  0.00  0.00    +0.025 C 
ATOM      3  C   UNL     1       6.845   4.618   4.621  0.00  0.00    +0.088 C 
ATOM      4  N   UNL     1       6.621   5.613   3.556  0.00  0.00    -0.298 NA
ATOM      5  C   UNL     1       5.173   5.669   3.261  0.00  0.00    +0.085 C 
ATOM      6  C   UNL     1       7.130   6.932   3.952  0.00  0.00    +0.105 C 
ENDROOT
BRANCH   3   7
ATOM      7  C   UNL     1       7.725   3.508   4.109  0.00  0.00    -0.012 A 
ATOM      8  C   UNL     1       7.785   2.299   4.778  0.00  0.00    +0.115 A 
ATOM      9  N   UNL     1       8.553   1.322   4.337  0.00  0.00    -0.263 NA
ATOM     10  C   UNL     1       9.289   1.455   3.251  0.00  0.00    +0.111 A 
ATOM     11  C   UNL     1       9.280   2.634   2.530  0.00  0.00    +0.020 A 
ATOM     12  C   UNL     1       8.481   3.682   2.960  0.00  0.00    +0.008 A 
ENDBRANCH   3   7
TORSDOF 1
ENDMDL
MODEL 6
REMARK VINA RESULT:    -3.522      2.140      3.581
REMARK INTER + INTRA:          -3.946
REMARK INTER:                  -3.734
REMARK INTRA:                  -0.211
REMARK UNBOUND:                -0.218
REMARK  Name = Nicotine.pdb
REMARK  2 active torsions:
REMARK  status: ('A' for Active; 'I' for Inactive)
REMARK    1  A    between atoms: C_3  and  C_6
REMARK    2  A    between atoms: N_4  and  C_12
REMARK                            x       y       z     vdW  Elec       q    Type
REMARK                         _______ _______ _______ _____ _____    ______ ____
ROOT
ATOM      1  C   UNL     1      10.211   3.702   3.094  0.00  0.00    +0.017 C 
ATOM      2  C   UNL     1       8.719   3.279   3.092  0.00  0.00    +0.025 C 
ATOM      3  C   UNL     1       8.021   4.469   2.399  0.00  0.00    +0.088 C 
ATOM      4  N   UNL     1       8.907   5.638   2.543  0.00  0.00    -0.298 NA
ATOM      5  C   UNL     1      10.102   5.232   3.312  0.00  0.00    +0.085 C 
ATOM      6  C   UNL     1       9.283   6.179   1.230  0.00  0.00    +0.105 C 
ENDROOT
BRANCH   3   7
ATOM      7  C   UNL     1       6.696   4.743   3.061  0.00  0.00    -0.012 A 
ATOM      8  C   UNL     1       6.352   4.094   4.232  0.00  0.00    +0.115 A 
ATOM      9  N   UNL     1       5.194   4.328   4.818  0.00  0.00    -0.263 NA
ATOM     10  C   UNL     1       4.324   5.183   4.317  0.00  0.00    +0.111 A 
ATOM     11  C   UNL     1       4.599   5.870   3.150  0.00  0.00    +0.020 A 
ATOM     12  C   UNL     1       5.809   5.654   2.508  0.00  0.00    +0.008 A 
ENDBRANCH   3   7
TORSDOF 1
ENDMDL
MODEL 7
REMARK VINA RESULT:    -3.450     10.355     12.477
REMARK INTER + INTRA:          -3.869
REMARK INTER:                  -3.654
REMARK INTRA:                  -0.215
REMARK UNBOUND:                -0.218
REMARK  Name = Nicotine.pdb
REMARK  2 active torsions:
REMARK  status: ('A' for Active; 'I' for Inactive)
REMARK    1  A    between atoms: C_3  and  C_6
REMARK    2  A    between atoms: N_4  and  C_12
REMARK                            x       y       z     vdW  Elec       q    Type
REMARK                         _______ _______ _______ _____ _____    ______ ____
ROOT
ATOM      1  C   UNL     1      10.520   0.083  -1.629  0.00  0.00    +0.017 C 
ATOM      2  C   UNL     1      10.800  -1.443  -1.646  0.00  0.00    +0.025 C 
ATOM      3  C   UNL     1      10.727  -1.793  -3.147  0.00  0.00    +0.088 C 
ATOM      4  N   UNL     1       9.928  -0.742  -3.803  0.00  0.00    -0.298 NA
ATOM      5  C   UNL     1       9.486   0.223  -2.774  0.00  0.00    +0.085 C 
ATOM      6  C   UNL     1      10.702  -0.072  -4.856  0.00  0.00    +0.105 C 
ENDROOT
BRANCH   3   7
ATOM      7  C   UNL     1      10.062  -3.133  -3.329  0.00  0.00    -0.012 A 
ATOM      8  C   UNL     1       9.313  -3.686  -2.307  0.00  0.00    +0.115 A 
ATOM      9  N   UNL     1       8.728  -4.858  -2.458  0.00  0.00    -0.263 NA
ATOM     10  C   UNL     1       8.831  -5.545  -3.579  0.00  0.00    +0.111 A 
ATOM     11  C   UNL     1       9.562  -5.055  -4.645  0.00  0.00    +0.020 A 
ATOM     12  C   UNL     1      10.188  -3.824  -4.525  0.00  0.00    +0.008 A 
ENDBRANCH   3   7
TORSDOF 1
ENDMDL
MODEL 8
REMARK VINA RESULT:    -3.409      8.960     11.527
REMARK INTER + INTRA:          -3.826
REMARK INTER:                  -3.577
REMARK INTRA:                  -0.249
REMARK UNBOUND:                -0.218
REMARK  Name = Nicotine.pdb
REMARK  2 active torsions:
REMARK  status: ('A' for Active; 'I' for Inactive)
REMARK    1  A    between atoms: C_3  and  C_6
REMARK    2  A    between atoms: N_4  and  C_12
REMARK                            x       y       z     vdW  Elec       q    Type
REMARK                         _______ _______ _______ _____ _____    ______ ____
ROOT
ATOM      1  C   UNL     1      10.235   1.462  -1.004  0.00  0.00    +0.017 C 
ATOM      2  C   UNL     1      10.887   0.092  -1.327  0.00  0.00    +0.025 C 
ATOM      3  C   UNL     1      10.513  -0.129  -2.808  0.00  0.00    +0.088 C 
ATOM      4  N   UNL     1       9.325   0.698  -3.088  0.00  0.00    -0.298 NA
ATOM      5  C   UNL     1       8.935   1.397  -1.844  0.00  0.00    +0.085 C 
ATOM      6  C   UNL     1       9.592   1.655  -4.169  0.00  0.00    +0.105 C 
ENDROOT
BRANCH   3   7
ATOM      7  C   UNL     1      10.195  -1.583  -3.045  0.00  0.00    -0.012 A 
ATOM      8  C   UNL     1      10.615  -2.211  -4.202  0.00  0.00    +0.115 A 
ATOM      9  N   UNL     1      10.340  -3.483  -4.417  0.00  0.00    -0.263 NA
ATOM     10  C   UNL     1       9.660  -4.202  -3.546  0.00  0.00    +0.111 A 
ATOM     11  C   UNL     1       9.208  -3.642  -2.366  0.00  0.00    +0.020 A 
ATOM     12  C   UNL     1       9.482  -2.309  -2.103  0.00  0.00    +0.008 A 
ENDBRANCH   3   7
TORSDOF 1
ENDMDL
MODEL 9
REMARK VINA RESULT:    -3.328      4.512      5.716
REMARK INTER + INTRA:          -3.740
REMARK INTER:                  -3.528
REMARK INTRA:                  -0.211
REMARK UNBOUND:                -0.218
REMARK  Name = Nicotine.pdb
REMARK  2 active torsions:
REMARK  status: ('A' for Active; 'I' for Inactive)
REMARK    1  A    between atoms: C_3  and  C_6
REMARK    2  A    between atoms: N_4  and  C_12
REMARK                            x       y       z     vdW  Elec       q    Type
REMARK                         _______ _______ _______ _____ _____    ______ ____
ROOT
ATOM      1  C   UNL     1      10.382   3.675   0.622  0.00  0.00    +0.017 C 
ATOM      2  C   UNL     1       9.469   2.703   1.413  0.00  0.00    +0.025 C 
ATOM      3  C   UNL     1       8.636   3.653   2.300  0.00  0.00    +0.088 C 
ATOM      4  N   UNL     1       9.393   4.911   2.424  0.00  0.00    -0.298 NA
ATOM      5  C   UNL     1      10.663   4.772   1.679  0.00  0.00    +0.085 C 
ATOM      6  C   UNL     1       8.611   6.049   1.925  0.00  0.00    +0.105 C 
ENDROOT
BRANCH   3   7
ATOM      7  C   UNL     1       8.432   3.038   3.660  0.00  0.00    -0.012 A 
ATOM      8  C   UNL     1       9.435   2.289   4.246  0.00  0.00    +0.115 A 
ATOM      9  N   UNL     1       9.265   1.748   5.437  0.00  0.00    -0.263 NA
ATOM     10  C   UNL     1       8.143   1.896   6.111  0.00  0.00    +0.111 A 
ATOM     11  C   UNL     1       7.095   2.633   5.590  0.00  0.00    +0.020 A 
ATOM     12  C   UNL     1       7.239   3.221   4.343  0.00  0.00    +0.008 A 
ENDBRANCH   3   7
TORSDOF 1
ENDMDL
MODEL 10
REMARK VINA RESULT:    -3.298      2.146      5.087
REMARK INTER + INTRA:          -3.708
REMARK INTER:                  -3.485
REMARK INTRA:                  -0.223
REMARK UNBOUND:                -0.218
REMARK  Name = Nicotine.pdb
REMARK  2 active torsions:
REMARK  status: ('A' for Active; 'I' for Inactive)
REMARK    1  A    between atoms: C_3  and  C_6
REMARK    2  A    between atoms: N_4  and  C_12
REMARK                            x       y       z     vdW  Elec       q    Type
REMARK                         _______ _______ _______ _____ _____    ______ ____
ROOT
ATOM      1  C   UNL     1       4.258   5.903   3.959  0.00  0.00    +0.017 C 
ATOM      2  C   UNL     1       5.354   5.292   3.047  0.00  0.00    +0.025 C 
ATOM      3  C   UNL     1       6.083   4.311   3.990  0.00  0.00    +0.088 C 
ATOM      4  N   UNL     1       5.822   4.756   5.371  0.00  0.00    -0.298 NA
ATOM      5  C   UNL     1       4.990   5.978   5.322  0.00  0.00    +0.085 C 
ATOM      6  C   UNL     1       5.162   3.700   6.150  0.00  0.00    +0.105 C 
ENDROOT
BRANCH   3   7
ATOM      7  C   UNL     1       7.563   4.336   3.713  0.00  0.00    -0.012 A 
ATOM      8  C   UNL     1       8.464   4.531   4.742  0.00  0.00    +0.115 A 
ATOM      9  N   UNL     1       9.762   4.555   4.508  0.00  0.00    -0.263 NA
ATOM     10  C   UNL     1      10.250   4.396   3.294  0.00  0.00    +0.111 A 
ATOM     11  C   UNL     1       9.410   4.196   2.214  0.00  0.00    +0.020 A 
ATOM     12  C   UNL     1       8.040   4.160   2.423  0.00  0.00    +0.008 A 
ENDBRANCH   3   7
TORSDOF 1
ENDMDL
