MODEL 1
REMARK VINA RESULT:    -5.395      0.000      0.000
REMARK INTER + INTRA:          -5.942
REMARK INTER:                  -5.710
REMARK INTRA:                  -0.232
REMARK UNBOUND:                -0.232
REMARK  Name = Nicotine.pdb
REMARK  2 active torsions:
REMARK  status: ('A' for Active; 'I' for Inactive)
REMARK    1  A    between atoms: C_3  and  C_6
REMARK    2  A    between atoms: N_4  and  C_12
REMARK                            x       y       z     vdW  Elec       q    Type
REMARK                         _______ _______ _______ _____ _____    ______ ____
ROOT
ATOM      1  C   UNL     1       2.700  -0.355   0.663  0.00  0.00    +0.017 C 
ATOM      2  C   UNL     1       3.044  -1.503  -0.322  0.00  0.00    +0.025 C 
ATOM      3  C   UNL     1       1.662  -1.912  -0.875  0.00  0.00    +0.088 C 
ATOM      4  N   UNL     1       0.652  -1.472   0.104  0.00  0.00    -0.298 NA
ATOM      5  C   UNL     1       1.347  -0.836   1.243  0.00  0.00    +0.085 C 
ATOM      6  C   UNL     1      -0.310  -0.547  -0.510  0.00  0.00    +0.105 C 
ENDROOT
BRANCH   3   7
ATOM      7  C   UNL     1       1.599  -3.408  -1.042  0.00  0.00    -0.012 A 
ATOM      8  C   UNL     1       1.196  -3.961  -2.243  0.00  0.00    +0.115 A 
ATOM      9  N   UNL     1       1.138  -5.269  -2.398  0.00  0.00    -0.263 NA
ATOM     10  C   UNL     1       1.458  -6.097  -1.423  0.00  0.00    +0.111 A 
ATOM     11  C   UNL     1       1.871  -5.617  -0.194  0.00  0.00    +0.020 A 
ATOM     12  C   UNL     1       1.949  -4.247   0.004  0.00  0.00    +0.008 A 
ENDBRANCH   3   7
TORSDOF 1
ENDMDL
MODEL 2
REMARK VINA RESULT:    -5.354      1.564      4.445
REMARK INTER + INTRA:          -5.899
REMARK INTER:                  -5.644
REMARK INTRA:                  -0.254
REMARK UNBOUND:                -0.232
REMARK  Name = Nicotine.pdb
REMARK  2 active torsions:
REMARK  status: ('A' for Active; 'I' for Inactive)
REMARK    1  A    between atoms: C_3  and  C_6
REMARK    2  A    between atoms: N_4  and  C_12
REMARK                            x       y       z     vdW  Elec       q    Type
REMARK                         _______ _______ _______ _____ _____    ______ ____
ROOT
ATOM      1  C   UNL     1       1.344  -4.809  -1.154  0.00  0.00    +0.017 C 
ATOM      2  C   UNL     1       1.989  -3.797  -0.170  0.00  0.00    +0.025 C 
ATOM      3  C   UNL     1       1.022  -2.595  -0.226  0.00  0.00    +0.088 C 
ATOM      4  N   UNL     1       0.288  -2.683  -1.501  0.00  0.00    -0.298 NA
ATOM      5  C   UNL     1       0.773  -3.866  -2.243  0.00  0.00    +0.085 C 
ATOM      6  C   UNL     1      -1.160  -2.763  -1.270  0.00  0.00    +0.105 C 
ENDROOT
BRANCH   3   7
ATOM      7  C   UNL     1       1.802  -1.307  -0.170  0.00  0.00    -0.012 A 
ATOM      8  C   UNL     1       1.157  -0.108   0.069  0.00  0.00    +0.115 A 
ATOM      9  N   UNL     1       1.832   1.023   0.120  0.00  0.00    -0.263 NA
ATOM     10  C   UNL     1       3.138   1.059  -0.054  0.00  0.00    +0.111 A 
ATOM     11  C   UNL     1       3.852  -0.100  -0.297  0.00  0.00    +0.020 A 
ATOM     12  C   UNL     1       3.177  -1.309  -0.352  0.00  0.00    +0.008 A 
ENDBRANCH   3   7
TORSDOF 1
ENDMDL
MODEL 3
REMARK VINA RESULT:    -5.252      2.220      4.512
REMARK INTER + INTRA:          -5.791
REMARK INTER:                  -5.535
REMARK INTRA:                  -0.256
REMARK UNBOUND:                -0.232
REMARK  Name = Nicotine.pdb
REMARK  2 active torsions:
REMARK  status: ('A' for Active; 'I' for Inactive)
REMARK    1  A    between atoms: C_3  and  C_6
REMARK    2  A    between atoms: N_4  and  C_12
REMARK                            x       y       z     vdW  Elec       q    Type
REMARK                         _______ _______ _______ _____ _____    ______ ____
ROOT
ATOM      1  C   UNL     1      -0.464  -3.653  -0.909  0.00  0.00    +0.017 C 
ATOM      2  C   UNL     1       0.538  -2.969   0.059  0.00  0.00    +0.025 C 
ATOM      3  C   UNL     1       0.215  -1.469  -0.110  0.00  0.00    +0.088 C 
ATOM      4  N   UNL     1      -0.444  -1.309  -1.419  0.00  0.00    -0.298 NA
ATOM      5  C   UNL     1      -0.520  -2.633  -2.073  0.00  0.00    +0.085 C 
ATOM      6  C   UNL     1      -1.780  -0.719  -1.267  0.00  0.00    +0.105 C 
ENDROOT
BRANCH   3   7
ATOM      7  C   UNL     1       1.488  -0.664  -0.074  0.00  0.00    -0.012 A 
ATOM      8  C   UNL     1       1.456   0.680   0.248  0.00  0.00    +0.115 A 
ATOM      9  N   UNL     1       2.566   1.392   0.282  0.00  0.00    -0.263 NA
ATOM     10  C   UNL     1       3.740   0.858   0.013  0.00  0.00    +0.111 A 
ATOM     11  C   UNL     1       3.851  -0.480  -0.316  0.00  0.00    +0.020 A 
ATOM     12  C   UNL     1       2.707  -1.262  -0.357  0.00  0.00    +0.008 A 
ENDBRANCH   3   7
TORSDOF 1
ENDMDL
MODEL 4
REMARK VINA RESULT:    -4.882      1.305      2.264
REMARK INTER + INTRA:          -5.399
REMARK INTER:                  -5.207
REMARK INTRA:                  -0.193
REMARK UNBOUND:                -0.232
REMARK  Name = Nicotine.pdb
REMARK  2 active torsions:
REMARK  status: ('A' for Active; 'I' for Inactive)
REMARK    1  A    between atoms: C_3  and  C_6
REMARK    2  A    between atoms: N_4  and  C_12
REMARK                            x       y       z     vdW  Elec       q    Type
REMARK                         _______ _______ _______ _____ _____    ______ ____
ROOT
ATOM      1  C   UNL     1       0.921   0.103   0.627  0.00  0.00    +0.017 C 
ATOM      2  C   UNL     1       0.823  -1.432   0.831  0.00  0.00    +0.025 C 
ATOM      3  C   UNL     1       2.106  -1.955   0.152  0.00  0.00    +0.088 C 
ATOM      4  N   UNL     1       2.542  -0.927  -0.811  0.00  0.00    -0.298 NA
ATOM      5  C   UNL     1       1.575   0.191  -0.775  0.00  0.00    +0.085 C 
ATOM      6  C   UNL     1       3.900  -0.459  -0.504  0.00  0.00    +0.105 C 
ENDROOT
BRANCH   3   7
ATOM      7  C   UNL     1       1.815  -3.245  -0.570  0.00  0.00    -0.012 A 
ATOM      8  C   UNL     1       1.996  -4.458   0.066  0.00  0.00    +0.115 A 
ATOM      9  N   UNL     1       1.743  -5.592  -0.558  0.00  0.00    -0.263 NA
ATOM     10  C   UNL     1       1.312  -5.616  -1.804  0.00  0.00    +0.111 A 
ATOM     11  C   UNL     1       1.107  -4.442  -2.504  0.00  0.00    +0.020 A 
ATOM     12  C   UNL     1       1.357  -3.230  -1.878  0.00  0.00    +0.008 A 
ENDBRANCH   3   7
TORSDOF 1
ENDMDL
MODEL 5
REMARK VINA RESULT:    -4.881      1.549      4.485
REMARK INTER + INTRA:          -5.398
REMARK INTER:                  -5.182
REMARK INTRA:                  -0.215
REMARK UNBOUND:                -0.232
REMARK  Name = Nicotine.pdb
REMARK  2 active torsions:
REMARK  status: ('A' for Active; 'I' for Inactive)
REMARK    1  A    between atoms: C_3  and  C_6
REMARK    2  A    between atoms: N_4  and  C_12
REMARK                            x       y       z     vdW  Elec       q    Type
REMARK                         _______ _______ _______ _____ _____    ______ ____
ROOT
ATOM      1  C   UNL     1      -0.695  -4.663  -0.946  0.00  0.00    +0.017 C 
ATOM      2  C   UNL     1      -0.088  -3.389  -1.591  0.00  0.00    +0.025 C 
ATOM      3  C   UNL     1       1.340  -3.351  -1.007  0.00  0.00    +0.088 C 
ATOM      4  N   UNL     1       1.323  -4.140   0.239  0.00  0.00    -0.298 NA
ATOM      5  C   UNL     1      -0.050  -4.639   0.462  0.00  0.00    +0.085 C 
ATOM      6  C   UNL     1       2.284  -5.249   0.173  0.00  0.00    +0.105 C 
ENDROOT
BRANCH   3   7
ATOM      7  C   UNL     1       1.734  -1.928  -0.709  0.00  0.00    -0.012 A 
ATOM      8  C   UNL     1       0.767  -0.953  -0.552  0.00  0.00    +0.115 A 
ATOM      9  N   UNL     1       1.104   0.295  -0.291  0.00  0.00    -0.263 NA
ATOM     10  C   UNL     1       2.364   0.662  -0.171  0.00  0.00    +0.111 A 
ATOM     11  C   UNL     1       3.386  -0.257  -0.314  0.00  0.00    +0.020 A 
ATOM     12  C   UNL     1       3.070  -1.580  -0.583  0.00  0.00    +0.008 A 
ENDBRANCH   3   7
TORSDOF 1
ENDMDL
MODEL 6
REMARK VINA RESULT:    -4.713      1.745      2.672
REMARK INTER + INTRA:          -5.220
REMARK INTER:                  -5.028
REMARK INTRA:                  -0.191
REMARK UNBOUND:                -0.232
REMARK  Name = Nicotine.pdb
REMARK  2 active torsions:
REMARK  status: ('A' for Active; 'I' for Inactive)
REMARK    1  A    between atoms: C_3  and  C_6
REMARK    2  A    between atoms: N_4  and  C_12
REMARK                            x       y       z     vdW  Elec       q    Type
REMARK                         _______ _______ _______ _____ _____    ______ ____
ROOT
ATOM      1  C   UNL     1       1.375   1.466   0.516  0.00  0.00    +0.017 C 
ATOM      2  C   UNL     1       0.476   0.210   0.372  0.00  0.00    +0.025 C 
ATOM      3  C   UNL     1       1.499  -0.944   0.318  0.00  0.00    +0.088 C 
ATOM      4  N   UNL     1       2.785  -0.369  -0.115  0.00  0.00    -0.298 NA
ATOM      5  C   UNL     1       2.597   1.078  -0.354  0.00  0.00    +0.085 C 
ATOM      6  C   UNL     1       3.832  -0.606   0.887  0.00  0.00    +0.105 C 
ENDROOT
BRANCH   3   7
ATOM      7  C   UNL     1       1.044  -1.987  -0.671  0.00  0.00    -0.012 A 
ATOM      8  C   UNL     1      -0.226  -1.928  -1.213  0.00  0.00    +0.115 A 
ATOM      9  N   UNL     1      -0.633  -2.837  -2.078  0.00  0.00    -0.263 NA
ATOM     10  C   UNL     1       0.147  -3.829  -2.459  0.00  0.00    +0.111 A 
ATOM     11  C   UNL     1       1.431  -3.952  -1.960  0.00  0.00    +0.020 A 
ATOM     12  C   UNL     1       1.895  -3.013  -1.052  0.00  0.00    +0.008 A 
ENDBRANCH   3   7
TORSDOF 1
ENDMDL
MODEL 7
REMARK VINA RESULT:    -4.684      1.957      4.383
REMARK INTER + INTRA:          -5.189
REMARK INTER:                  -4.977
REMARK INTRA:                  -0.213
REMARK UNBOUND:                -0.232
REMARK  Name = Nicotine.pdb
REMARK  2 active torsions:
REMARK  status: ('A' for Active; 'I' for Inactive)
REMARK    1  A    between atoms: C_3  and  C_6
REMARK    2  A    between atoms: N_4  and  C_12
REMARK                            x       y       z     vdW  Elec       q    Type
REMARK                         _______ _______ _______ _____ _____    ______ ____
ROOT
ATOM      1  C   UNL     1      -2.067  -2.291  -1.293  0.00  0.00    +0.017 C 
ATOM      2  C   UNL     1      -1.040  -1.153  -1.060  0.00  0.00    +0.025 C 
ATOM      3  C   UNL     1       0.304  -1.817  -1.427  0.00  0.00    +0.088 C 
ATOM      4  N   UNL     1       0.121  -3.274  -1.298  0.00  0.00    -0.298 NA
ATOM      5  C   UNL     1      -1.262  -3.536  -0.845  0.00  0.00    +0.085 C 
ATOM      6  C   UNL     1       0.397  -3.955  -2.570  0.00  0.00    +0.105 C 
ENDROOT
BRANCH   3   7
ATOM      7  C   UNL     1       1.382  -1.349  -0.484  0.00  0.00    -0.012 A 
ATOM      8  C   UNL     1       1.086  -1.084   0.840  0.00  0.00    +0.115 A 
ATOM      9  N   UNL     1       2.023  -0.675   1.672  0.00  0.00    -0.263 NA
ATOM     10  C   UNL     1       3.270  -0.502   1.280  0.00  0.00    +0.111 A 
ATOM     11  C   UNL     1       3.642  -0.748  -0.029  0.00  0.00    +0.020 A 
ATOM     12  C   UNL     1       2.684  -1.185  -0.931  0.00  0.00    +0.008 A 
ENDBRANCH   3   7
TORSDOF 1
ENDMDL
MODEL 8
REMARK VINA RESULT:    -4.478      2.094      4.116
REMARK INTER + INTRA:          -4.971
REMARK INTER:                  -4.787
REMARK INTRA:                  -0.184
REMARK UNBOUND:                -0.232
REMARK  Name = Nicotine.pdb
REMARK  2 active torsions:
REMARK  status: ('A' for Active; 'I' for Inactive)
REMARK    1  A    between atoms: C_3  and  C_6
REMARK    2  A    between atoms: N_4  and  C_12
REMARK                            x       y       z     vdW  Elec       q    Type
REMARK                         _______ _______ _______ _____ _____    ______ ____
ROOT
ATOM      1  C   UNL     1       2.374  -0.844   0.826  0.00  0.00    +0.017 C 
ATOM      2  C   UNL     1       0.843  -0.650   0.661  0.00  0.00    +0.025 C 
ATOM      3  C   UNL     1       0.423  -1.886  -0.162  0.00  0.00    +0.088 C 
ATOM      4  N   UNL     1       1.624  -2.372  -0.864  0.00  0.00    -0.298 NA
ATOM      5  C   UNL     1       2.757  -1.481  -0.533  0.00  0.00    +0.085 C 
ATOM      6  C   UNL     1       1.923  -3.762  -0.497  0.00  0.00    +0.105 C 
ENDROOT
BRANCH   3   7
ATOM      7  C   UNL     1      -0.636  -1.500  -1.162  0.00  0.00    -0.012 A 
ATOM      8  C   UNL     1      -1.437  -0.396  -0.941  0.00  0.00    +0.115 A 
ATOM      9  N   UNL     1      -2.366  -0.051  -1.811  0.00  0.00    -0.263 NA
ATOM     10  C   UNL     1      -2.569  -0.738  -2.917  0.00  0.00    +0.111 A 
ATOM     11  C   UNL     1      -1.806  -1.854  -3.207  0.00  0.00    +0.020 A 
ATOM     12  C   UNL     1      -0.816  -2.244  -2.318  0.00  0.00    +0.008 A 
ENDBRANCH   3   7
TORSDOF 1
ENDMDL
MODEL 9
REMARK VINA RESULT:    -4.403      2.891      4.495
REMARK INTER + INTRA:          -4.892
REMARK INTER:                  -4.697
REMARK INTRA:                  -0.194
REMARK UNBOUND:                -0.232
REMARK  Name = Nicotine.pdb
REMARK  2 active torsions:
REMARK  status: ('A' for Active; 'I' for Inactive)
REMARK    1  A    between atoms: C_3  and  C_6
REMARK    2  A    between atoms: N_4  and  C_12
REMARK                            x       y       z     vdW  Elec       q    Type
REMARK                         _______ _______ _______ _____ _____    ______ ____
ROOT
ATOM      1  C   UNL     1      -3.671   0.233  -2.318  0.00  0.00    +0.017 C 
ATOM      2  C   UNL     1      -2.560  -0.018  -1.264  0.00  0.00    +0.025 C 
ATOM      3  C   UNL     1      -1.445  -0.695  -2.090  0.00  0.00    +0.088 C 
ATOM      4  N   UNL     1      -2.080  -1.279  -3.285  0.00  0.00    -0.298 NA
ATOM      5  C   UNL     1      -3.534  -1.018  -3.222  0.00  0.00    +0.085 C 
ATOM      6  C   UNL     1      -1.498  -0.727  -4.515  0.00  0.00    +0.105 C 
ENDROOT
BRANCH   3   7
ATOM      7  C   UNL     1      -0.789  -1.778  -1.274  0.00  0.00    -0.012 A 
ATOM      8  C   UNL     1       0.329  -1.498  -0.511  0.00  0.00    +0.115 A 
ATOM      9  N   UNL     1       0.909  -2.441   0.207  0.00  0.00    -0.263 NA
ATOM     10  C   UNL     1       0.453  -3.677   0.225  0.00  0.00    +0.111 A 
ATOM     11  C   UNL     1      -0.661  -4.032  -0.513  0.00  0.00    +0.020 A 
ATOM     12  C   UNL     1      -1.301  -3.066  -1.275  0.00  0.00    +0.008 A 
ENDBRANCH   3   7
TORSDOF 1
ENDMDL
MODEL 10
REMARK VINA RESULT:    -4.366      1.947      4.499
REMARK INTER + INTRA:          -4.853
REMARK INTER:                  -4.615
REMARK INTRA:                  -0.238
REMARK UNBOUND:                -0.232
REMARK  Name = Nicotine.pdb
REMARK  2 active torsions:
REMARK  status: ('A' for Active; 'I' for Inactive)
REMARK    1  A    between atoms: C_3  and  C_6
REMARK    2  A    between atoms: N_4  and  C_12
REMARK                            x       y       z     vdW  Elec       q    Type
REMARK                         _______ _______ _______ _____ _____    ______ ____
ROOT
ATOM      1  C   UNL     1       1.323  -5.184  -1.005  0.00  0.00    +0.017 C 
ATOM      2  C   UNL     1       0.321  -4.379  -1.875  0.00  0.00    +0.025 C 
ATOM      3  C   UNL     1       0.661  -2.914  -1.530  0.00  0.00    +0.088 C 
ATOM      4  N   UNL     1       1.332  -2.918  -0.218  0.00  0.00    -0.298 NA
ATOM      5  C   UNL     1       1.399  -4.311   0.273  0.00  0.00    +0.085 C 
ATOM      6  C   UNL     1       2.674  -2.327  -0.310  0.00  0.00    +0.105 C 
ENDROOT
BRANCH   3   7
ATOM      7  C   UNL     1      -0.603  -2.097  -1.459  0.00  0.00    -0.012 A 
ATOM      8  C   UNL     1      -0.550  -0.754  -1.135  0.00  0.00    +0.115 A 
ATOM      9  N   UNL     1      -1.652  -0.032  -1.070  0.00  0.00    -0.263 NA
ATOM     10  C   UNL     1      -2.838  -0.555  -1.309  0.00  0.00    +0.111 A 
ATOM     11  C   UNL     1      -2.969  -1.891  -1.639  0.00  0.00    +0.020 A 
ATOM     12  C   UNL     1      -1.833  -2.680  -1.722  0.00  0.00    +0.008 A 
ENDBRANCH   3   7
TORSDOF 1
ENDMDL
