MODEL 1
REMARK VINA RESULT:    -3.828      0.000      0.000
REMARK INTER + INTRA:          -4.273
REMARK INTER:                  -4.052
REMARK INTRA:                  -0.221
REMARK UNBOUND:                -0.221
REMARK  Name = Nicotine.pdb
REMARK  2 active torsions:
REMARK  status: ('A' for Active; 'I' for Inactive)
REMARK    1  A    between atoms: C_3  and  C_6
REMARK    2  A    between atoms: N_4  and  C_12
REMARK                            x       y       z     vdW  Elec       q    Type
REMARK                         _______ _______ _______ _____ _____    ______ ____
ROOT
ATOM      1  C   UNL     1       5.951   1.366  -0.543  0.00  0.00    +0.017 C 
ATOM      2  C   UNL     1       4.428   1.653  -0.471  0.00  0.00    +0.025 C 
ATOM      3  C   UNL     1       3.859   0.359   0.150  0.00  0.00    +0.088 C 
ATOM      4  N   UNL     1       4.838  -0.713  -0.104  0.00  0.00    -0.298 NA
ATOM      5  C   UNL     1       5.968  -0.148  -0.871  0.00  0.00    +0.085 C 
ATOM      6  C   UNL     1       5.302  -1.311   1.155  0.00  0.00    +0.105 C 
ENDROOT
BRANCH   3   7
ATOM      7  C   UNL     1       2.542   0.016  -0.497  0.00  0.00    -0.012 A 
ATOM      8  C   UNL     1       2.298  -1.267  -0.948  0.00  0.00    +0.115 A 
ATOM      9  N   UNL     1       1.148  -1.576  -1.515  0.00  0.00    -0.263 NA
ATOM     10  C   UNL     1       0.192  -0.682  -1.674  0.00  0.00    +0.111 A 
ATOM     11  C   UNL     1       0.364   0.622  -1.248  0.00  0.00    +0.020 A 
ATOM     12  C   UNL     1       1.558   0.982  -0.642  0.00  0.00    +0.008 A 
ENDBRANCH   3   7
TORSDOF 1
ENDMDL
MODEL 2
REMARK VINA RESULT:    -3.799      1.453      4.461
REMARK INTER + INTRA:          -4.241
REMARK INTER:                  -4.025
REMARK INTRA:                  -0.217
REMARK UNBOUND:                -0.221
REMARK  Name = Nicotine.pdb
REMARK  2 active torsions:
REMARK  status: ('A' for Active; 'I' for Inactive)
REMARK    1  A    between atoms: C_3  and  C_6
REMARK    2  A    between atoms: N_4  and  C_12
REMARK                            x       y       z     vdW  Elec       q    Type
REMARK                         _______ _______ _______ _____ _____    ______ ____
ROOT
ATOM      1  C   UNL     1      -0.282   2.374   0.619  0.00  0.00    +0.017 C 
ATOM      2  C   UNL     1       1.207   2.536   0.213  0.00  0.00    +0.025 C 
ATOM      3  C   UNL     1       1.443   1.334  -0.726  0.00  0.00    +0.088 C 
ATOM      4  N   UNL     1       0.420   0.323  -0.407  0.00  0.00    -0.298 NA
ATOM      5  C   UNL     1      -0.418   0.833   0.699  0.00  0.00    +0.085 C 
ATOM      6  C   UNL     1      -0.397   0.010  -1.587  0.00  0.00    +0.105 C 
ENDROOT
BRANCH   3   7
ATOM      7  C   UNL     1       2.819   0.765  -0.494  0.00  0.00    -0.012 A 
ATOM      8  C   UNL     1       3.026  -0.601  -0.537  0.00  0.00    +0.115 A 
ATOM      9  N   UNL     1       4.227  -1.108  -0.335  0.00  0.00    -0.263 NA
ATOM     10  C   UNL     1       5.270  -0.341  -0.085  0.00  0.00    +0.111 A 
ATOM     11  C   UNL     1       5.139   1.034  -0.026  0.00  0.00    +0.020 A 
ATOM     12  C   UNL     1       3.893   1.603  -0.239  0.00  0.00    +0.008 A 
ENDBRANCH   3   7
TORSDOF 1
ENDMDL
MODEL 3
REMARK VINA RESULT:    -3.684      3.584      4.479
REMARK INTER + INTRA:          -4.120
REMARK INTER:                  -3.914
REMARK INTRA:                  -0.206
REMARK UNBOUND:                -0.221
REMARK  Name = Nicotine.pdb
REMARK  2 active torsions:
REMARK  status: ('A' for Active; 'I' for Inactive)
REMARK    1  A    between atoms: C_3  and  C_6
REMARK    2  A    between atoms: N_4  and  C_12
REMARK                            x       y       z     vdW  Elec       q    Type
REMARK                         _______ _______ _______ _____ _____    ______ ____
ROOT
ATOM      1  C   UNL     1       2.312  -0.905   4.732  0.00  0.00    +0.017 C 
ATOM      2  C   UNL     1       1.166   0.029   4.261  0.00  0.00    +0.025 C 
ATOM      3  C   UNL     1       0.843  -0.502   2.849  0.00  0.00    +0.088 C 
ATOM      4  N   UNL     1       2.034  -1.227   2.371  0.00  0.00    -0.298 NA
ATOM      5  C   UNL     1       3.083  -1.145   3.410  0.00  0.00    +0.085 C 
ATOM      6  C   UNL     1       1.711  -2.625   2.058  0.00  0.00    +0.105 C 
ENDROOT
BRANCH   3   7
ATOM      7  C   UNL     1       0.536   0.648   1.926  0.00  0.00    -0.012 A 
ATOM      8  C   UNL     1      -0.683   1.295   1.995  0.00  0.00    +0.115 A 
ATOM      9  N   UNL     1      -0.959   2.303   1.191  0.00  0.00    -0.263 NA
ATOM     10  C   UNL     1      -0.093   2.732   0.295  0.00  0.00    +0.111 A 
ATOM     11  C   UNL     1       1.148   2.135   0.168  0.00  0.00    +0.020 A 
ATOM     12  C   UNL     1       1.476   1.076   1.000  0.00  0.00    +0.008 A 
ENDBRANCH   3   7
TORSDOF 1
ENDMDL
MODEL 4
REMARK VINA RESULT:    -3.670      3.022      4.357
REMARK INTER + INTRA:          -4.106
REMARK INTER:                  -3.870
REMARK INTRA:                  -0.235
REMARK UNBOUND:                -0.221
REMARK  Name = Nicotine.pdb
REMARK  2 active torsions:
REMARK  status: ('A' for Active; 'I' for Inactive)
REMARK    1  A    between atoms: C_3  and  C_6
REMARK    2  A    between atoms: N_4  and  C_12
REMARK                            x       y       z     vdW  Elec       q    Type
REMARK                         _______ _______ _______ _____ _____    ______ ____
ROOT
ATOM      1  C   UNL     1       0.428   0.405   3.855  0.00  0.00    +0.017 C 
ATOM      2  C   UNL     1       0.745   0.554   2.344  0.00  0.00    +0.025 C 
ATOM      3  C   UNL     1       1.633  -0.674   2.053  0.00  0.00    +0.088 C 
ATOM      4  N   UNL     1       2.218  -1.105   3.335  0.00  0.00    -0.298 NA
ATOM      5  C   UNL     1       1.754  -0.186   4.396  0.00  0.00    +0.085 C 
ATOM      6  C   UNL     1       1.851  -2.493   3.643  0.00  0.00    +0.105 C 
ENDROOT
BRANCH   3   7
ATOM      7  C   UNL     1       2.728  -0.299   1.089  0.00  0.00    -0.012 A 
ATOM      8  C   UNL     1       3.697  -1.220   0.737  0.00  0.00    +0.115 A 
ATOM      9  N   UNL     1       4.659  -0.899  -0.106  0.00  0.00    -0.263 NA
ATOM     10  C   UNL     1       4.737   0.302  -0.644  0.00  0.00    +0.111 A 
ATOM     11  C   UNL     1       3.804   1.275  -0.340  0.00  0.00    +0.020 A 
ATOM     12  C   UNL     1       2.775   0.973   0.538  0.00  0.00    +0.008 A 
ENDBRANCH   3   7
TORSDOF 1
ENDMDL
MODEL 5
REMARK VINA RESULT:    -3.644      2.007      3.538
REMARK INTER + INTRA:          -4.077
REMARK INTER:                  -3.876
REMARK INTRA:                  -0.201
REMARK UNBOUND:                -0.221
REMARK  Name = Nicotine.pdb
REMARK  2 active torsions:
REMARK  status: ('A' for Active; 'I' for Inactive)
REMARK    1  A    between atoms: C_3  and  C_6
REMARK    2  A    between atoms: N_4  and  C_12
REMARK                            x       y       z     vdW  Elec       q    Type
REMARK                         _______ _______ _______ _____ _____    ______ ____
ROOT
ATOM      1  C   UNL     1       1.963  -2.886  -0.569  0.00  0.00    +0.017 C 
ATOM      2  C   UNL     1       0.931  -1.931  -1.224  0.00  0.00    +0.025 C 
ATOM      3  C   UNL     1       1.590  -0.544  -1.064  0.00  0.00    +0.088 C 
ATOM      4  N   UNL     1       2.552  -0.644   0.049  0.00  0.00    -0.298 NA
ATOM      5  C   UNL     1       2.498  -2.017   0.596  0.00  0.00    +0.085 C 
ATOM      6  C   UNL     1       3.910  -0.308  -0.397  0.00  0.00    +0.105 C 
ENDROOT
BRANCH   3   7
ATOM      7  C   UNL     1       0.540   0.488  -0.744  0.00  0.00    -0.012 A 
ATOM      8  C   UNL     1      -0.631   0.544  -1.476  0.00  0.00    +0.115 A 
ATOM      9  N   UNL     1      -1.555   1.445  -1.202  0.00  0.00    -0.263 NA
ATOM     10  C   UNL     1      -1.402   2.322  -0.230  0.00  0.00    +0.111 A 
ATOM     11  C   UNL     1      -0.257   2.327   0.544  0.00  0.00    +0.020 A 
ATOM     12  C   UNL     1       0.734   1.391   0.290  0.00  0.00    +0.008 A 
ENDBRANCH   3   7
TORSDOF 1
ENDMDL
MODEL 6
REMARK VINA RESULT:    -3.643      4.439      5.397
REMARK INTER + INTRA:          -4.077
REMARK INTER:                  -3.825
REMARK INTRA:                  -0.252
REMARK UNBOUND:                -0.221
REMARK  Name = Nicotine.pdb
REMARK  2 active torsions:
REMARK  status: ('A' for Active; 'I' for Inactive)
REMARK    1  A    between atoms: C_3  and  C_6
REMARK    2  A    between atoms: N_4  and  C_12
REMARK                            x       y       z     vdW  Elec       q    Type
REMARK                         _______ _______ _______ _____ _____    ______ ____
ROOT
ATOM      1  C   UNL     1       2.145  -1.588   4.891  0.00  0.00    +0.017 C 
ATOM      2  C   UNL     1       1.910  -0.146   4.371  0.00  0.00    +0.025 C 
ATOM      3  C   UNL     1       0.421  -0.161   3.965  0.00  0.00    +0.088 C 
ATOM      4  N   UNL     1       0.048  -1.567   3.727  0.00  0.00    -0.298 NA
ATOM      5  C   UNL     1       1.240  -2.414   3.942  0.00  0.00    +0.085 C 
ATOM      6  C   UNL     1      -1.055  -1.976   4.607  0.00  0.00    +0.105 C 
ENDROOT
BRANCH   3   7
ATOM      7  C   UNL     1       0.225   0.643   2.706  0.00  0.00    -0.012 A 
ATOM      8  C   UNL     1      -0.925   1.388   2.524  0.00  0.00    +0.115 A 
ATOM      9  N   UNL     1      -1.105   2.095   1.425  0.00  0.00    -0.263 NA
ATOM     10  C   UNL     1      -0.205   2.120   0.463  0.00  0.00    +0.111 A 
ATOM     11  C   UNL     1       0.971   1.401   0.574  0.00  0.00    +0.020 A 
ATOM     12  C   UNL     1       1.197   0.651   1.717  0.00  0.00    +0.008 A 
ENDBRANCH   3   7
TORSDOF 1
ENDMDL
MODEL 7
REMARK VINA RESULT:    -3.617      2.979      4.622
REMARK INTER + INTRA:          -4.050
REMARK INTER:                  -3.797
REMARK INTRA:                  -0.253
REMARK UNBOUND:                -0.221
REMARK  Name = Nicotine.pdb
REMARK  2 active torsions:
REMARK  status: ('A' for Active; 'I' for Inactive)
REMARK    1  A    between atoms: C_3  and  C_6
REMARK    2  A    between atoms: N_4  and  C_12
REMARK                            x       y       z     vdW  Elec       q    Type
REMARK                         _______ _______ _______ _____ _____    ______ ____
ROOT
ATOM      1  C   UNL     1       0.781   1.397  -0.792  0.00  0.00    +0.017 C 
ATOM      2  C   UNL     1       1.705   1.427   0.454  0.00  0.00    +0.025 C 
ATOM      3  C   UNL     1       2.029  -0.065   0.682  0.00  0.00    +0.088 C 
ATOM      4  N   UNL     1       0.962  -0.848   0.034  0.00  0.00    -0.298 NA
ATOM      5  C   UNL     1      -0.016   0.089  -0.558  0.00  0.00    +0.085 C 
ATOM      6  C   UNL     1       1.514  -1.749  -0.986  0.00  0.00    +0.105 C 
ENDROOT
BRANCH   3   7
ATOM      7  C   UNL     1       2.062  -0.363   2.159  0.00  0.00    -0.012 A 
ATOM      8  C   UNL     1       2.955  -1.288   2.666  0.00  0.00    +0.115 A 
ATOM      9  N   UNL     1       2.990  -1.554   3.957  0.00  0.00    -0.263 NA
ATOM     10  C   UNL     1       2.182  -0.956   4.810  0.00  0.00    +0.111 A 
ATOM     11  C   UNL     1       1.263  -0.020   4.376  0.00  0.00    +0.020 A 
ATOM     12  C   UNL     1       1.200   0.291   3.027  0.00  0.00    +0.008 A 
ENDBRANCH   3   7
TORSDOF 1
ENDMDL
MODEL 8
REMARK VINA RESULT:    -3.494      3.480      4.168
REMARK INTER + INTRA:          -3.919
REMARK INTER:                  -3.707
REMARK INTRA:                  -0.212
REMARK UNBOUND:                -0.221
REMARK  Name = Nicotine.pdb
REMARK  2 active torsions:
REMARK  status: ('A' for Active; 'I' for Inactive)
REMARK    1  A    between atoms: C_3  and  C_6
REMARK    2  A    between atoms: N_4  and  C_12
REMARK                            x       y       z     vdW  Elec       q    Type
REMARK                         _______ _______ _______ _____ _____    ______ ____
ROOT
ATOM      1  C   UNL     1       2.442   0.885  -0.992  0.00  0.00    +0.017 C 
ATOM      2  C   UNL     1       2.018   1.576   0.331  0.00  0.00    +0.025 C 
ATOM      3  C   UNL     1       2.022   0.414   1.346  0.00  0.00    +0.088 C 
ATOM      4  N   UNL     1       1.878  -0.837   0.580  0.00  0.00    -0.298 NA
ATOM      5  C   UNL     1       1.760  -0.499  -0.855  0.00  0.00    +0.085 C 
ATOM      6  C   UNL     1       3.016  -1.735   0.818  0.00  0.00    +0.105 C 
ENDROOT
BRANCH   3   7
ATOM      7  C   UNL     1       0.869   0.565   2.304  0.00  0.00    -0.012 A 
ATOM      8  C   UNL     1      -0.335   1.087   1.872  0.00  0.00    +0.115 A 
ATOM      9  N   UNL     1      -1.349   1.223   2.704  0.00  0.00    -0.263 NA
ATOM     10  C   UNL     1      -1.258   0.871   3.971  0.00  0.00    +0.111 A 
ATOM     11  C   UNL     1      -0.085   0.340   4.475  0.00  0.00    +0.020 A 
ATOM     12  C   UNL     1       1.001   0.178   3.629  0.00  0.00    +0.008 A 
ENDBRANCH   3   7
TORSDOF 1
ENDMDL
MODEL 9
REMARK VINA RESULT:    -3.485      5.500      6.150
REMARK INTER + INTRA:          -3.910
REMARK INTER:                  -3.654
REMARK INTRA:                  -0.256
REMARK UNBOUND:                -0.221
REMARK  Name = Nicotine.pdb
REMARK  2 active torsions:
REMARK  status: ('A' for Active; 'I' for Inactive)
REMARK    1  A    between atoms: C_3  and  C_6
REMARK    2  A    between atoms: N_4  and  C_12
REMARK                            x       y       z     vdW  Elec       q    Type
REMARK                         _______ _______ _______ _____ _____    ______ ____
ROOT
ATOM      1  C   UNL     1       2.693  -1.025   3.379  0.00  0.00    +0.017 C 
ATOM      2  C   UNL     1       1.785  -0.292   4.401  0.00  0.00    +0.025 C 
ATOM      3  C   UNL     1       0.456  -1.071   4.306  0.00  0.00    +0.088 C 
ATOM      4  N   UNL     1       0.438  -1.745   2.995  0.00  0.00    -0.298 NA
ATOM      5  C   UNL     1       1.678  -1.398   2.270  0.00  0.00    +0.085 C 
ATOM      6  C   UNL     1       0.308  -3.200   3.153  0.00  0.00    +0.105 C 
ENDROOT
BRANCH   3   7
ATOM      7  C   UNL     1      -0.706  -0.118   4.410  0.00  0.00    -0.012 A 
ATOM      8  C   UNL     1      -1.970  -0.586   4.717  0.00  0.00    +0.115 A 
ATOM      9  N   UNL     1      -2.992   0.241   4.809  0.00  0.00    -0.263 NA
ATOM     10  C   UNL     1      -2.854   1.538   4.615  0.00  0.00    +0.111 A 
ATOM     11  C   UNL     1      -1.620   2.080   4.305  0.00  0.00    +0.020 A 
ATOM     12  C   UNL     1      -0.521   1.241   4.204  0.00  0.00    +0.008 A 
ENDBRANCH   3   7
TORSDOF 1
ENDMDL
MODEL 10
REMARK VINA RESULT:    -3.468      4.726      5.293
REMARK INTER + INTRA:          -3.892
REMARK INTER:                  -3.677
REMARK INTRA:                  -0.215
REMARK UNBOUND:                -0.221
REMARK  Name = Nicotine.pdb
REMARK  2 active torsions:
REMARK  status: ('A' for Active; 'I' for Inactive)
REMARK    1  A    between atoms: C_3  and  C_6
REMARK    2  A    between atoms: N_4  and  C_12
REMARK                            x       y       z     vdW  Elec       q    Type
REMARK                         _______ _______ _______ _____ _____    ______ ____
ROOT
ATOM      1  C   UNL     1       4.579  -1.856   2.804  0.00  0.00    +0.017 C 
ATOM      2  C   UNL     1       3.696  -0.862   3.604  0.00  0.00    +0.025 C 
ATOM      3  C   UNL     1       2.683  -1.789   4.310  0.00  0.00    +0.088 C 
ATOM      4  N   UNL     1       2.630  -3.045   3.540  0.00  0.00    -0.298 NA
ATOM      5  C   UNL     1       3.542  -2.927   2.382  0.00  0.00    +0.085 C 
ATOM      6  C   UNL     1       2.993  -4.194   4.381  0.00  0.00    +0.105 C 
ENDROOT
BRANCH   3   7
ATOM      7  C   UNL     1       1.323  -1.142   4.330  0.00  0.00    -0.012 A 
ATOM      8  C   UNL     1       0.179  -1.917   4.345  0.00  0.00    +0.115 A 
ATOM      9  N   UNL     1      -1.015  -1.359   4.363  0.00  0.00    -0.263 NA
ATOM     10  C   UNL     1      -1.168  -0.049   4.367  0.00  0.00    +0.111 A 
ATOM     11  C   UNL     1      -0.070   0.791   4.352  0.00  0.00    +0.020 A 
ATOM     12  C   UNL     1       1.202   0.240   4.339  0.00  0.00    +0.008 A 
ENDBRANCH   3   7
TORSDOF 1
ENDMDL
