MODEL 1
REMARK VINA RESULT:    -3.979      0.000      0.000
REMARK INTER + INTRA:          -4.408
REMARK INTER:                  -4.212
REMARK INTRA:                  -0.196
REMARK UNBOUND:                -0.196
REMARK  Name = Nicotine.pdb
REMARK  2 active torsions:
REMARK  status: ('A' for Active; 'I' for Inactive)
REMARK    1  A    between atoms: C_3  and  C_6
REMARK    2  A    between atoms: N_4  and  C_12
REMARK                            x       y       z     vdW  Elec       q    Type
REMARK                         _______ _______ _______ _____ _____    ______ ____
ROOT
ATOM      1  C   UNL     1       4.279   1.158   2.506  0.00  0.00    +0.017 C 
ATOM      2  C   UNL     1       3.880   1.478   1.041  0.00  0.00    +0.025 C 
ATOM      3  C   UNL     1       4.442   2.900   0.830  0.00  0.00    +0.088 C 
ATOM      4  N   UNL     1       4.594   3.511   2.163  0.00  0.00    -0.298 NA
ATOM      5  C   UNL     1       4.129   2.545   3.180  0.00  0.00    +0.085 C 
ATOM      6  C   UNL     1       5.988   3.904   2.407  0.00  0.00    +0.105 C 
ENDROOT
BRANCH   3   7
ATOM      7  C   UNL     1       3.484   3.712  -0.002  0.00  0.00    -0.012 A 
ATOM      8  C   UNL     1       3.550   3.672  -1.382  0.00  0.00    +0.115 A 
ATOM      9  N   UNL     1       2.715   4.380  -2.118  0.00  0.00    -0.263 NA
ATOM     10  C   UNL     1       1.792   5.148  -1.574  0.00  0.00    +0.111 A 
ATOM     11  C   UNL     1       1.666   5.237  -0.200  0.00  0.00    +0.020 A 
ATOM     12  C   UNL     1       2.522   4.504   0.606  0.00  0.00    +0.008 A 
ENDBRANCH   3   7
TORSDOF 1
ENDMDL
MODEL 2
REMARK VINA RESULT:    -3.900      0.905      1.292
REMARK INTER + INTRA:          -4.324
REMARK INTER:                  -4.068
REMARK INTRA:                  -0.256
REMARK UNBOUND:                -0.196
REMARK  Name = Nicotine.pdb
REMARK  2 active torsions:
REMARK  status: ('A' for Active; 'I' for Inactive)
REMARK    1  A    between atoms: C_3  and  C_6
REMARK    2  A    between atoms: N_4  and  C_12
REMARK                            x       y       z     vdW  Elec       q    Type
REMARK                         _______ _______ _______ _____ _____    ______ ____
ROOT
ATOM      1  C   UNL     1       4.984   2.705   3.431  0.00  0.00    +0.017 C 
ATOM      2  C   UNL     1       3.773   2.604   2.468  0.00  0.00    +0.025 C 
ATOM      3  C   UNL     1       4.431   2.686   1.074  0.00  0.00    +0.088 C 
ATOM      4  N   UNL     1       5.739   3.342   1.246  0.00  0.00    -0.298 NA
ATOM      5  C   UNL     1       5.907   3.691   2.673  0.00  0.00    +0.085 C 
ATOM      6  C   UNL     1       6.829   2.474   0.784  0.00  0.00    +0.105 C 
ENDROOT
BRANCH   3   7
ATOM      7  C   UNL     1       3.566   3.498   0.145  0.00  0.00    -0.012 A 
ATOM      8  C   UNL     1       3.677   3.349  -1.224  0.00  0.00    +0.115 A 
ATOM      9  N   UNL     1       2.924   4.056  -2.044  0.00  0.00    -0.263 NA
ATOM     10  C   UNL     1       2.042   4.928  -1.596  0.00  0.00    +0.111 A 
ATOM     11  C   UNL     1       1.874   5.131  -0.239  0.00  0.00    +0.020 A 
ATOM     12  C   UNL     1       2.645   4.402   0.653  0.00  0.00    +0.008 A 
ENDBRANCH   3   7
TORSDOF 1
ENDMDL
MODEL 3
REMARK VINA RESULT:    -3.731      1.610      4.406
REMARK INTER + INTRA:          -4.145
REMARK INTER:                  -3.924
REMARK INTRA:                  -0.221
REMARK UNBOUND:                -0.196
REMARK  Name = Nicotine.pdb
REMARK  2 active torsions:
REMARK  status: ('A' for Active; 'I' for Inactive)
REMARK    1  A    between atoms: C_3  and  C_6
REMARK    2  A    between atoms: N_4  and  C_12
REMARK                            x       y       z     vdW  Elec       q    Type
REMARK                         _______ _______ _______ _____ _____    ______ ____
ROOT
ATOM      1  C   UNL     1       3.971   3.597  -2.419  0.00  0.00    +0.017 C 
ATOM      2  C   UNL     1       3.580   3.002  -1.040  0.00  0.00    +0.025 C 
ATOM      3  C   UNL     1       3.753   4.200  -0.083  0.00  0.00    +0.088 C 
ATOM      4  N   UNL     1       4.679   5.146  -0.730  0.00  0.00    -0.298 NA
ATOM      5  C   UNL     1       5.105   4.577  -2.026  0.00  0.00    +0.085 C 
ATOM      6  C   UNL     1       4.049   6.460  -0.914  0.00  0.00    +0.105 C 
ENDROOT
BRANCH   3   7
ATOM      7  C   UNL     1       4.329   3.731   1.228  0.00  0.00    -0.012 A 
ATOM      8  C   UNL     1       5.558   4.196   1.657  0.00  0.00    +0.115 A 
ATOM      9  N   UNL     1       6.069   3.790   2.803  0.00  0.00    -0.263 NA
ATOM     10  C   UNL     1       5.437   2.933   3.580  0.00  0.00    +0.111 A 
ATOM     11  C   UNL     1       4.203   2.425   3.216  0.00  0.00    +0.020 A 
ATOM     12  C   UNL     1       3.632   2.833   2.021  0.00  0.00    +0.008 A 
ENDBRANCH   3   7
TORSDOF 1
ENDMDL
MODEL 4
REMARK VINA RESULT:    -3.593      1.654      2.462
REMARK INTER + INTRA:          -3.999
REMARK INTER:                  -3.784
REMARK INTRA:                  -0.215
REMARK UNBOUND:                -0.196
REMARK  Name = Nicotine.pdb
REMARK  2 active torsions:
REMARK  status: ('A' for Active; 'I' for Inactive)
REMARK    1  A    between atoms: C_3  and  C_6
REMARK    2  A    between atoms: N_4  and  C_12
REMARK                            x       y       z     vdW  Elec       q    Type
REMARK                         _______ _______ _______ _____ _____    ______ ____
ROOT
ATOM      1  C   UNL     1       6.821   2.272   3.331  0.00  0.00    +0.017 C 
ATOM      2  C   UNL     1       6.011   3.550   2.989  0.00  0.00    +0.025 C 
ATOM      3  C   UNL     1       4.715   2.985   2.370  0.00  0.00    +0.088 C 
ATOM      4  N   UNL     1       5.019   1.627   1.885  0.00  0.00    -0.298 NA
ATOM      5  C   UNL     1       6.444   1.339   2.152  0.00  0.00    +0.085 C 
ATOM      6  C   UNL     1       4.151   0.631   2.526  0.00  0.00    +0.105 C 
ENDROOT
BRANCH   3   7
ATOM      7  C   UNL     1       4.274   3.854   1.221  0.00  0.00    -0.012 A 
ATOM      8  C   UNL     1       5.183   4.668   0.572  0.00  0.00    +0.115 A 
ATOM      9  N   UNL     1       4.805   5.432  -0.435  0.00  0.00    -0.263 NA
ATOM     10  C   UNL     1       3.557   5.452  -0.859  0.00  0.00    +0.111 A 
ATOM     11  C   UNL     1       2.592   4.665  -0.259  0.00  0.00    +0.020 A 
ATOM     12  C   UNL     1       2.953   3.845   0.799  0.00  0.00    +0.008 A 
ENDBRANCH   3   7
TORSDOF 1
ENDMDL
MODEL 5
REMARK VINA RESULT:    -3.373      2.690      4.741
REMARK INTER + INTRA:          -3.766
REMARK INTER:                  -3.511
REMARK INTRA:                  -0.256
REMARK UNBOUND:                -0.196
REMARK  Name = Nicotine.pdb
REMARK  2 active torsions:
REMARK  status: ('A' for Active; 'I' for Inactive)
REMARK    1  A    between atoms: C_3  and  C_6
REMARK    2  A    between atoms: N_4  and  C_12
REMARK                            x       y       z     vdW  Elec       q    Type
REMARK                         _______ _______ _______ _____ _____    ______ ____
ROOT
ATOM      1  C   UNL     1       9.422   4.893   2.506  0.00  0.00    +0.017 C 
ATOM      2  C   UNL     1       7.908   5.198   2.650  0.00  0.00    +0.025 C 
ATOM      3  C   UNL     1       7.377   3.969   3.417  0.00  0.00    +0.088 C 
ATOM      4  N   UNL     1       8.335   2.870   3.198  0.00  0.00    -0.298 NA
ATOM      5  C   UNL     1       9.415   3.356   2.312  0.00  0.00    +0.085 C 
ATOM      6  C   UNL     1       8.878   2.382   4.472  0.00  0.00    +0.105 C 
ENDROOT
BRANCH   3   7
ATOM      7  C   UNL     1       6.020   3.581   2.889  0.00  0.00    -0.012 A 
ATOM      8  C   UNL     1       5.194   2.753   3.626  0.00  0.00    +0.115 A 
ATOM      9  N   UNL     1       4.005   2.409   3.171  0.00  0.00    -0.263 NA
ATOM     10  C   UNL     1       3.559   2.836   2.006  0.00  0.00    +0.111 A 
ATOM     11  C   UNL     1       4.329   3.667   1.214  0.00  0.00    +0.020 A 
ATOM     12  C   UNL     1       5.582   4.054   1.662  0.00  0.00    +0.008 A 
ENDBRANCH   3   7
TORSDOF 1
ENDMDL
MODEL 6
REMARK VINA RESULT:    -3.370      1.659      2.980
REMARK INTER + INTRA:          -3.763
REMARK INTER:                  -3.550
REMARK INTRA:                  -0.214
REMARK UNBOUND:                -0.196
REMARK  Name = Nicotine.pdb
REMARK  2 active torsions:
REMARK  status: ('A' for Active; 'I' for Inactive)
REMARK    1  A    between atoms: C_3  and  C_6
REMARK    2  A    between atoms: N_4  and  C_12
REMARK                            x       y       z     vdW  Elec       q    Type
REMARK                         _______ _______ _______ _____ _____    ______ ____
ROOT
ATOM      1  C   UNL     1       5.684   3.750   2.476  0.00  0.00    +0.017 C 
ATOM      2  C   UNL     1       4.865   4.071   1.198  0.00  0.00    +0.025 C 
ATOM      3  C   UNL     1       4.134   2.742   0.912  0.00  0.00    +0.088 C 
ATOM      4  N   UNL     1       4.899   1.670   1.574  0.00  0.00    -0.298 NA
ATOM      5  C   UNL     1       6.079   2.272   2.232  0.00  0.00    +0.085 C 
ATOM      6  C   UNL     1       4.066   0.949   2.544  0.00  0.00    +0.105 C 
ENDROOT
BRANCH   3   7
ATOM      7  C   UNL     1       4.082   2.494  -0.573  0.00  0.00    -0.012 A 
ATOM      8  C   UNL     1       3.438   3.387  -1.409  0.00  0.00    +0.115 A 
ATOM      9  N   UNL     1       3.388   3.178  -2.710  0.00  0.00    -0.263 NA
ATOM     10  C   UNL     1       3.946   2.119  -3.264  0.00  0.00    +0.111 A 
ATOM     11  C   UNL     1       4.608   1.183  -2.492  0.00  0.00    +0.020 A 
ATOM     12  C   UNL     1       4.685   1.372  -1.120  0.00  0.00    +0.008 A 
ENDBRANCH   3   7
TORSDOF 1
ENDMDL
MODEL 7
REMARK VINA RESULT:    -3.231      3.548      5.433
REMARK INTER + INTRA:          -3.616
REMARK INTER:                  -3.393
REMARK INTRA:                  -0.223
REMARK UNBOUND:                -0.196
REMARK  Name = Nicotine.pdb
REMARK  2 active torsions:
REMARK  status: ('A' for Active; 'I' for Inactive)
REMARK    1  A    between atoms: C_3  and  C_6
REMARK    2  A    between atoms: N_4  and  C_12
REMARK                            x       y       z     vdW  Elec       q    Type
REMARK                         _______ _______ _______ _____ _____    ______ ____
ROOT
ATOM      1  C   UNL     1       8.570  -1.210   1.010  0.00  0.00    +0.017 C 
ATOM      2  C   UNL     1       8.164   0.095   1.742  0.00  0.00    +0.025 C 
ATOM      3  C   UNL     1       7.076  -0.384   2.727  0.00  0.00    +0.088 C 
ATOM      4  N   UNL     1       6.533  -1.647   2.197  0.00  0.00    -0.298 NA
ATOM      5  C   UNL     1       7.215  -1.955   0.922  0.00  0.00    +0.085 C 
ATOM      6  C   UNL     1       6.702  -2.740   3.164  0.00  0.00    +0.105 C 
ENDROOT
BRANCH   3   7
ATOM      7  C   UNL     1       5.982   0.647   2.823  0.00  0.00    -0.012 A 
ATOM      8  C   UNL     1       4.675   0.309   2.527  0.00  0.00    +0.115 A 
ATOM      9  N   UNL     1       3.711   1.205   2.608  0.00  0.00    -0.263 NA
ATOM     10  C   UNL     1       3.950   2.449   2.971  0.00  0.00    +0.111 A 
ATOM     11  C   UNL     1       5.232   2.861   3.283  0.00  0.00    +0.020 A 
ATOM     12  C   UNL     1       6.271   1.946   3.214  0.00  0.00    +0.008 A 
ENDBRANCH   3   7
TORSDOF 1
ENDMDL
MODEL 8
REMARK VINA RESULT:    -3.161      1.605      4.404
REMARK INTER + INTRA:          -3.542
REMARK INTER:                  -3.330
REMARK INTRA:                  -0.212
REMARK UNBOUND:                -0.196
REMARK  Name = Nicotine.pdb
REMARK  2 active torsions:
REMARK  status: ('A' for Active; 'I' for Inactive)
REMARK    1  A    between atoms: C_3  and  C_6
REMARK    2  A    between atoms: N_4  and  C_12
REMARK                            x       y       z     vdW  Elec       q    Type
REMARK                         _______ _______ _______ _____ _____    ______ ____
ROOT
ATOM      1  C   UNL     1       4.645   2.027  -2.776  0.00  0.00    +0.017 C 
ATOM      2  C   UNL     1       4.169   1.535  -1.384  0.00  0.00    +0.025 C 
ATOM      3  C   UNL     1       3.845   2.850  -0.643  0.00  0.00    +0.088 C 
ATOM      4  N   UNL     1       4.601   3.925  -1.309  0.00  0.00    -0.298 NA
ATOM      5  C   UNL     1       5.394   3.332  -2.407  0.00  0.00    +0.085 C 
ATOM      6  C   UNL     1       3.700   4.969  -1.814  0.00  0.00    +0.105 C 
ENDROOT
BRANCH   3   7
ATOM      7  C   UNL     1       4.266   2.742   0.800  0.00  0.00    -0.012 A 
ATOM      8  C   UNL     1       3.779   1.724   1.597  0.00  0.00    +0.115 A 
ATOM      9  N   UNL     1       4.143   1.623   2.861  0.00  0.00    -0.263 NA
ATOM     10  C   UNL     1       4.978   2.481   3.412  0.00  0.00    +0.111 A 
ATOM     11  C   UNL     1       5.508   3.525   2.677  0.00  0.00    +0.020 A 
ATOM     12  C   UNL     1       5.153   3.660   1.343  0.00  0.00    +0.008 A 
ENDBRANCH   3   7
TORSDOF 1
ENDMDL
MODEL 9
REMARK VINA RESULT:    -3.108      2.682      4.582
REMARK INTER + INTRA:          -3.486
REMARK INTER:                  -3.265
REMARK INTRA:                  -0.221
REMARK UNBOUND:                -0.196
REMARK  Name = Nicotine.pdb
REMARK  2 active torsions:
REMARK  status: ('A' for Active; 'I' for Inactive)
REMARK    1  A    between atoms: C_3  and  C_6
REMARK    2  A    between atoms: N_4  and  C_12
REMARK                            x       y       z     vdW  Elec       q    Type
REMARK                         _______ _______ _______ _____ _____    ______ ____
ROOT
ATOM      1  C   UNL     1       7.878   4.743  -1.198  0.00  0.00    +0.017 C 
ATOM      2  C   UNL     1       6.425   4.429  -0.751  0.00  0.00    +0.025 C 
ATOM      3  C   UNL     1       6.369   5.010   0.678  0.00  0.00    +0.088 C 
ATOM      4  N   UNL     1       7.755   5.089   1.172  0.00  0.00    -0.298 NA
ATOM      5  C   UNL     1       8.659   4.562   0.128  0.00  0.00    +0.085 C 
ATOM      6  C   UNL     1       8.110   6.469   1.529  0.00  0.00    +0.105 C 
ENDROOT
BRANCH   3   7
ATOM      7  C   UNL     1       5.557   4.105   1.568  0.00  0.00    -0.012 A 
ATOM      8  C   UNL     1       6.050   3.705   2.795  0.00  0.00    +0.115 A 
ATOM      9  N   UNL     1       5.345   2.913   3.580  0.00  0.00    -0.263 NA
ATOM     10  C   UNL     1       4.153   2.473   3.230  0.00  0.00    +0.111 A 
ATOM     11  C   UNL     1       3.594   2.831   2.017  0.00  0.00    +0.020 A 
ATOM     12  C   UNL     1       4.303   3.667   1.168  0.00  0.00    +0.008 A 
ENDBRANCH   3   7
TORSDOF 1
ENDMDL
MODEL 10
REMARK VINA RESULT:    -3.073      2.939      4.183
REMARK INTER + INTRA:          -3.449
REMARK INTER:                  -3.200
REMARK INTRA:                  -0.250
REMARK UNBOUND:                -0.196
REMARK  Name = Nicotine.pdb
REMARK  2 active torsions:
REMARK  status: ('A' for Active; 'I' for Inactive)
REMARK    1  A    between atoms: C_3  and  C_6
REMARK    2  A    between atoms: N_4  and  C_12
REMARK                            x       y       z     vdW  Elec       q    Type
REMARK                         _______ _______ _______ _____ _____    ______ ____
ROOT
ATOM      1  C   UNL     1       7.403  -1.637   3.221  0.00  0.00    +0.017 C 
ATOM      2  C   UNL     1       6.028  -1.181   2.665  0.00  0.00    +0.025 C 
ATOM      3  C   UNL     1       6.413  -0.098   1.634  0.00  0.00    +0.088 C 
ATOM      4  N   UNL     1       7.751   0.398   2.001  0.00  0.00    -0.298 NA
ATOM      5  C   UNL     1       8.198  -0.307   3.221  0.00  0.00    +0.085 C 
ATOM      6  C   UNL     1       8.705   0.204   0.901  0.00  0.00    +0.105 C 
ENDROOT
BRANCH   3   7
ATOM      7  C   UNL     1       5.416   1.030   1.679  0.00  0.00    -0.012 A 
ATOM      8  C   UNL     1       5.008   1.650   0.513  0.00  0.00    +0.115 A 
ATOM      9  N   UNL     1       4.136   2.638   0.544  0.00  0.00    -0.263 NA
ATOM     10  C   UNL     1       3.620   3.073   1.677  0.00  0.00    +0.111 A 
ATOM     11  C   UNL     1       3.980   2.502   2.883  0.00  0.00    +0.020 A 
ATOM     12  C   UNL     1       4.891   1.456   2.890  0.00  0.00    +0.008 A 
ENDBRANCH   3   7
TORSDOF 1
ENDMDL
