MODEL 1
REMARK VINA RESULT:    -4.170      0.000      0.000
REMARK INTER + INTRA:          -4.618
REMARK INTER:                  -4.413
REMARK INTRA:                  -0.204
REMARK UNBOUND:                -0.204
REMARK  Name = Nicotine.pdb
REMARK  2 active torsions:
REMARK  status: ('A' for Active; 'I' for Inactive)
REMARK    1  A    between atoms: C_3  and  C_6
REMARK    2  A    between atoms: N_4  and  C_12
REMARK                            x       y       z     vdW  Elec       q    Type
REMARK                         _______ _______ _______ _____ _____    ______ ____
ROOT
ATOM      1  C   UNL     1       4.687  -1.204   1.847  0.00  0.00    +0.017 C 
ATOM      2  C   UNL     1       6.072  -0.736   1.328  0.00  0.00    +0.025 C 
ATOM      3  C   UNL     1       6.038  -1.139  -0.162  0.00  0.00    +0.088 C 
ATOM      4  N   UNL     1       5.036  -2.210  -0.303  0.00  0.00    -0.298 NA
ATOM      5  C   UNL     1       4.470  -2.503   1.031  0.00  0.00    +0.085 C 
ATOM      6  C   UNL     1       3.981  -1.825  -1.249  0.00  0.00    +0.105 C 
ENDROOT
BRANCH   3   7
ATOM      7  C   UNL     1       7.393  -1.643  -0.587  0.00  0.00    -0.012 A 
ATOM      8  C   UNL     1       8.532  -0.915  -0.302  0.00  0.00    +0.115 A 
ATOM      9  N   UNL     1       9.721  -1.349  -0.670  0.00  0.00    -0.263 NA
ATOM     10  C   UNL     1       9.873  -2.486  -1.321  0.00  0.00    +0.111 A 
ATOM     11  C   UNL     1       8.779  -3.269  -1.641  0.00  0.00    +0.020 A 
ATOM     12  C   UNL     1       7.513  -2.847  -1.265  0.00  0.00    +0.008 A 
ENDBRANCH   3   7
TORSDOF 1
ENDMDL
MODEL 2
REMARK VINA RESULT:    -3.924      2.749      4.500
REMARK INTER + INTRA:          -4.357
REMARK INTER:                  -4.102
REMARK INTRA:                  -0.255
REMARK UNBOUND:                -0.204
REMARK  Name = Nicotine.pdb
REMARK  2 active torsions:
REMARK  status: ('A' for Active; 'I' for Inactive)
REMARK    1  A    between atoms: C_3  and  C_6
REMARK    2  A    between atoms: N_4  and  C_12
REMARK                            x       y       z     vdW  Elec       q    Type
REMARK                         _______ _______ _______ _____ _____    ______ ____
ROOT
ATOM      1  C   UNL     1       7.222   2.388  -1.226  0.00  0.00    +0.017 C 
ATOM      2  C   UNL     1       7.296   0.997  -0.542  0.00  0.00    +0.025 C 
ATOM      3  C   UNL     1       6.149   0.216  -1.218  0.00  0.00    +0.088 C 
ATOM      4  N   UNL     1       5.200   1.209  -1.754  0.00  0.00    -0.298 NA
ATOM      5  C   UNL     1       5.695   2.562  -1.418  0.00  0.00    +0.085 C 
ATOM      6  C   UNL     1       5.037   1.053  -3.205  0.00  0.00    +0.105 C 
ENDROOT
BRANCH   3   7
ATOM      7  C   UNL     1       5.458  -0.660  -0.205  0.00  0.00    -0.012 A 
ATOM      8  C   UNL     1       4.603  -1.664  -0.617  0.00  0.00    +0.115 A 
ATOM      9  N   UNL     1       3.994  -2.436   0.262  0.00  0.00    -0.263 NA
ATOM     10  C   UNL     1       4.174  -2.283   1.559  0.00  0.00    +0.111 A 
ATOM     11  C   UNL     1       5.016  -1.300   2.046  0.00  0.00    +0.020 A 
ATOM     12  C   UNL     1       5.677  -0.473   1.151  0.00  0.00    +0.008 A 
ENDBRANCH   3   7
TORSDOF 1
ENDMDL
MODEL 3
REMARK VINA RESULT:    -3.915      8.619     10.161
REMARK INTER + INTRA:          -4.348
REMARK INTER:                  -4.141
REMARK INTRA:                  -0.207
REMARK UNBOUND:                -0.204
REMARK  Name = Nicotine.pdb
REMARK  2 active torsions:
REMARK  status: ('A' for Active; 'I' for Inactive)
REMARK    1  A    between atoms: C_3  and  C_6
REMARK    2  A    between atoms: N_4  and  C_12
REMARK                            x       y       z     vdW  Elec       q    Type
REMARK                         _______ _______ _______ _____ _____    ______ ____
ROOT
ATOM      1  C   UNL     1      -0.549  -4.647   0.079  0.00  0.00    +0.017 C 
ATOM      2  C   UNL     1      -0.189  -5.304   1.437  0.00  0.00    +0.025 C 
ATOM      3  C   UNL     1      -1.565  -5.474   2.116  0.00  0.00    +0.088 C 
ATOM      4  N   UNL     1      -2.483  -4.506   1.490  0.00  0.00    -0.298 NA
ATOM      5  C   UNL     1      -1.733  -3.732   0.478  0.00  0.00    +0.085 C 
ATOM      6  C   UNL     1      -3.635  -5.187   0.886  0.00  0.00    +0.105 C 
ENDROOT
BRANCH   3   7
ATOM      7  C   UNL     1      -1.447  -5.192   3.591  0.00  0.00    -0.012 A 
ATOM      8  C   UNL     1      -1.971  -4.029   4.125  0.00  0.00    +0.115 A 
ATOM      9  N   UNL     1      -1.872  -3.775   5.415  0.00  0.00    -0.263 NA
ATOM     10  C   UNL     1      -1.275  -4.610   6.242  0.00  0.00    +0.111 A 
ATOM     11  C   UNL     1      -0.728  -5.793   5.782  0.00  0.00    +0.020 A 
ATOM     12  C   UNL     1      -0.817  -6.097   4.432  0.00  0.00    +0.008 A 
ENDBRANCH   3   7
TORSDOF 1
ENDMDL
MODEL 4
REMARK VINA RESULT:    -3.893      8.713      9.963
REMARK INTER + INTRA:          -4.325
REMARK INTER:                  -4.123
REMARK INTRA:                  -0.202
REMARK UNBOUND:                -0.204
REMARK  Name = Nicotine.pdb
REMARK  2 active torsions:
REMARK  status: ('A' for Active; 'I' for Inactive)
REMARK    1  A    between atoms: C_3  and  C_6
REMARK    2  A    between atoms: N_4  and  C_12
REMARK                            x       y       z     vdW  Elec       q    Type
REMARK                         _______ _______ _______ _____ _____    ______ ____
ROOT
ATOM      1  C   UNL     1      -0.999  -6.097   5.899  0.00  0.00    +0.017 C 
ATOM      2  C   UNL     1      -0.412  -6.058   4.463  0.00  0.00    +0.025 C 
ATOM      3  C   UNL     1      -0.853  -4.673   3.945  0.00  0.00    +0.088 C 
ATOM      4  N   UNL     1      -2.020  -4.259   4.744  0.00  0.00    -0.298 NA
ATOM      5  C   UNL     1      -2.334  -5.332   5.711  0.00  0.00    +0.085 C 
ATOM      6  C   UNL     1      -1.763  -2.987   5.432  0.00  0.00    +0.105 C 
ENDROOT
BRANCH   3   7
ATOM      7  C   UNL     1      -1.234  -4.768   2.490  0.00  0.00    -0.012 A 
ATOM      8  C   UNL     1      -2.563  -4.734   2.111  0.00  0.00    +0.115 A 
ATOM      9  N   UNL     1      -2.905  -4.816   0.840  0.00  0.00    -0.263 NA
ATOM     10  C   UNL     1      -2.002  -4.934  -0.114  0.00  0.00    +0.111 A 
ATOM     11  C   UNL     1      -0.654  -4.974   0.189  0.00  0.00    +0.020 A 
ATOM     12  C   UNL     1      -0.256  -4.885   1.514  0.00  0.00    +0.008 A 
ENDBRANCH   3   7
TORSDOF 1
ENDMDL
MODEL 5
REMARK VINA RESULT:    -3.831      2.185      3.292
REMARK INTER + INTRA:          -4.259
REMARK INTER:                  -4.038
REMARK INTRA:                  -0.221
REMARK UNBOUND:                -0.204
REMARK  Name = Nicotine.pdb
REMARK  2 active torsions:
REMARK  status: ('A' for Active; 'I' for Inactive)
REMARK    1  A    between atoms: C_3  and  C_6
REMARK    2  A    between atoms: N_4  and  C_12
REMARK                            x       y       z     vdW  Elec       q    Type
REMARK                         _______ _______ _______ _____ _____    ______ ____
ROOT
ATOM      1  C   UNL     1       7.547   2.392   0.679  0.00  0.00    +0.017 C 
ATOM      2  C   UNL     1       7.602   1.376  -0.492  0.00  0.00    +0.025 C 
ATOM      3  C   UNL     1       7.337   0.025   0.207  0.00  0.00    +0.088 C 
ATOM      4  N   UNL     1       7.686   0.194   1.629  0.00  0.00    -0.298 NA
ATOM      5  C   UNL     1       8.177   1.573   1.833  0.00  0.00    +0.085 C 
ATOM      6  C   UNL     1       6.532  -0.088   2.492  0.00  0.00    +0.105 C 
ENDROOT
BRANCH   3   7
ATOM      7  C   UNL     1       8.195  -1.048  -0.410  0.00  0.00    -0.012 A 
ATOM      8  C   UNL     1       7.616  -2.181  -0.951  0.00  0.00    +0.115 A 
ATOM      9  N   UNL     1       8.360  -3.126  -1.493  0.00  0.00    -0.263 NA
ATOM     10  C   UNL     1       9.674  -3.031  -1.541  0.00  0.00    +0.111 A 
ATOM     11  C   UNL     1      10.323  -1.927  -1.020  0.00  0.00    +0.020 A 
ATOM     12  C   UNL     1       9.574  -0.911  -0.447  0.00  0.00    +0.008 A 
ENDBRANCH   3   7
TORSDOF 1
ENDMDL
MODEL 6
REMARK VINA RESULT:    -3.771      2.888      4.041
REMARK INTER + INTRA:          -4.195
REMARK INTER:                  -3.947
REMARK INTRA:                  -0.248
REMARK UNBOUND:                -0.204
REMARK  Name = Nicotine.pdb
REMARK  2 active torsions:
REMARK  status: ('A' for Active; 'I' for Inactive)
REMARK    1  A    between atoms: C_3  and  C_6
REMARK    2  A    between atoms: N_4  and  C_12
REMARK                            x       y       z     vdW  Elec       q    Type
REMARK                         _______ _______ _______ _____ _____    ______ ____
ROOT
ATOM      1  C   UNL     1       6.805  -2.409  -0.770  0.00  0.00    +0.017 C 
ATOM      2  C   UNL     1       7.744  -1.201  -0.517  0.00  0.00    +0.025 C 
ATOM      3  C   UNL     1       6.981  -0.385   0.549  0.00  0.00    +0.088 C 
ATOM      4  N   UNL     1       5.560  -0.765   0.454  0.00  0.00    -0.298 NA
ATOM      5  C   UNL     1       5.408  -1.754  -0.634  0.00  0.00    +0.085 C 
ATOM      6  C   UNL     1       5.073  -1.305   1.730  0.00  0.00    +0.105 C 
ENDROOT
BRANCH   3   7
ATOM      7  C   UNL     1       7.139   1.088   0.277  0.00  0.00    -0.012 A 
ATOM      8  C   UNL     1       7.329   1.975   1.320  0.00  0.00    +0.115 A 
ATOM      9  N   UNL     1       7.468   3.266   1.091  0.00  0.00    -0.263 NA
ATOM     10  C   UNL     1       7.432   3.761  -0.130  0.00  0.00    +0.111 A 
ATOM     11  C   UNL     1       7.246   2.935  -1.223  0.00  0.00    +0.020 A 
ATOM     12  C   UNL     1       7.101   1.571  -1.022  0.00  0.00    +0.008 A 
ENDBRANCH   3   7
TORSDOF 1
ENDMDL
MODEL 7
REMARK VINA RESULT:    -3.754      2.407      4.410
REMARK INTER + INTRA:          -4.177
REMARK INTER:                  -3.927
REMARK INTRA:                  -0.250
REMARK UNBOUND:                -0.204
REMARK  Name = Nicotine.pdb
REMARK  2 active torsions:
REMARK  status: ('A' for Active; 'I' for Inactive)
REMARK    1  A    between atoms: C_3  and  C_6
REMARK    2  A    between atoms: N_4  and  C_12
REMARK                            x       y       z     vdW  Elec       q    Type
REMARK                         _______ _______ _______ _____ _____    ______ ____
ROOT
ATOM      1  C   UNL     1       8.344   2.241   1.788  0.00  0.00    +0.017 C 
ATOM      2  C   UNL     1       8.126   0.705   1.808  0.00  0.00    +0.025 C 
ATOM      3  C   UNL     1       7.386   0.443   0.479  0.00  0.00    +0.088 C 
ATOM      4  N   UNL     1       6.753   1.711   0.073  0.00  0.00    -0.298 NA
ATOM      5  C   UNL     1       7.046   2.733   1.101  0.00  0.00    +0.085 C 
ATOM      6  C   UNL     1       7.230   2.140  -1.248  0.00  0.00    +0.105 C 
ENDROOT
BRANCH   3   7
ATOM      7  C   UNL     1       6.334  -0.616   0.678  0.00  0.00    -0.012 A 
ATOM      8  C   UNL     1       6.101  -1.564  -0.301  0.00  0.00    +0.115 A 
ATOM      9  N   UNL     1       5.182  -2.495  -0.135  0.00  0.00    -0.263 NA
ATOM     10  C   UNL     1       4.452  -2.560   0.962  0.00  0.00    +0.111 A 
ATOM     11  C   UNL     1       4.629  -1.647   1.985  0.00  0.00    +0.020 A 
ATOM     12  C   UNL     1       5.590  -0.657   1.847  0.00  0.00    +0.008 A 
ENDBRANCH   3   7
TORSDOF 1
ENDMDL
MODEL 8
REMARK VINA RESULT:    -3.602      2.354      3.540
REMARK INTER + INTRA:          -4.016
REMARK INTER:                  -3.814
REMARK INTRA:                  -0.202
REMARK UNBOUND:                -0.204
REMARK  Name = Nicotine.pdb
REMARK  2 active torsions:
REMARK  status: ('A' for Active; 'I' for Inactive)
REMARK    1  A    between atoms: C_3  and  C_6
REMARK    2  A    between atoms: N_4  and  C_12
REMARK                            x       y       z     vdW  Elec       q    Type
REMARK                         _______ _______ _______ _____ _____    ______ ____
ROOT
ATOM      1  C   UNL     1       4.964  -1.423   1.928  0.00  0.00    +0.017 C 
ATOM      2  C   UNL     1       4.985  -2.076   0.521  0.00  0.00    +0.025 C 
ATOM      3  C   UNL     1       6.117  -1.311  -0.199  0.00  0.00    +0.088 C 
ATOM      4  N   UNL     1       6.285  -0.023   0.497  0.00  0.00    -0.298 NA
ATOM      5  C   UNL     1       5.297   0.053   1.594  0.00  0.00    +0.085 C 
ATOM      6  C   UNL     1       7.654   0.124   1.010  0.00  0.00    +0.105 C 
ENDROOT
BRANCH   3   7
ATOM      7  C   UNL     1       5.739  -1.072  -1.638  0.00  0.00    -0.012 A 
ATOM      8  C   UNL     1       5.353   0.186  -2.060  0.00  0.00    +0.115 A 
ATOM      9  N   UNL     1       5.021   0.404  -3.317  0.00  0.00    -0.263 NA
ATOM     10  C   UNL     1       5.042  -0.560  -4.216  0.00  0.00    +0.111 A 
ATOM     11  C   UNL     1       5.418  -1.844  -3.868  0.00  0.00    +0.020 A 
ATOM     12  C   UNL     1       5.779  -2.110  -2.556  0.00  0.00    +0.008 A 
ENDBRANCH   3   7
TORSDOF 1
ENDMDL
MODEL 9
REMARK VINA RESULT:    -3.585      8.593      9.921
REMARK INTER + INTRA:          -3.998
REMARK INTER:                  -3.785
REMARK INTRA:                  -0.214
REMARK UNBOUND:                -0.204
REMARK  Name = Nicotine.pdb
REMARK  2 active torsions:
REMARK  status: ('A' for Active; 'I' for Inactive)
REMARK    1  A    between atoms: C_3  and  C_6
REMARK    2  A    between atoms: N_4  and  C_12
REMARK                            x       y       z     vdW  Elec       q    Type
REMARK                         _______ _______ _______ _____ _____    ______ ____
ROOT
ATOM      1  C   UNL     1      -4.224  -5.412  -0.514  0.00  0.00    +0.017 C 
ATOM      2  C   UNL     1      -3.890  -5.381   1.000  0.00  0.00    +0.025 C 
ATOM      3  C   UNL     1      -2.684  -4.420   1.070  0.00  0.00    +0.088 C 
ATOM      4  N   UNL     1      -2.064  -4.399  -0.267  0.00  0.00    -0.298 NA
ATOM      5  C   UNL     1      -2.814  -5.319  -1.149  0.00  0.00    +0.085 C 
ATOM      6  C   UNL     1      -2.048  -3.038  -0.819  0.00  0.00    +0.105 C 
ENDROOT
BRANCH   3   7
ATOM      7  C   UNL     1      -1.691  -4.915   2.089  0.00  0.00    -0.012 A 
ATOM      8  C   UNL     1      -2.033  -4.975   3.427  0.00  0.00    +0.115 A 
ATOM      9  N   UNL     1      -1.170  -5.408   4.325  0.00  0.00    -0.263 NA
ATOM     10  C   UNL     1       0.044  -5.797   3.989  0.00  0.00    +0.111 A 
ATOM     11  C   UNL     1       0.457  -5.766   2.670  0.00  0.00    +0.020 A 
ATOM     12  C   UNL     1      -0.425  -5.322   1.697  0.00  0.00    +0.008 A 
ENDBRANCH   3   7
TORSDOF 1
ENDMDL
MODEL 10
REMARK VINA RESULT:    -3.509      7.163      9.477
REMARK INTER + INTRA:          -3.918
REMARK INTER:                  -3.700
REMARK INTRA:                  -0.218
REMARK UNBOUND:                -0.204
REMARK  Name = Nicotine.pdb
REMARK  2 active torsions:
REMARK  status: ('A' for Active; 'I' for Inactive)
REMARK    1  A    between atoms: C_3  and  C_6
REMARK    2  A    between atoms: N_4  and  C_12
REMARK                            x       y       z     vdW  Elec       q    Type
REMARK                         _______ _______ _______ _____ _____    ______ ____
ROOT
ATOM      1  C   UNL     1       0.670  -2.612   0.943  0.00  0.00    +0.017 C 
ATOM      2  C   UNL     1       0.301  -3.932   1.670  0.00  0.00    +0.025 C 
ATOM      3  C   UNL     1      -1.011  -3.570   2.400  0.00  0.00    +0.088 C 
ATOM      4  N   UNL     1      -1.039  -2.104   2.547  0.00  0.00    -0.298 NA
ATOM      5  C   UNL     1       0.202  -1.548   1.967  0.00  0.00    +0.085 C 
ATOM      6  C   UNL     1      -2.226  -1.532   1.899  0.00  0.00    +0.105 C 
ENDROOT
BRANCH   3   7
ATOM      7  C   UNL     1      -1.039  -4.224   3.757  0.00  0.00    -0.012 A 
ATOM      8  C   UNL     1      -1.483  -3.522   4.862  0.00  0.00    +0.115 A 
ATOM      9  N   UNL     1      -1.512  -4.087   6.053  0.00  0.00    -0.263 NA
ATOM     10  C   UNL     1      -1.122  -5.332   6.239  0.00  0.00    +0.111 A 
ATOM     11  C   UNL     1      -0.666  -6.097   5.181  0.00  0.00    +0.020 A 
ATOM     12  C   UNL     1      -0.627  -5.538   3.913  0.00  0.00    +0.008 A 
ENDBRANCH   3   7
TORSDOF 1
ENDMDL
