MODEL 1
REMARK VINA RESULT:    -4.712      0.000      0.000
REMARK INTER + INTRA:          -5.203
REMARK INTER:                  -4.988
REMARK INTRA:                  -0.215
REMARK UNBOUND:                -0.215
REMARK  Name = Nicotine.pdb
REMARK  2 active torsions:
REMARK  status: ('A' for Active; 'I' for Inactive)
REMARK    1  A    between atoms: C_3  and  C_6
REMARK    2  A    between atoms: N_4  and  C_12
REMARK                            x       y       z     vdW  Elec       q    Type
REMARK                         _______ _______ _______ _____ _____    ______ ____
ROOT
ATOM      1  C   UNL     1      10.764   2.631  -3.796  0.00  0.00    +0.017 C 
ATOM      2  C   UNL     1       9.952   2.927  -5.084  0.00  0.00    +0.025 C 
ATOM      3  C   UNL     1       9.156   4.196  -4.709  0.00  0.00    +0.088 C 
ATOM      4  N   UNL     1       9.078   4.243  -3.238  0.00  0.00    -0.298 NA
ATOM      5  C   UNL     1       9.764   3.053  -2.691  0.00  0.00    +0.085 C 
ATOM      6  C   UNL     1       9.674   5.481  -2.719  0.00  0.00    +0.105 C 
ENDROOT
BRANCH   3   7
ATOM      7  C   UNL     1       7.770   4.124  -5.296  0.00  0.00    -0.012 A 
ATOM      8  C   UNL     1       6.711   4.746  -4.663  0.00  0.00    +0.115 A 
ATOM      9  N   UNL     1       5.494   4.688  -5.170  0.00  0.00    -0.263 NA
ATOM     10  C   UNL     1       5.240   4.040  -6.290  0.00  0.00    +0.111 A 
ATOM     11  C   UNL     1       6.250   3.395  -6.979  0.00  0.00    +0.020 A 
ATOM     12  C   UNL     1       7.542   3.438  -6.479  0.00  0.00    +0.008 A 
ENDBRANCH   3   7
TORSDOF 1
ENDMDL
MODEL 2
REMARK VINA RESULT:    -4.310      1.696      4.446
REMARK INTER + INTRA:          -4.777
REMARK INTER:                  -4.561
REMARK INTRA:                  -0.216
REMARK UNBOUND:                -0.215
REMARK  Name = Nicotine.pdb
REMARK  2 active torsions:
REMARK  status: ('A' for Active; 'I' for Inactive)
REMARK    1  A    between atoms: C_3  and  C_6
REMARK    2  A    between atoms: N_4  and  C_12
REMARK                            x       y       z     vdW  Elec       q    Type
REMARK                         _______ _______ _______ _____ _____    ______ ____
ROOT
ATOM      1  C   UNL     1       5.318   4.568  -4.244  0.00  0.00    +0.017 C 
ATOM      2  C   UNL     1       6.793   4.402  -3.792  0.00  0.00    +0.025 C 
ATOM      3  C   UNL     1       7.587   4.718  -5.078  0.00  0.00    +0.088 C 
ATOM      4  N   UNL     1       6.679   4.496  -6.218  0.00  0.00    -0.298 NA
ATOM      5  C   UNL     1       5.374   4.036  -5.698  0.00  0.00    +0.085 C 
ATOM      6  C   UNL     1       6.527   5.719  -7.016  0.00  0.00    +0.105 C 
ENDROOT
BRANCH   3   7
ATOM      7  C   UNL     1       8.778   3.801  -5.183  0.00  0.00    -0.012 A 
ATOM      8  C   UNL     1       9.184   3.321  -6.414  0.00  0.00    +0.115 A 
ATOM      9  N   UNL     1      10.225   2.517  -6.515  0.00  0.00    -0.263 NA
ATOM     10  C   UNL     1      10.915   2.142  -5.456  0.00  0.00    +0.111 A 
ATOM     11  C   UNL     1      10.569   2.581  -4.192  0.00  0.00    +0.020 A 
ATOM     12  C   UNL     1       9.483   3.431  -4.048  0.00  0.00    +0.008 A 
ENDBRANCH   3   7
TORSDOF 1
ENDMDL
MODEL 3
REMARK VINA RESULT:    -4.258      1.625      4.466
REMARK INTER + INTRA:          -4.722
REMARK INTER:                  -4.498
REMARK INTRA:                  -0.224
REMARK UNBOUND:                -0.215
REMARK  Name = Nicotine.pdb
REMARK  2 active torsions:
REMARK  status: ('A' for Active; 'I' for Inactive)
REMARK    1  A    between atoms: C_3  and  C_6
REMARK    2  A    between atoms: N_4  and  C_12
REMARK                            x       y       z     vdW  Elec       q    Type
REMARK                         _______ _______ _______ _____ _____    ______ ____
ROOT
ATOM      1  C   UNL     1       7.775   3.758  -6.524  0.00  0.00    +0.017 C 
ATOM      2  C   UNL     1       8.668   3.672  -5.258  0.00  0.00    +0.025 C 
ATOM      3  C   UNL     1       7.728   4.160  -4.136  0.00  0.00    +0.088 C 
ATOM      4  N   UNL     1       6.672   4.969  -4.772  0.00  0.00    -0.298 NA
ATOM      5  C   UNL     1       6.932   5.023  -6.226  0.00  0.00    +0.085 C 
ATOM      6  C   UNL     1       5.342   4.413  -4.494  0.00  0.00    +0.105 C 
ENDROOT
BRANCH   3   7
ATOM      7  C   UNL     1       8.498   5.002  -3.152  0.00  0.00    -0.012 A 
ATOM      8  C   UNL     1       8.080   6.284  -2.851  0.00  0.00    +0.115 A 
ATOM      9  N   UNL     1       8.748   7.028  -1.991  0.00  0.00    -0.263 NA
ATOM     10  C   UNL     1       9.833   6.583  -1.387  0.00  0.00    +0.111 A 
ATOM     11  C   UNL     1      10.311   5.310  -1.637  0.00  0.00    +0.020 A 
ATOM     12  C   UNL     1       9.631   4.498  -2.532  0.00  0.00    +0.008 A 
ENDBRANCH   3   7
TORSDOF 1
ENDMDL
MODEL 4
REMARK VINA RESULT:    -4.251      1.117      2.213
REMARK INTER + INTRA:          -4.714
REMARK INTER:                  -4.501
REMARK INTRA:                  -0.213
REMARK UNBOUND:                -0.215
REMARK  Name = Nicotine.pdb
REMARK  2 active torsions:
REMARK  status: ('A' for Active; 'I' for Inactive)
REMARK    1  A    between atoms: C_3  and  C_6
REMARK    2  A    between atoms: N_4  and  C_12
REMARK                            x       y       z     vdW  Elec       q    Type
REMARK                         _______ _______ _______ _____ _____    ______ ____
ROOT
ATOM      1  C   UNL     1       9.445   6.450  -2.348  0.00  0.00    +0.017 C 
ATOM      2  C   UNL     1       7.984   6.173  -2.792  0.00  0.00    +0.025 C 
ATOM      3  C   UNL     1       8.006   4.670  -3.142  0.00  0.00    +0.088 C 
ATOM      4  N   UNL     1       9.406   4.309  -3.430  0.00  0.00    -0.298 NA
ATOM      5  C   UNL     1      10.242   5.522  -3.299  0.00  0.00    +0.085 C 
ATOM      6  C   UNL     1       9.873   3.248  -2.529  0.00  0.00    +0.105 C 
ENDROOT
BRANCH   3   7
ATOM      7  C   UNL     1       7.150   4.413  -4.354  0.00  0.00    -0.012 A 
ATOM      8  C   UNL     1       5.781   4.593  -4.294  0.00  0.00    +0.115 A 
ATOM      9  N   UNL     1       5.023   4.371  -5.350  0.00  0.00    -0.263 NA
ATOM     10  C   UNL     1       5.535   3.971  -6.498  0.00  0.00    +0.111 A 
ATOM     11  C   UNL     1       6.896   3.771  -6.634  0.00  0.00    +0.020 A 
ATOM     12  C   UNL     1       7.724   3.999  -5.546  0.00  0.00    +0.008 A 
ENDBRANCH   3   7
TORSDOF 1
ENDMDL
MODEL 5
REMARK VINA RESULT:    -4.010      1.586      4.523
REMARK INTER + INTRA:          -4.460
REMARK INTER:                  -4.212
REMARK INTRA:                  -0.248
REMARK UNBOUND:                -0.215
REMARK  Name = Nicotine.pdb
REMARK  2 active torsions:
REMARK  status: ('A' for Active; 'I' for Inactive)
REMARK    1  A    between atoms: C_3  and  C_6
REMARK    2  A    between atoms: N_4  and  C_12
REMARK                            x       y       z     vdW  Elec       q    Type
REMARK                         _______ _______ _______ _____ _____    ______ ____
ROOT
ATOM      1  C   UNL     1       5.323   4.030  -6.614  0.00  0.00    +0.017 C 
ATOM      2  C   UNL     1       5.681   4.076  -5.105  0.00  0.00    +0.025 C 
ATOM      3  C   UNL     1       6.494   5.381  -4.981  0.00  0.00    +0.088 C 
ATOM      4  N   UNL     1       7.023   5.696  -6.320  0.00  0.00    -0.298 NA
ATOM      5  C   UNL     1       6.597   4.634  -7.256  0.00  0.00    +0.085 C 
ATOM      6  C   UNL     1       6.562   7.014  -6.773  0.00  0.00    +0.105 C 
ENDROOT
BRANCH   3   7
ATOM      7  C   UNL     1       7.631   5.187  -4.011  0.00  0.00    -0.012 A 
ATOM      8  C   UNL     1       7.960   6.183  -3.110  0.00  0.00    +0.115 A 
ATOM      9  N   UNL     1       8.953   6.021  -2.258  0.00  0.00    -0.263 NA
ATOM     10  C   UNL     1       9.668   4.913  -2.230  0.00  0.00    +0.111 A 
ATOM     11  C   UNL     1       9.397   3.874  -3.100  0.00  0.00    +0.020 A 
ATOM     12  C   UNL     1       8.357   4.006  -4.007  0.00  0.00    +0.008 A 
ENDBRANCH   3   7
TORSDOF 1
ENDMDL
MODEL 6
REMARK VINA RESULT:    -3.792      1.921      4.406
REMARK INTER + INTRA:          -4.228
REMARK INTER:                  -4.014
REMARK INTRA:                  -0.215
REMARK UNBOUND:                -0.215
REMARK  Name = Nicotine.pdb
REMARK  2 active torsions:
REMARK  status: ('A' for Active; 'I' for Inactive)
REMARK    1  A    between atoms: C_3  and  C_6
REMARK    2  A    between atoms: N_4  and  C_12
REMARK                            x       y       z     vdW  Elec       q    Type
REMARK                         _______ _______ _______ _____ _____    ______ ____
ROOT
ATOM      1  C   UNL     1       5.713   4.593  -7.251  0.00  0.00    +0.017 C 
ATOM      2  C   UNL     1       6.425   5.670  -6.391  0.00  0.00    +0.025 C 
ATOM      3  C   UNL     1       7.793   5.023  -6.086  0.00  0.00    +0.088 C 
ATOM      4  N   UNL     1       7.631   3.566  -6.240  0.00  0.00    -0.298 NA
ATOM      5  C   UNL     1       6.225   3.284  -6.599  0.00  0.00    +0.085 C 
ATOM      6  C   UNL     1       8.550   3.038  -7.256  0.00  0.00    +0.105 C 
ENDROOT
BRANCH   3   7
ATOM      7  C   UNL     1       8.211   5.347  -4.676  0.00  0.00    -0.012 A 
ATOM      8  C   UNL     1       7.260   5.598  -3.705  0.00  0.00    +0.115 A 
ATOM      9  N   UNL     1       7.617   5.883  -2.468  0.00  0.00    -0.263 NA
ATOM     10  C   UNL     1       8.884   5.941  -2.108  0.00  0.00    +0.111 A 
ATOM     11  C   UNL     1       9.891   5.701  -3.025  0.00  0.00    +0.020 A 
ATOM     12  C   UNL     1       9.554   5.393  -4.333  0.00  0.00    +0.008 A 
ENDBRANCH   3   7
TORSDOF 1
ENDMDL
MODEL 7
REMARK VINA RESULT:    -3.759      1.146      4.435
REMARK INTER + INTRA:          -4.194
REMARK INTER:                  -3.989
REMARK INTRA:                  -0.205
REMARK UNBOUND:                -0.215
REMARK  Name = Nicotine.pdb
REMARK  2 active torsions:
REMARK  status: ('A' for Active; 'I' for Inactive)
REMARK    1  A    between atoms: C_3  and  C_6
REMARK    2  A    between atoms: N_4  and  C_12
REMARK                            x       y       z     vdW  Elec       q    Type
REMARK                         _______ _______ _______ _____ _____    ______ ____
ROOT
ATOM      1  C   UNL     1       6.555   6.218  -5.442  0.00  0.00    +0.017 C 
ATOM      2  C   UNL     1       8.059   5.917  -5.213  0.00  0.00    +0.025 C 
ATOM      3  C   UNL     1       8.194   4.451  -5.678  0.00  0.00    +0.088 C 
ATOM      4  N   UNL     1       6.854   3.844  -5.602  0.00  0.00    -0.298 NA
ATOM      5  C   UNL     1       5.906   4.856  -5.090  0.00  0.00    +0.085 C 
ATOM      6  C   UNL     1       6.429   3.340  -6.914  0.00  0.00    +0.105 C 
ENDROOT
BRANCH   3   7
ATOM      7  C   UNL     1       9.145   3.712  -4.772  0.00  0.00    -0.012 A 
ATOM      8  C   UNL     1       9.092   3.895  -3.403  0.00  0.00    +0.115 A 
ATOM      9  N   UNL     1       9.920   3.252  -2.604  0.00  0.00    -0.263 NA
ATOM     10  C   UNL     1      10.827   2.416  -3.072  0.00  0.00    +0.111 A 
ATOM     11  C   UNL     1      10.940   2.183  -4.430  0.00  0.00    +0.020 A 
ATOM     12  C   UNL     1      10.082   2.837  -5.301  0.00  0.00    +0.008 A 
ENDBRANCH   3   7
TORSDOF 1
ENDMDL
MODEL 8
REMARK VINA RESULT:    -3.396      1.818      2.651
REMARK INTER + INTRA:          -3.810
REMARK INTER:                  -3.623
REMARK INTRA:                  -0.186
REMARK UNBOUND:                -0.215
REMARK  Name = Nicotine.pdb
REMARK  2 active torsions:
REMARK  status: ('A' for Active; 'I' for Inactive)
REMARK    1  A    between atoms: C_3  and  C_6
REMARK    2  A    between atoms: N_4  and  C_12
REMARK                            x       y       z     vdW  Elec       q    Type
REMARK                         _______ _______ _______ _____ _____    ______ ____
ROOT
ATOM      1  C   UNL     1      10.534   6.296  -4.917  0.00  0.00    +0.017 C 
ATOM      2  C   UNL     1       9.244   5.566  -4.458  0.00  0.00    +0.025 C 
ATOM      3  C   UNL     1       9.099   4.433  -5.496  0.00  0.00    +0.088 C 
ATOM      4  N   UNL     1       9.849   4.842  -6.697  0.00  0.00    -0.298 NA
ATOM      5  C   UNL     1      10.427   6.181  -6.459  0.00  0.00    +0.085 C 
ATOM      6  C   UNL     1      10.897   3.866  -7.022  0.00  0.00    +0.105 C 
ENDROOT
BRANCH   3   7
ATOM      7  C   UNL     1       7.646   4.235  -5.839  0.00  0.00    -0.012 A 
ATOM      8  C   UNL     1       6.658   4.751  -5.022  0.00  0.00    +0.115 A 
ATOM      9  N   UNL     1       5.383   4.583  -5.315  0.00  0.00    -0.263 NA
ATOM     10  C   UNL     1       5.001   3.922  -6.390  0.00  0.00    +0.111 A 
ATOM     11  C   UNL     1       5.932   3.378  -7.255  0.00  0.00    +0.020 A 
ATOM     12  C   UNL     1       7.282   3.539  -6.982  0.00  0.00    +0.008 A 
ENDBRANCH   3   7
TORSDOF 1
ENDMDL
MODEL 9
REMARK VINA RESULT:    -3.309      1.771      4.829
REMARK INTER + INTRA:          -3.718
REMARK INTER:                  -3.519
REMARK INTRA:                  -0.199
REMARK UNBOUND:                -0.215
REMARK  Name = Nicotine.pdb
REMARK  2 active torsions:
REMARK  status: ('A' for Active; 'I' for Inactive)
REMARK    1  A    between atoms: C_3  and  C_6
REMARK    2  A    between atoms: N_4  and  C_12
REMARK                            x       y       z     vdW  Elec       q    Type
REMARK                         _______ _______ _______ _____ _____    ______ ____
ROOT
ATOM      1  C   UNL     1       6.490   5.456  -4.527  0.00  0.00    +0.017 C 
ATOM      2  C   UNL     1       7.342   5.591  -3.237  0.00  0.00    +0.025 C 
ATOM      3  C   UNL     1       8.778   5.336  -3.742  0.00  0.00    +0.088 C 
ATOM      4  N   UNL     1       8.671   4.577  -5.001  0.00  0.00    -0.298 NA
ATOM      5  C   UNL     1       7.240   4.331  -5.282  0.00  0.00    +0.085 C 
ATOM      6  C   UNL     1       9.309   5.301  -6.109  0.00  0.00    +0.105 C 
ENDROOT
BRANCH   3   7
ATOM      7  C   UNL     1       9.545   4.534  -2.723  0.00  0.00    -0.012 A 
ATOM      8  C   UNL     1      10.168   5.165  -1.662  0.00  0.00    +0.115 A 
ATOM      9  N   UNL     1      10.841   4.471  -0.765  0.00  0.00    -0.263 NA
ATOM     10  C   UNL     1      10.948   3.159  -0.842  0.00  0.00    +0.111 A 
ATOM     11  C   UNL     1      10.352   2.460  -1.874  0.00  0.00    +0.020 A 
ATOM     12  C   UNL     1       9.632   3.155  -2.833  0.00  0.00    +0.008 A 
ENDBRANCH   3   7
TORSDOF 1
ENDMDL
MODEL 10
REMARK VINA RESULT:    -2.945      1.996      3.704
REMARK INTER + INTRA:          -3.332
REMARK INTER:                  -3.147
REMARK INTRA:                  -0.185
REMARK UNBOUND:                -0.215
REMARK  Name = Nicotine.pdb
REMARK  2 active torsions:
REMARK  status: ('A' for Active; 'I' for Inactive)
REMARK    1  A    between atoms: C_3  and  C_6
REMARK    2  A    between atoms: N_4  and  C_12
REMARK                            x       y       z     vdW  Elec       q    Type
REMARK                         _______ _______ _______ _____ _____    ______ ____
ROOT
ATOM      1  C   UNL     1       7.638   6.092  -2.782  0.00  0.00    +0.017 C 
ATOM      2  C   UNL     1       8.563   6.121  -4.027  0.00  0.00    +0.025 C 
ATOM      3  C   UNL     1       7.794   5.259  -5.050  0.00  0.00    +0.088 C 
ATOM      4  N   UNL     1       6.881   4.387  -4.289  0.00  0.00    -0.298 NA
ATOM      5  C   UNL     1       7.069   4.653  -2.847  0.00  0.00    +0.085 C 
ATOM      6  C   UNL     1       5.485   4.609  -4.688  0.00  0.00    +0.105 C 
ENDROOT
BRANCH   3   7
ATOM      7  C   UNL     1       8.761   4.421  -5.845  0.00  0.00    -0.012 A 
ATOM      8  C   UNL     1      10.100   4.760  -5.898  0.00  0.00    +0.115 A 
ATOM      9  N   UNL     1      10.954   4.032  -6.591  0.00  0.00    -0.263 NA
ATOM     10  C   UNL     1      10.570   2.960  -7.256  0.00  0.00    +0.111 A 
ATOM     11  C   UNL     1       9.247   2.559  -7.249  0.00  0.00    +0.020 A 
ATOM     12  C   UNL     1       8.322   3.296  -6.527  0.00  0.00    +0.008 A 
ENDBRANCH   3   7
TORSDOF 1
ENDMDL
