MODEL 1
REMARK VINA RESULT:    -3.179      0.000      0.000
REMARK INTER + INTRA:          -3.603
REMARK INTER:                  -3.365
REMARK INTRA:                  -0.238
REMARK UNBOUND:                -0.238
REMARK  Name = Nicotine.pdb
REMARK  2 active torsions:
REMARK  status: ('A' for Active; 'I' for Inactive)
REMARK    1  A    between atoms: C_3  and  C_6
REMARK    2  A    between atoms: N_4  and  C_12
REMARK                            x       y       z     vdW  Elec       q    Type
REMARK                         _______ _______ _______ _____ _____    ______ ____
ROOT
ATOM      1  C   UNL     1       8.872  -4.126  -7.116  0.00  0.00    +0.017 C 
ATOM      2  C   UNL     1       9.444  -2.723  -6.786  0.00  0.00    +0.025 C 
ATOM      3  C   UNL     1      10.354  -2.996  -5.570  0.00  0.00    +0.088 C 
ATOM      4  N   UNL     1       9.885  -4.246  -4.945  0.00  0.00    -0.298 NA
ATOM      5  C   UNL     1       8.715  -4.741  -5.703  0.00  0.00    +0.085 C 
ATOM      6  C   UNL     1      10.954  -5.252  -4.910  0.00  0.00    +0.105 C 
ENDROOT
BRANCH   3   7
ATOM      7  C   UNL     1      10.251  -1.860  -4.586  0.00  0.00    -0.012 A 
ATOM      8  C   UNL     1      10.954  -1.898  -3.397  0.00  0.00    +0.115 A 
ATOM      9  N   UNL     1      10.869  -0.907  -2.531  0.00  0.00    -0.263 NA
ATOM     10  C   UNL     1      10.117   0.151  -2.760  0.00  0.00    +0.111 A 
ATOM     11  C   UNL     1       9.385   0.260  -3.927  0.00  0.00    +0.020 A 
ATOM     12  C   UNL     1       9.454  -0.760  -4.864  0.00  0.00    +0.008 A 
ENDBRANCH   3   7
TORSDOF 1
ENDMDL
MODEL 2
REMARK VINA RESULT:    -3.125      5.693      7.073
REMARK INTER + INTRA:          -3.546
REMARK INTER:                  -3.302
REMARK INTRA:                  -0.243
REMARK UNBOUND:                -0.238
REMARK  Name = Nicotine.pdb
REMARK  2 active torsions:
REMARK  status: ('A' for Active; 'I' for Inactive)
REMARK    1  A    between atoms: C_3  and  C_6
REMARK    2  A    between atoms: N_4  and  C_12
REMARK                            x       y       z     vdW  Elec       q    Type
REMARK                         _______ _______ _______ _____ _____    ______ ____
ROOT
ATOM      1  C   UNL     1       3.131  -4.178  -7.256  0.00  0.00    +0.017 C 
ATOM      2  C   UNL     1       3.888  -5.342  -6.563  0.00  0.00    +0.025 C 
ATOM      3  C   UNL     1       3.381  -5.268  -5.107  0.00  0.00    +0.088 C 
ATOM      4  N   UNL     1       2.885  -3.898  -4.886  0.00  0.00    -0.298 NA
ATOM      5  C   UNL     1       3.086  -3.118  -6.126  0.00  0.00    +0.085 C 
ATOM      6  C   UNL     1       1.470  -3.906  -4.492  0.00  0.00    +0.105 C 
ENDROOT
BRANCH   3   7
ATOM      7  C   UNL     1       4.510  -5.566  -4.155  0.00  0.00    -0.012 A 
ATOM      8  C   UNL     1       4.283  -5.607  -2.792  0.00  0.00    +0.115 A 
ATOM      9  N   UNL     1       5.265  -5.868  -1.952  0.00  0.00    -0.263 NA
ATOM     10  C   UNL     1       6.494  -6.097  -2.372  0.00  0.00    +0.111 A 
ATOM     11  C   UNL     1       6.797  -6.073  -3.721  0.00  0.00    +0.020 A 
ATOM     12  C   UNL     1       5.788  -5.808  -4.634  0.00  0.00    +0.008 A 
ENDBRANCH   3   7
TORSDOF 1
ENDMDL
MODEL 3
REMARK VINA RESULT:    -2.592      1.797      4.796
REMARK INTER + INTRA:          -2.981
REMARK INTER:                  -2.747
REMARK INTRA:                  -0.234
REMARK UNBOUND:                -0.238
REMARK  Name = Nicotine.pdb
REMARK  2 active torsions:
REMARK  status: ('A' for Active; 'I' for Inactive)
REMARK    1  A    between atoms: C_3  and  C_6
REMARK    2  A    between atoms: N_4  and  C_12
REMARK                            x       y       z     vdW  Elec       q    Type
REMARK                         _______ _______ _______ _____ _____    ______ ____
ROOT
ATOM      1  C   UNL     1      10.931  -1.431  -4.166  0.00  0.00    +0.017 C 
ATOM      2  C   UNL     1      10.748  -2.959  -4.360  0.00  0.00    +0.025 C 
ATOM      3  C   UNL     1      10.098  -3.055  -5.757  0.00  0.00    +0.088 C 
ATOM      4  N   UNL     1       9.462  -1.755  -6.034  0.00  0.00    -0.298 NA
ATOM      5  C   UNL     1       9.667  -0.872  -4.865  0.00  0.00    +0.085 C 
ATOM      6  C   UNL     1      10.010  -1.149  -7.254  0.00  0.00    +0.105 C 
ENDROOT
BRANCH   3   7
ATOM      7  C   UNL     1       9.060  -4.147  -5.765  0.00  0.00    -0.012 A 
ATOM      8  C   UNL     1       8.286  -4.368  -6.889  0.00  0.00    +0.115 A 
ATOM      9  N   UNL     1       7.375  -5.321  -6.905  0.00  0.00    -0.263 NA
ATOM     10  C   UNL     1       7.166  -6.097  -5.859  0.00  0.00    +0.111 A 
ATOM     11  C   UNL     1       7.902  -5.936  -4.700  0.00  0.00    +0.020 A 
ATOM     12  C   UNL     1       8.872  -4.947  -4.648  0.00  0.00    +0.008 A 
ENDBRANCH   3   7
TORSDOF 1
ENDMDL
MODEL 4
REMARK VINA RESULT:    -1.916      4.811      6.576
REMARK INTER + INTRA:          -2.266
REMARK INTER:                  -2.068
REMARK INTRA:                  -0.198
REMARK UNBOUND:                -0.238
REMARK  Name = Nicotine.pdb
REMARK  2 active torsions:
REMARK  status: ('A' for Active; 'I' for Inactive)
REMARK    1  A    between atoms: C_3  and  C_6
REMARK    2  A    between atoms: N_4  and  C_12
REMARK                            x       y       z     vdW  Elec       q    Type
REMARK                         _______ _______ _______ _____ _____    ______ ____
ROOT
ATOM      1  C   UNL     1       2.873  -3.609  -6.711  0.00  0.00    +0.017 C 
ATOM      2  C   UNL     1       4.124  -4.347  -7.256  0.00  0.00    +0.025 C 
ATOM      3  C   UNL     1       4.319  -5.494  -6.243  0.00  0.00    +0.088 C 
ATOM      4  N   UNL     1       3.648  -5.093  -4.993  0.00  0.00    -0.298 NA
ATOM      5  C   UNL     1       3.072  -3.745  -5.180  0.00  0.00    +0.085 C 
ATOM      6  C   UNL     1       2.611  -6.062  -4.617  0.00  0.00    +0.105 C 
ENDROOT
BRANCH   3   7
ATOM      7  C   UNL     1       5.789  -5.711  -5.990  0.00  0.00    -0.012 A 
ATOM      8  C   UNL     1       6.684  -5.726  -7.043  0.00  0.00    +0.115 A 
ATOM      9  N   UNL     1       7.972  -5.915  -6.831  0.00  0.00    -0.263 NA
ATOM     10  C   UNL     1       8.455  -6.095  -5.617  0.00  0.00    +0.111 A 
ATOM     11  C   UNL     1       7.620  -6.092  -4.515  0.00  0.00    +0.020 A 
ATOM     12  C   UNL     1       6.261  -5.891  -4.699  0.00  0.00    +0.008 A 
ENDBRANCH   3   7
TORSDOF 1
ENDMDL
MODEL 5
REMARK VINA RESULT:    -1.291      1.545      4.950
REMARK INTER + INTRA:          -1.604
REMARK INTER:                  -1.407
REMARK INTRA:                  -0.198
REMARK UNBOUND:                -0.238
REMARK  Name = Nicotine.pdb
REMARK  2 active torsions:
REMARK  status: ('A' for Active; 'I' for Inactive)
REMARK    1  A    between atoms: C_3  and  C_6
REMARK    2  A    between atoms: N_4  and  C_12
REMARK                            x       y       z     vdW  Elec       q    Type
REMARK                         _______ _______ _______ _____ _____    ______ ____
ROOT
ATOM      1  C   UNL     1      10.954   1.967  -2.583  0.00  0.00    +0.017 C 
ATOM      2  C   UNL     1      10.804   1.297  -3.974  0.00  0.00    +0.025 C 
ATOM      3  C   UNL     1       9.689   0.256  -3.739  0.00  0.00    +0.088 C 
ATOM      4  N   UNL     1       9.651  -0.026  -2.293  0.00  0.00    -0.298 NA
ATOM      5  C   UNL     1      10.706   0.771  -1.630  0.00  0.00    +0.085 C 
ATOM      6  C   UNL     1       8.329   0.278  -1.731  0.00  0.00    +0.105 C 
ENDROOT
BRANCH   3   7
ATOM      7  C   UNL     1       9.997  -1.006  -4.502  0.00  0.00    -0.012 A 
ATOM      8  C   UNL     1       9.624  -1.131  -5.827  0.00  0.00    +0.115 A 
ATOM      9  N   UNL     1       9.890  -2.233  -6.501  0.00  0.00    -0.263 NA
ATOM     10  C   UNL     1      10.516  -3.252  -5.946  0.00  0.00    +0.111 A 
ATOM     11  C   UNL     1      10.919  -3.199  -4.624  0.00  0.00    +0.020 A 
ATOM     12  C   UNL     1      10.662  -2.055  -3.885  0.00  0.00    +0.008 A 
ENDBRANCH   3   7
TORSDOF 1
ENDMDL
MODEL 6
REMARK VINA RESULT:    -1.042      6.800      7.830
REMARK INTER + INTRA:          -1.341
REMARK INTER:                  -1.129
REMARK INTRA:                  -0.211
REMARK UNBOUND:                -0.238
REMARK  Name = Nicotine.pdb
REMARK  2 active torsions:
REMARK  status: ('A' for Active; 'I' for Inactive)
REMARK    1  A    between atoms: C_3  and  C_6
REMARK    2  A    between atoms: N_4  and  C_12
REMARK                            x       y       z     vdW  Elec       q    Type
REMARK                         _______ _______ _______ _____ _____    ______ ____
ROOT
ATOM      1  C   UNL     1       4.879  -6.095  -5.295  0.00  0.00    +0.017 C 
ATOM      2  C   UNL     1       4.048  -5.330  -4.231  0.00  0.00    +0.025 C 
ATOM      3  C   UNL     1       2.727  -5.032  -4.972  0.00  0.00    +0.088 C 
ATOM      4  N   UNL     1       3.014  -5.086  -6.416  0.00  0.00    -0.298 NA
ATOM      5  C   UNL     1       4.452  -5.378  -6.600  0.00  0.00    +0.085 C 
ATOM      6  C   UNL     1       2.182  -6.097  -7.082  0.00  0.00    +0.105 C 
ENDROOT
BRANCH   3   7
ATOM      7  C   UNL     1       2.228  -3.660  -4.598  0.00  0.00    -0.012 A 
ATOM      8  C   UNL     1       1.020  -3.510  -3.944  0.00  0.00    +0.115 A 
ATOM      9  N   UNL     1       0.576  -2.313  -3.613  0.00  0.00    -0.263 NA
ATOM     10  C   UNL     1       1.259  -1.220  -3.890  0.00  0.00    +0.111 A 
ATOM     11  C   UNL     1       2.476  -1.292  -4.542  0.00  0.00    +0.020 A 
ATOM     12  C   UNL     1       2.977  -2.533  -4.900  0.00  0.00    +0.008 A 
ENDBRANCH   3   7
TORSDOF 1
ENDMDL
