MODEL 1
REMARK VINA RESULT:    -0.630      0.000      0.000
REMARK INTER + INTRA:          -0.884
REMARK INTER:                  -0.667
REMARK INTRA:                  -0.217
REMARK UNBOUND:                -0.217
REMARK  Name = Nicotine.pdb
REMARK  2 active torsions:
REMARK  status: ('A' for Active; 'I' for Inactive)
REMARK    1  A    between atoms: C_3  and  C_6
REMARK    2  A    between atoms: N_4  and  C_12
REMARK                            x       y       z     vdW  Elec       q    Type
REMARK                         _______ _______ _______ _____ _____    ______ ____
ROOT
ATOM      1  C   UNL     1       4.605   4.966  -7.256  0.00  0.00    +0.017 C 
ATOM      2  C   UNL     1       6.027   4.379  -7.056  0.00  0.00    +0.025 C 
ATOM      3  C   UNL     1       6.676   5.370  -6.066  0.00  0.00    +0.088 C 
ATOM      4  N   UNL     1       5.938   6.641  -6.173  0.00  0.00    -0.298 NA
ATOM      5  C   UNL     1       4.885   6.489  -7.199  0.00  0.00    +0.085 C 
ATOM      6  C   UNL     1       5.362   7.028  -4.879  0.00  0.00    +0.105 C 
ENDROOT
BRANCH   3   7
ATOM      7  C   UNL     1       8.123   5.583  -6.427  0.00  0.00    -0.012 A 
ATOM      8  C   UNL     1       8.699   6.832  -6.299  0.00  0.00    +0.115 A 
ATOM      9  N   UNL     1       9.965   7.027  -6.613  0.00  0.00    -0.263 NA
ATOM     10  C   UNL     1      10.727   6.048  -7.059  0.00  0.00    +0.111 A 
ATOM     11  C   UNL     1      10.220   4.771  -7.213  0.00  0.00    +0.020 A 
ATOM     12  C   UNL     1       8.895   4.527  -6.887  0.00  0.00    +0.008 A 
ENDBRANCH   3   7
TORSDOF 1
ENDMDL
MODEL 2
REMARK VINA RESULT:    -0.608      1.332      2.020
REMARK INTER + INTRA:          -0.860
REMARK INTER:                  -0.654
REMARK INTRA:                  -0.206
REMARK UNBOUND:                -0.217
REMARK  Name = Nicotine.pdb
REMARK  2 active torsions:
REMARK  status: ('A' for Active; 'I' for Inactive)
REMARK    1  A    between atoms: C_3  and  C_6
REMARK    2  A    between atoms: N_4  and  C_12
REMARK                            x       y       z     vdW  Elec       q    Type
REMARK                         _______ _______ _______ _____ _____    ______ ____
ROOT
ATOM      1  C   UNL     1       5.004   6.548  -6.906  0.00  0.00    +0.017 C 
ATOM      2  C   UNL     1       6.457   7.028  -7.162  0.00  0.00    +0.025 C 
ATOM      3  C   UNL     1       7.269   5.716  -7.113  0.00  0.00    +0.088 C 
ATOM      4  N   UNL     1       6.477   4.740  -6.345  0.00  0.00    -0.298 NA
ATOM      5  C   UNL     1       5.229   5.394  -5.897  0.00  0.00    +0.085 C 
ATOM      6  C   UNL     1       6.187   3.546  -7.151  0.00  0.00    +0.105 C 
ENDROOT
BRANCH   3   7
ATOM      7  C   UNL     1       8.591   5.957  -6.431  0.00  0.00    -0.012 A 
ATOM      8  C   UNL     1       8.661   6.757  -5.306  0.00  0.00    +0.115 A 
ATOM      9  N   UNL     1       9.814   6.972  -4.702  0.00  0.00    -0.263 NA
ATOM     10  C   UNL     1      10.937   6.439  -5.142  0.00  0.00    +0.111 A 
ATOM     11  C   UNL     1      10.944   5.628  -6.261  0.00  0.00    +0.020 A 
ATOM     12  C   UNL     1       9.750   5.374  -6.919  0.00  0.00    +0.008 A 
ENDBRANCH   3   7
TORSDOF 1
ENDMDL
