MODEL 1
REMARK VINA RESULT:    -3.565      0.000      0.000
REMARK INTER + INTRA:          -3.966
REMARK INTER:                  -3.774
REMARK INTRA:                  -0.192
REMARK UNBOUND:                -0.192
REMARK  Name = Nicotine.pdb
REMARK  2 active torsions:
REMARK  status: ('A' for Active; 'I' for Inactive)
REMARK    1  A    between atoms: C_3  and  C_6
REMARK    2  A    between atoms: N_4  and  C_12
REMARK                            x       y       z     vdW  Elec       q    Type
REMARK                         _______ _______ _______ _____ _____    ______ ____
ROOT
ATOM      1  C   UNL     1       9.670  -0.604   6.241  0.00  0.00    +0.017 C 
ATOM      2  C   UNL     1       9.685  -2.094   5.812  0.00  0.00    +0.025 C 
ATOM      3  C   UNL     1      10.092  -2.023   4.325  0.00  0.00    +0.088 C 
ATOM      4  N   UNL     1       9.759  -0.669   3.845  0.00  0.00    -0.298 NA
ATOM      5  C   UNL     1       9.145   0.087   4.957  0.00  0.00    +0.085 C 
ATOM      6  C   UNL     1      10.954   0.018   3.337  0.00  0.00    +0.105 C 
ENDROOT
BRANCH   3   7
ATOM      7  C   UNL     1       9.325  -3.051   3.534  0.00  0.00    -0.012 A 
ATOM      8  C   UNL     1       9.078  -4.302   4.067  0.00  0.00    +0.115 A 
ATOM      9  N   UNL     1       8.407  -5.207   3.382  0.00  0.00    -0.263 NA
ATOM     10  C   UNL     1       7.950  -4.960   2.170  0.00  0.00    +0.111 A 
ATOM     11  C   UNL     1       8.158  -3.732   1.571  0.00  0.00    +0.020 A 
ATOM     12  C   UNL     1       8.854  -2.753   2.264  0.00  0.00    +0.008 A 
ENDBRANCH   3   7
TORSDOF 1
ENDMDL
MODEL 2
REMARK VINA RESULT:    -3.394      1.280      4.466
REMARK INTER + INTRA:          -3.785
REMARK INTER:                  -3.563
REMARK INTRA:                  -0.222
REMARK UNBOUND:                -0.192
REMARK  Name = Nicotine.pdb
REMARK  2 active torsions:
REMARK  status: ('A' for Active; 'I' for Inactive)
REMARK    1  A    between atoms: C_3  and  C_6
REMARK    2  A    between atoms: N_4  and  C_12
REMARK                            x       y       z     vdW  Elec       q    Type
REMARK                         _______ _______ _______ _____ _____    ______ ____
ROOT
ATOM      1  C   UNL     1       7.961  -4.919   1.818  0.00  0.00    +0.017 C 
ATOM      2  C   UNL     1       8.331  -3.431   2.054  0.00  0.00    +0.025 C 
ATOM      3  C   UNL     1       9.581  -3.523   2.955  0.00  0.00    +0.088 C 
ATOM      4  N   UNL     1       9.549  -4.841   3.614  0.00  0.00    -0.298 NA
ATOM      5  C   UNL     1       8.327  -5.553   3.183  0.00  0.00    +0.085 C 
ATOM      6  C   UNL     1      10.753  -5.619   3.296  0.00  0.00    +0.105 C 
ENDROOT
BRANCH   3   7
ATOM      7  C   UNL     1       9.549  -2.429   3.990  0.00  0.00    -0.012 A 
ATOM      8  C   UNL     1       9.718  -2.728   5.329  0.00  0.00    +0.115 A 
ATOM      9  N   UNL     1       9.691  -1.777   6.242  0.00  0.00    -0.263 NA
ATOM     10  C   UNL     1       9.502  -0.512   5.919  0.00  0.00    +0.111 A 
ATOM     11  C   UNL     1       9.326  -0.137   4.601  0.00  0.00    +0.020 A 
ATOM     12  C   UNL     1       9.354  -1.109   3.613  0.00  0.00    +0.008 A 
ENDBRANCH   3   7
TORSDOF 1
ENDMDL
MODEL 3
REMARK VINA RESULT:    -3.364      1.735      4.221
REMARK INTER + INTRA:          -3.753
REMARK INTER:                  -3.540
REMARK INTRA:                  -0.213
REMARK UNBOUND:                -0.192
REMARK  Name = Nicotine.pdb
REMARK  2 active torsions:
REMARK  status: ('A' for Active; 'I' for Inactive)
REMARK    1  A    between atoms: C_3  and  C_6
REMARK    2  A    between atoms: N_4  and  C_12
REMARK                            x       y       z     vdW  Elec       q    Type
REMARK                         _______ _______ _______ _____ _____    ______ ____
ROOT
ATOM      1  C   UNL     1       8.425  -4.913   1.287  0.00  0.00    +0.017 C 
ATOM      2  C   UNL     1       7.970  -4.017   2.469  0.00  0.00    +0.025 C 
ATOM      3  C   UNL     1       8.906  -2.794   2.357  0.00  0.00    +0.088 C 
ATOM      4  N   UNL     1      10.098  -3.224   1.604  0.00  0.00    -0.298 NA
ATOM      5  C   UNL     1       9.953  -4.656   1.269  0.00  0.00    +0.085 C 
ATOM      6  C   UNL     1      10.275  -2.414   0.392  0.00  0.00    +0.105 C 
ENDROOT
BRANCH   3   7
ATOM      7  C   UNL     1       9.307  -2.329   3.733  0.00  0.00    -0.012 A 
ATOM      8  C   UNL     1       9.469  -3.239   4.760  0.00  0.00    +0.115 A 
ATOM      9  N   UNL     1       9.820  -2.840   5.967  0.00  0.00    -0.263 NA
ATOM     10  C   UNL     1      10.029  -1.568   6.242  0.00  0.00    +0.111 A 
ATOM     11  C   UNL     1       9.887  -0.600   5.266  0.00  0.00    +0.020 A 
ATOM     12  C   UNL     1       9.524  -0.982   3.984  0.00  0.00    +0.008 A 
ENDBRANCH   3   7
TORSDOF 1
ENDMDL
MODEL 4
REMARK VINA RESULT:    -3.351      7.588      9.673
REMARK INTER + INTRA:          -3.739
REMARK INTER:                  -3.564
REMARK INTRA:                  -0.175
REMARK UNBOUND:                -0.192
REMARK  Name = Nicotine.pdb
REMARK  2 active torsions:
REMARK  status: ('A' for Active; 'I' for Inactive)
REMARK    1  A    between atoms: C_3  and  C_6
REMARK    2  A    between atoms: N_4  and  C_12
REMARK                            x       y       z     vdW  Elec       q    Type
REMARK                         _______ _______ _______ _____ _____    ______ ____
ROOT
ATOM      1  C   UNL     1       7.731  -1.515  -6.422  0.00  0.00    +0.017 C 
ATOM      2  C   UNL     1       7.941  -0.136  -5.742  0.00  0.00    +0.025 C 
ATOM      3  C   UNL     1       9.473  -0.063  -5.572  0.00  0.00    +0.088 C 
ATOM      4  N   UNL     1       9.983  -1.445  -5.599  0.00  0.00    -0.298 NA
ATOM      5  C   UNL     1       8.837  -2.367  -5.751  0.00  0.00    +0.085 C 
ATOM      6  C   UNL     1      10.954  -1.629  -6.685  0.00  0.00    +0.105 C 
ENDROOT
BRANCH   3   7
ATOM      7  C   UNL     1       9.813   0.585  -4.255  0.00  0.00    -0.012 A 
ATOM      8  C   UNL     1       9.916  -0.177  -3.107  0.00  0.00    +0.115 A 
ATOM      9  N   UNL     1      10.213   0.382  -1.950  0.00  0.00    -0.263 NA
ATOM     10  C   UNL     1      10.422   1.679  -1.841  0.00  0.00    +0.111 A 
ATOM     11  C   UNL     1      10.337   2.505  -2.946  0.00  0.00    +0.020 A 
ATOM     12  C   UNL     1      10.032   1.952  -4.180  0.00  0.00    +0.008 A 
ENDBRANCH   3   7
TORSDOF 1
ENDMDL
MODEL 5
REMARK VINA RESULT:    -3.344      1.361      4.426
REMARK INTER + INTRA:          -3.732
REMARK INTER:                  -3.486
REMARK INTRA:                  -0.246
REMARK UNBOUND:                -0.192
REMARK  Name = Nicotine.pdb
REMARK  2 active torsions:
REMARK  status: ('A' for Active; 'I' for Inactive)
REMARK    1  A    between atoms: C_3  and  C_6
REMARK    2  A    between atoms: N_4  and  C_12
REMARK                            x       y       z     vdW  Elec       q    Type
REMARK                         _______ _______ _______ _____ _____    ______ ____
ROOT
ATOM      1  C   UNL     1       9.782  -3.553   0.460  0.00  0.00    +0.017 C 
ATOM      2  C   UNL     1      10.548  -2.999   1.690  0.00  0.00    +0.025 C 
ATOM      3  C   UNL     1       9.698  -3.493   2.880  0.00  0.00    +0.088 C 
ATOM      4  N   UNL     1       8.342  -3.760   2.367  0.00  0.00    -0.298 NA
ATOM      5  C   UNL     1       8.310  -3.430   0.927  0.00  0.00    +0.085 C 
ATOM      6  C   UNL     1       7.958  -5.159   2.596  0.00  0.00    +0.105 C 
ENDROOT
BRANCH   3   7
ATOM      7  C   UNL     1       9.645  -2.432   3.948  0.00  0.00    -0.012 A 
ATOM      8  C   UNL     1       9.771  -2.774   5.281  0.00  0.00    +0.115 A 
ATOM      9  N   UNL     1       9.725  -1.851   6.221  0.00  0.00    -0.263 NA
ATOM     10  C   UNL     1       9.559  -0.575   5.933  0.00  0.00    +0.111 A 
ATOM     11  C   UNL     1       9.426  -0.157   4.622  0.00  0.00    +0.020 A 
ATOM     12  C   UNL     1       9.474  -1.099   3.606  0.00  0.00    +0.008 A 
ENDBRANCH   3   7
TORSDOF 1
ENDMDL
MODEL 6
REMARK VINA RESULT:    -3.241      7.463      9.503
REMARK INTER + INTRA:          -3.622
REMARK INTER:                  -3.400
REMARK INTRA:                  -0.222
REMARK UNBOUND:                -0.192
REMARK  Name = Nicotine.pdb
REMARK  2 active torsions:
REMARK  status: ('A' for Active; 'I' for Inactive)
REMARK    1  A    between atoms: C_3  and  C_6
REMARK    2  A    between atoms: N_4  and  C_12
REMARK                            x       y       z     vdW  Elec       q    Type
REMARK                         _______ _______ _______ _____ _____    ______ ____
ROOT
ATOM      1  C   UNL     1      10.510  -2.497  -5.370  0.00  0.00    +0.017 C 
ATOM      2  C   UNL     1      10.496  -1.773  -3.998  0.00  0.00    +0.025 C 
ATOM      3  C   UNL     1       9.405  -0.697  -4.184  0.00  0.00    +0.088 C 
ATOM      4  N   UNL     1       9.264  -0.464  -5.633  0.00  0.00    -0.298 NA
ATOM      5  C   UNL     1      10.232  -1.325  -6.345  0.00  0.00    +0.085 C 
ATOM      6  C   UNL     1       7.891  -0.734  -6.079  0.00  0.00    +0.105 C 
ENDROOT
BRANCH   3   7
ATOM      7  C   UNL     1       9.819   0.577  -3.496  0.00  0.00    -0.012 A 
ATOM      8  C   UNL     1       9.795   1.779  -4.178  0.00  0.00    +0.115 A 
ATOM      9  N   UNL     1      10.156   2.900  -3.584  0.00  0.00    -0.263 NA
ATOM     10  C   UNL     1      10.552   2.921  -2.326  0.00  0.00    +0.111 A 
ATOM     11  C   UNL     1      10.601   1.758  -1.580  0.00  0.00    +0.020 A 
ATOM     12  C   UNL     1      10.224   0.561  -2.170  0.00  0.00    +0.008 A 
ENDBRANCH   3   7
TORSDOF 1
ENDMDL
MODEL 7
REMARK VINA RESULT:    -3.195      2.596      4.532
REMARK INTER + INTRA:          -3.573
REMARK INTER:                  -3.331
REMARK INTRA:                  -0.242
REMARK UNBOUND:                -0.192
REMARK  Name = Nicotine.pdb
REMARK  2 active torsions:
REMARK  status: ('A' for Active; 'I' for Inactive)
REMARK    1  A    between atoms: C_3  and  C_6
REMARK    2  A    between atoms: N_4  and  C_12
REMARK                            x       y       z     vdW  Elec       q    Type
REMARK                         _______ _______ _______ _____ _____    ______ ____
ROOT
ATOM      1  C   UNL     1       8.959  -3.499   3.987  0.00  0.00    +0.017 C 
ATOM      2  C   UNL     1       8.763  -2.739   2.650  0.00  0.00    +0.025 C 
ATOM      3  C   UNL     1       8.404  -3.866   1.659  0.00  0.00    +0.088 C 
ATOM      4  N   UNL     1       8.918  -5.126   2.225  0.00  0.00    -0.298 NA
ATOM      5  C   UNL     1       9.598  -4.825   3.503  0.00  0.00    +0.085 C 
ATOM      6  C   UNL     1       7.834  -6.097   2.421  0.00  0.00    +0.105 C 
ENDROOT
BRANCH   3   7
ATOM      7  C   UNL     1       9.051  -3.601   0.324  0.00  0.00    -0.012 A 
ATOM      8  C   UNL     1       8.840  -4.460  -0.738  0.00  0.00    +0.115 A 
ATOM      9  N   UNL     1       9.403  -4.235  -1.910  0.00  0.00    -0.263 NA
ATOM     10  C   UNL     1      10.182  -3.192  -2.115  0.00  0.00    +0.111 A 
ATOM     11  C   UNL     1      10.438  -2.289  -1.101  0.00  0.00    +0.020 A 
ATOM     12  C   UNL     1       9.860  -2.490   0.143  0.00  0.00    +0.008 A 
ENDBRANCH   3   7
TORSDOF 1
ENDMDL
MODEL 8
REMARK VINA RESULT:    -3.062      3.182      4.767
REMARK INTER + INTRA:          -3.433
REMARK INTER:                  -3.182
REMARK INTRA:                  -0.251
REMARK UNBOUND:                -0.192
REMARK  Name = Nicotine.pdb
REMARK  2 active torsions:
REMARK  status: ('A' for Active; 'I' for Inactive)
REMARK    1  A    between atoms: C_3  and  C_6
REMARK    2  A    between atoms: N_4  and  C_12
REMARK                            x       y       z     vdW  Elec       q    Type
REMARK                         _______ _______ _______ _____ _____    ______ ____
ROOT
ATOM      1  C   UNL     1      10.856  -0.846  -1.196  0.00  0.00    +0.017 C 
ATOM      2  C   UNL     1      10.904  -1.687   0.107  0.00  0.00    +0.025 C 
ATOM      3  C   UNL     1      10.351  -3.056  -0.342  0.00  0.00    +0.088 C 
ATOM      4  N   UNL     1       9.552  -2.827  -1.559  0.00  0.00    -0.298 NA
ATOM      5  C   UNL     1       9.564  -1.380  -1.865  0.00  0.00    +0.085 C 
ATOM      6  C   UNL     1      10.072  -3.609  -2.687  0.00  0.00    +0.105 C 
ENDROOT
BRANCH   3   7
ATOM      7  C   UNL     1       9.483  -3.639   0.742  0.00  0.00    -0.012 A 
ATOM      8  C   UNL     1       9.019  -4.938   0.644  0.00  0.00    +0.115 A 
ATOM      9  N   UNL     1       8.259  -5.456   1.588  0.00  0.00    -0.263 NA
ATOM     10  C   UNL     1       7.911  -4.764   2.655  0.00  0.00    +0.111 A 
ATOM     11  C   UNL     1       8.337  -3.459   2.822  0.00  0.00    +0.020 A 
ATOM     12  C   UNL     1       9.142  -2.883   1.853  0.00  0.00    +0.008 A 
ENDBRANCH   3   7
TORSDOF 1
ENDMDL
MODEL 9
REMARK VINA RESULT:    -2.975      2.803      5.047
REMARK INTER + INTRA:          -3.341
REMARK INTER:                  -3.114
REMARK INTRA:                  -0.227
REMARK UNBOUND:                -0.192
REMARK  Name = Nicotine.pdb
REMARK  2 active torsions:
REMARK  status: ('A' for Active; 'I' for Inactive)
REMARK    1  A    between atoms: C_3  and  C_6
REMARK    2  A    between atoms: N_4  and  C_12
REMARK                            x       y       z     vdW  Elec       q    Type
REMARK                         _______ _______ _______ _____ _____    ______ ____
ROOT
ATOM      1  C   UNL     1       9.696  -4.518  -2.236  0.00  0.00    +0.017 C 
ATOM      2  C   UNL     1       8.686  -4.652  -1.065  0.00  0.00    +0.025 C 
ATOM      3  C   UNL     1       8.921  -3.359  -0.255  0.00  0.00    +0.088 C 
ATOM      4  N   UNL     1      10.274  -2.876  -0.585  0.00  0.00    -0.298 NA
ATOM      5  C   UNL     1      10.892  -3.822  -1.539  0.00  0.00    +0.085 C 
ATOM      6  C   UNL     1      10.227  -1.519  -1.144  0.00  0.00    +0.105 C 
ENDROOT
BRANCH   3   7
ATOM      7  C   UNL     1       8.826  -3.654   1.219  0.00  0.00    -0.012 A 
ATOM      8  C   UNL     1       9.191  -2.698   2.149  0.00  0.00    +0.115 A 
ATOM      9  N   UNL     1       9.111  -2.948   3.441  0.00  0.00    -0.263 NA
ATOM     10  C   UNL     1       8.683  -4.109   3.897  0.00  0.00    +0.111 A 
ATOM     11  C   UNL     1       8.300  -5.114   3.028  0.00  0.00    +0.020 A 
ATOM     12  C   UNL     1       8.366  -4.885   1.662  0.00  0.00    +0.008 A 
ENDBRANCH   3   7
TORSDOF 1
ENDMDL
MODEL 10
REMARK VINA RESULT:    -2.912      7.437      8.791
REMARK INTER + INTRA:          -3.274
REMARK INTER:                  -3.054
REMARK INTRA:                  -0.220
REMARK UNBOUND:                -0.192
REMARK  Name = Nicotine.pdb
REMARK  2 active torsions:
REMARK  status: ('A' for Active; 'I' for Inactive)
REMARK    1  A    between atoms: C_3  and  C_6
REMARK    2  A    between atoms: N_4  and  C_12
REMARK                            x       y       z     vdW  Elec       q    Type
REMARK                         _______ _______ _______ _____ _____    ______ ____
ROOT
ATOM      1  C   UNL     1      10.668  -1.358  -2.214  0.00  0.00    +0.017 C 
ATOM      2  C   UNL     1      10.613  -2.308  -3.439  0.00  0.00    +0.025 C 
ATOM      3  C   UNL     1       9.998  -1.418  -4.540  0.00  0.00    +0.088 C 
ATOM      4  N   UNL     1       9.263  -0.333  -3.865  0.00  0.00    -0.298 NA
ATOM      5  C   UNL     1       9.375  -0.527  -2.404  0.00  0.00    +0.085 C 
ATOM      6  C   UNL     1       9.781   0.982  -4.264  0.00  0.00    +0.105 C 
ENDROOT
BRANCH   3   7
ATOM      7  C   UNL     1       9.052  -2.231  -5.387  0.00  0.00    -0.012 A 
ATOM      8  C   UNL     1       8.123  -1.603  -6.195  0.00  0.00    +0.115 A 
ATOM      9  N   UNL     1       7.292  -2.307  -6.939  0.00  0.00    -0.263 NA
ATOM     10  C   UNL     1       7.311  -3.625  -6.943  0.00  0.00    +0.111 A 
ATOM     11  C   UNL     1       8.212  -4.322  -6.160  0.00  0.00    +0.020 A 
ATOM     12  C   UNL     1       9.105  -3.616  -5.368  0.00  0.00    +0.008 A 
ENDBRANCH   3   7
TORSDOF 1
ENDMDL
