MODEL 1
REMARK VINA RESULT:     8.629      0.000      0.000
REMARK INTER + INTRA:           8.922
REMARK INTER:                   9.134
REMARK INTRA:                  -0.212
REMARK UNBOUND:                -0.212
REMARK  Name = Nicotine.pdb
REMARK  2 active torsions:
REMARK  status: ('A' for Active; 'I' for Inactive)
REMARK    1  A    between atoms: C_3  and  C_6
REMARK    2  A    between atoms: N_4  and  C_12
REMARK                            x       y       z     vdW  Elec       q    Type
REMARK                         _______ _______ _______ _____ _____    ______ ____
ROOT
ATOM      1  C   UNL     1       8.851   3.647  -4.499  0.00  0.00    +0.017 C 
ATOM      2  C   UNL     1       7.335   3.648  -4.831  0.00  0.00    +0.025 C 
ATOM      3  C   UNL     1       6.867   5.025  -4.314  0.00  0.00    +0.088 C 
ATOM      4  N   UNL     1       7.845   5.467  -3.304  0.00  0.00    -0.298 NA
ATOM      5  C   UNL     1       8.877   4.419  -3.156  0.00  0.00    +0.085 C 
ATOM      6  C   UNL     1       8.448   6.752  -3.681  0.00  0.00    +0.105 C 
ENDROOT
BRANCH   3   7
ATOM      7  C   UNL     1       5.502   4.900  -3.689  0.00  0.00    -0.012 A 
ATOM      8  C   UNL     1       5.160   3.767  -2.976  0.00  0.00    +0.115 A 
ATOM      9  N   UNL     1       3.967   3.650  -2.425  0.00  0.00    -0.263 NA
ATOM     10  C   UNL     1       3.059   4.600  -2.532  0.00  0.00    +0.111 A 
ATOM     11  C   UNL     1       3.329   5.762  -3.230  0.00  0.00    +0.020 A 
ATOM     12  C   UNL     1       4.574   5.923  -3.818  0.00  0.00    +0.008 A 
ENDBRANCH   3   7
TORSDOF 1
ENDMDL
MODEL 2
REMARK VINA RESULT:    10.241     12.397     13.929
REMARK INTER + INTRA:          10.628
REMARK INTER:                  10.817
REMARK INTRA:                  -0.190
REMARK UNBOUND:                -0.212
REMARK  Name = Nicotine.pdb
REMARK  2 active torsions:
REMARK  status: ('A' for Active; 'I' for Inactive)
REMARK    1  A    between atoms: C_3  and  C_6
REMARK    2  A    between atoms: N_4  and  C_12
REMARK                            x       y       z     vdW  Elec       q    Type
REMARK                         _______ _______ _______ _____ _____    ______ ____
ROOT
ATOM      1  C   UNL     1       5.226  -4.746   2.866  0.00  0.00    +0.017 C 
ATOM      2  C   UNL     1       6.466  -5.675   2.807  0.00  0.00    +0.025 C 
ATOM      3  C   UNL     1       6.736  -5.990   4.294  0.00  0.00    +0.088 C 
ATOM      4  N   UNL     1       6.115  -4.914   5.087  0.00  0.00    -0.298 NA
ATOM      5  C   UNL     1       5.500  -3.940   4.161  0.00  0.00    +0.085 C 
ATOM      6  C   UNL     1       5.119  -5.455   6.021  0.00  0.00    +0.105 C 
ENDROOT
BRANCH   3   7
ATOM      7  C   UNL     1       8.220  -6.027   4.550  0.00  0.00    -0.012 A 
ATOM      8  C   UNL     1       9.111  -6.055   3.493  0.00  0.00    +0.115 A 
ATOM      9  N   UNL     1      10.412  -6.087   3.708  0.00  0.00    -0.263 NA
ATOM     10  C   UNL     1      10.913  -6.094   4.928  0.00  0.00    +0.111 A 
ATOM     11  C   UNL     1      10.083  -6.067   6.033  0.00  0.00    +0.020 A 
ATOM     12  C   UNL     1       8.710  -6.027   5.847  0.00  0.00    +0.008 A 
ENDBRANCH   3   7
TORSDOF 1
ENDMDL
MODEL 3
REMARK VINA RESULT:    11.322      1.061      4.480
REMARK INTER + INTRA:          11.772
REMARK INTER:                  12.028
REMARK INTRA:                  -0.256
REMARK UNBOUND:                -0.212
REMARK  Name = Nicotine.pdb
REMARK  2 active torsions:
REMARK  status: ('A' for Active; 'I' for Inactive)
REMARK    1  A    between atoms: C_3  and  C_6
REMARK    2  A    between atoms: N_4  and  C_12
REMARK                            x       y       z     vdW  Elec       q    Type
REMARK                         _______ _______ _______ _____ _____    ______ ____
ROOT
ATOM      1  C   UNL     1       3.351   5.507  -3.501  0.00  0.00    +0.017 C 
ATOM      2  C   UNL     1       4.701   5.793  -4.210  0.00  0.00    +0.025 C 
ATOM      3  C   UNL     1       5.520   4.515  -3.927  0.00  0.00    +0.088 C 
ATOM      4  N   UNL     1       4.936   3.878  -2.733  0.00  0.00    -0.298 NA
ATOM      5  C   UNL     1       3.815   4.714  -2.253  0.00  0.00    +0.085 C 
ATOM      6  C   UNL     1       4.485   2.513  -3.032  0.00  0.00    +0.105 C 
ENDROOT
BRANCH   3   7
ATOM      7  C   UNL     1       6.959   4.875  -3.666  0.00  0.00    -0.012 A 
ATOM      8  C   UNL     1       7.955   3.929  -3.815  0.00  0.00    +0.115 A 
ATOM      9  N   UNL     1       9.217   4.236  -3.589  0.00  0.00    -0.263 NA
ATOM     10  C   UNL     1       9.579   5.447  -3.213  0.00  0.00    +0.111 A 
ATOM     11  C   UNL     1       8.639   6.446  -3.044  0.00  0.00    +0.020 A 
ATOM     12  C   UNL     1       7.302   6.162  -3.278  0.00  0.00    +0.008 A 
ENDBRANCH   3   7
TORSDOF 1
ENDMDL
