MODEL 1
REMARK VINA RESULT:    -2.608      0.000      0.000
REMARK INTER + INTRA:          -2.988
REMARK INTER:                  -2.760
REMARK INTRA:                  -0.228
REMARK UNBOUND:                -0.228
REMARK  Name = Nicotine.pdb
REMARK  2 active torsions:
REMARK  status: ('A' for Active; 'I' for Inactive)
REMARK    1  A    between atoms: C_3  and  C_6
REMARK    2  A    between atoms: N_4  and  C_12
REMARK                            x       y       z     vdW  Elec       q    Type
REMARK                         _______ _______ _______ _____ _____    ______ ____
ROOT
ATOM      1  C   UNL     1       5.620   0.600   3.529  0.00  0.00    +0.017 C 
ATOM      2  C   UNL     1       6.908   0.258   4.324  0.00  0.00    +0.025 C 
ATOM      3  C   UNL     1       8.013   0.346   3.249  0.00  0.00    +0.088 C 
ATOM      4  N   UNL     1       7.363   0.167   1.939  0.00  0.00    -0.298 NA
ATOM      5  C   UNL     1       5.917  -0.053   2.156  0.00  0.00    +0.085 C 
ATOM      6  C   UNL     1       7.595   1.329   1.072  0.00  0.00    +0.105 C 
ENDROOT
BRANCH   3   7
ATOM      7  C   UNL     1       9.032  -0.741   3.471  0.00  0.00    -0.012 A 
ATOM      8  C   UNL     1      10.018  -0.976   2.533  0.00  0.00    +0.115 A 
ATOM      9  N   UNL     1      10.914  -1.926   2.719  0.00  0.00    -0.263 NA
ATOM     10  C   UNL     1      10.907  -2.684   3.798  0.00  0.00    +0.111 A 
ATOM     11  C   UNL     1       9.951  -2.506   4.780  0.00  0.00    +0.020 A 
ATOM     12  C   UNL     1       8.996  -1.514   4.622  0.00  0.00    +0.008 A 
ENDBRANCH   3   7
TORSDOF 1
ENDMDL
MODEL 2
REMARK VINA RESULT:    -2.345      2.912      4.404
REMARK INTER + INTRA:          -2.711
REMARK INTER:                  -2.499
REMARK INTRA:                  -0.212
REMARK UNBOUND:                -0.228
REMARK  Name = Nicotine.pdb
REMARK  2 active torsions:
REMARK  status: ('A' for Active; 'I' for Inactive)
REMARK    1  A    between atoms: C_3  and  C_6
REMARK    2  A    between atoms: N_4  and  C_12
REMARK                            x       y       z     vdW  Elec       q    Type
REMARK                         _______ _______ _______ _____ _____    ______ ____
ROOT
ATOM      1  C   UNL     1       2.680  -3.085   4.331  0.00  0.00    +0.017 C 
ATOM      2  C   UNL     1       4.102  -2.588   4.700  0.00  0.00    +0.025 C 
ATOM      3  C   UNL     1       4.063  -1.097   4.304  0.00  0.00    +0.088 C 
ATOM      4  N   UNL     1       2.989  -0.938   3.307  0.00  0.00    -0.298 NA
ATOM      5  C   UNL     1       2.383  -2.262   3.052  0.00  0.00    +0.085 C 
ATOM      6  C   UNL     1       1.979   0.024   3.770  0.00  0.00    +0.105 C 
ENDROOT
BRANCH   3   7
ATOM      7  C   UNL     1       5.384  -0.691   3.705  0.00  0.00    -0.012 A 
ATOM      8  C   UNL     1       5.478  -0.388   2.359  0.00  0.00    +0.115 A 
ATOM      9  N   UNL     1       6.631  -0.031   1.827  0.00  0.00    -0.263 NA
ATOM     10  C   UNL     1       7.732   0.050   2.548  0.00  0.00    +0.111 A 
ATOM     11  C   UNL     1       7.715  -0.237   3.900  0.00  0.00    +0.020 A 
ATOM     12  C   UNL     1       6.520  -0.610   4.496  0.00  0.00    +0.008 A 
ENDBRANCH   3   7
TORSDOF 1
ENDMDL
MODEL 3
REMARK VINA RESULT:    -2.318      1.565      4.281
REMARK INTER + INTRA:          -2.682
REMARK INTER:                  -2.482
REMARK INTRA:                  -0.199
REMARK UNBOUND:                -0.228
REMARK  Name = Nicotine.pdb
REMARK  2 active torsions:
REMARK  status: ('A' for Active; 'I' for Inactive)
REMARK    1  A    between atoms: C_3  and  C_6
REMARK    2  A    between atoms: N_4  and  C_12
REMARK                            x       y       z     vdW  Elec       q    Type
REMARK                         _______ _______ _______ _____ _____    ______ ____
ROOT
ATOM      1  C   UNL     1      10.679   0.082   1.640  0.00  0.00    +0.017 C 
ATOM      2  C   UNL     1       9.239   0.649   1.745  0.00  0.00    +0.025 C 
ATOM      3  C   UNL     1       8.830   0.294   3.190  0.00  0.00    +0.088 C 
ATOM      4  N   UNL     1       9.680  -0.831   3.620  0.00  0.00    -0.298 NA
ATOM      5  C   UNL     1      10.573  -1.201   2.502  0.00  0.00    +0.085 C 
ATOM      6  C   UNL     1      10.453  -0.480   4.818  0.00  0.00    +0.105 C 
ENDROOT
BRANCH   3   7
ATOM      7  C   UNL     1       7.380  -0.113   3.227  0.00  0.00    -0.012 A 
ATOM      8  C   UNL     1       6.615  -0.079   2.076  0.00  0.00    +0.115 A 
ATOM      9  N   UNL     1       5.345  -0.434   2.100  0.00  0.00    -0.263 NA
ATOM     10  C   UNL     1       4.757  -0.832   3.210  0.00  0.00    +0.111 A 
ATOM     11  C   UNL     1       5.459  -0.894   4.400  0.00  0.00    +0.020 A 
ATOM     12  C   UNL     1       6.798  -0.533   4.413  0.00  0.00    +0.008 A 
ENDBRANCH   3   7
TORSDOF 1
ENDMDL
MODEL 4
REMARK VINA RESULT:    -2.221      1.813      3.993
REMARK INTER + INTRA:          -2.579
REMARK INTER:                  -2.411
REMARK INTRA:                  -0.168
REMARK UNBOUND:                -0.228
REMARK  Name = Nicotine.pdb
REMARK  2 active torsions:
REMARK  status: ('A' for Active; 'I' for Inactive)
REMARK    1  A    between atoms: C_3  and  C_6
REMARK    2  A    between atoms: N_4  and  C_12
REMARK                            x       y       z     vdW  Elec       q    Type
REMARK                         _______ _______ _______ _____ _____    ______ ____
ROOT
ATOM      1  C   UNL     1       9.965   2.155   2.164  0.00  0.00    +0.017 C 
ATOM      2  C   UNL     1       8.768   1.907   3.119  0.00  0.00    +0.025 C 
ATOM      3  C   UNL     1       8.717   0.368   3.220  0.00  0.00    +0.088 C 
ATOM      4  N   UNL     1       9.395  -0.171   2.027  0.00  0.00    -0.298 NA
ATOM      5  C   UNL     1       9.837   0.961   1.185  0.00  0.00    +0.085 C 
ATOM      6  C   UNL     1      10.530  -1.022   2.405  0.00  0.00    +0.105 C 
ENDROOT
BRANCH   3   7
ATOM      7  C   UNL     1       7.285  -0.097   3.252  0.00  0.00    -0.012 A 
ATOM      8  C   UNL     1       6.524  -0.097   2.098  0.00  0.00    +0.115 A 
ATOM      9  N   UNL     1       5.269  -0.503   2.117  0.00  0.00    -0.263 NA
ATOM     10  C   UNL     1       4.693  -0.920   3.227  0.00  0.00    +0.111 A 
ATOM     11  C   UNL     1       5.391  -0.948   4.420  0.00  0.00    +0.020 A 
ATOM     12  C   UNL     1       6.714  -0.534   4.438  0.00  0.00    +0.008 A 
ENDBRANCH   3   7
TORSDOF 1
ENDMDL
MODEL 5
REMARK VINA RESULT:    -2.201      1.489      1.898
REMARK INTER + INTRA:          -2.558
REMARK INTER:                  -2.303
REMARK INTRA:                  -0.255
REMARK UNBOUND:                -0.228
REMARK  Name = Nicotine.pdb
REMARK  2 active torsions:
REMARK  status: ('A' for Active; 'I' for Inactive)
REMARK    1  A    between atoms: C_3  and  C_6
REMARK    2  A    between atoms: N_4  and  C_12
REMARK                            x       y       z     vdW  Elec       q    Type
REMARK                         _______ _______ _______ _____ _____    ______ ____
ROOT
ATOM      1  C   UNL     1       7.496   3.205   2.383  0.00  0.00    +0.017 C 
ATOM      2  C   UNL     1       8.692   2.461   3.035  0.00  0.00    +0.025 C 
ATOM      3  C   UNL     1       9.119   1.463   1.938  0.00  0.00    +0.088 C 
ATOM      4  N   UNL     1       7.957   1.264   1.052  0.00  0.00    -0.298 NA
ATOM      5  C   UNL     1       6.829   2.070   1.566  0.00  0.00    +0.085 C 
ATOM      6  C   UNL     1       8.280   1.631  -0.332  0.00  0.00    +0.105 C 
ENDROOT
BRANCH   3   7
ATOM      7  C   UNL     1       9.518   0.153   2.564  0.00  0.00    -0.012 A 
ATOM      8  C   UNL     1      10.447  -0.663   1.946  0.00  0.00    +0.115 A 
ATOM      9  N   UNL     1      10.803  -1.812   2.488  0.00  0.00    -0.263 NA
ATOM     10  C   UNL     1      10.292  -2.227   3.631  0.00  0.00    +0.111 A 
ATOM     11  C   UNL     1       9.358  -1.464   4.307  0.00  0.00    +0.020 A 
ATOM     12  C   UNL     1       8.964  -0.248   3.771  0.00  0.00    +0.008 A 
ENDBRANCH   3   7
TORSDOF 1
ENDMDL
MODEL 6
REMARK VINA RESULT:    -2.163      1.974      2.901
REMARK INTER + INTRA:          -2.518
REMARK INTER:                  -2.278
REMARK INTRA:                  -0.240
REMARK UNBOUND:                -0.228
REMARK  Name = Nicotine.pdb
REMARK  2 active torsions:
REMARK  status: ('A' for Active; 'I' for Inactive)
REMARK    1  A    between atoms: C_3  and  C_6
REMARK    2  A    between atoms: N_4  and  C_12
REMARK                            x       y       z     vdW  Elec       q    Type
REMARK                         _______ _______ _______ _____ _____    ______ ____
ROOT
ATOM      1  C   UNL     1       9.617   1.354   4.925  0.00  0.00    +0.017 C 
ATOM      2  C   UNL     1      10.248   0.014   5.388  0.00  0.00    +0.025 C 
ATOM      3  C   UNL     1      10.012  -0.917   4.180  0.00  0.00    +0.088 C 
ATOM      4  N   UNL     1       8.888  -0.356   3.409  0.00  0.00    -0.298 NA
ATOM      5  C   UNL     1       8.404   0.859   4.098  0.00  0.00    +0.085 C 
ATOM      6  C   UNL     1       9.293  -0.055   2.030  0.00  0.00    +0.105 C 
ENDROOT
BRANCH   3   7
ATOM      7  C   UNL     1       9.667  -2.302   4.660  0.00  0.00    -0.012 A 
ATOM      8  C   UNL     1      10.272  -3.409   4.095  0.00  0.00    +0.115 A 
ATOM      9  N   UNL     1       9.975  -4.625   4.510  0.00  0.00    -0.263 NA
ATOM     10  C   UNL     1       9.097  -4.835   5.470  0.00  0.00    +0.111 A 
ATOM     11  C   UNL     1       8.451  -3.777   6.082  0.00  0.00    +0.020 A 
ATOM     12  C   UNL     1       8.742  -2.483   5.677  0.00  0.00    +0.008 A 
ENDBRANCH   3   7
TORSDOF 1
ENDMDL
MODEL 7
REMARK VINA RESULT:    -2.089      2.227      3.487
REMARK INTER + INTRA:          -2.440
REMARK INTER:                  -2.244
REMARK INTRA:                  -0.196
REMARK UNBOUND:                -0.228
REMARK  Name = Nicotine.pdb
REMARK  2 active torsions:
REMARK  status: ('A' for Active; 'I' for Inactive)
REMARK    1  A    between atoms: C_3  and  C_6
REMARK    2  A    between atoms: N_4  and  C_12
REMARK                            x       y       z     vdW  Elec       q    Type
REMARK                         _______ _______ _______ _____ _____    ______ ____
ROOT
ATOM      1  C   UNL     1      10.927   2.487  -0.214  0.00  0.00    +0.017 C 
ATOM      2  C   UNL     1      10.579   0.999   0.051  0.00  0.00    +0.025 C 
ATOM      3  C   UNL     1       9.483   1.087   1.134  0.00  0.00    +0.088 C 
ATOM      4  N   UNL     1       9.634   2.391   1.804  0.00  0.00    -0.298 NA
ATOM      5  C   UNL     1      10.784   3.099   1.202  0.00  0.00    +0.085 C 
ATOM      6  C   UNL     1       8.406   3.188   1.688  0.00  0.00    +0.105 C 
ENDROOT
BRANCH   3   7
ATOM      7  C   UNL     1       9.660  -0.027   2.134  0.00  0.00    -0.012 A 
ATOM      8  C   UNL     1      10.620  -1.001   1.932  0.00  0.00    +0.115 A 
ATOM      9  N   UNL     1      10.781  -1.979   2.802  0.00  0.00    -0.263 NA
ATOM     10  C   UNL     1      10.041  -2.069   3.889  0.00  0.00    +0.111 A 
ATOM     11  C   UNL     1       9.062  -1.131   4.158  0.00  0.00    +0.020 A 
ATOM     12  C   UNL     1       8.866  -0.085   3.269  0.00  0.00    +0.008 A 
ENDBRANCH   3   7
TORSDOF 1
ENDMDL
MODEL 8
REMARK VINA RESULT:    -1.966      1.681      4.713
REMARK INTER + INTRA:          -2.309
REMARK INTER:                  -2.096
REMARK INTRA:                  -0.213
REMARK UNBOUND:                -0.228
REMARK  Name = Nicotine.pdb
REMARK  2 active torsions:
REMARK  status: ('A' for Active; 'I' for Inactive)
REMARK    1  A    between atoms: C_3  and  C_6
REMARK    2  A    between atoms: N_4  and  C_12
REMARK                            x       y       z     vdW  Elec       q    Type
REMARK                         _______ _______ _______ _____ _____    ______ ____
ROOT
ATOM      1  C   UNL     1       9.933  -0.773   4.489  0.00  0.00    +0.017 C 
ATOM      2  C   UNL     1       8.450  -0.735   4.036  0.00  0.00    +0.025 C 
ATOM      3  C   UNL     1       8.547  -0.261   2.570  0.00  0.00    +0.088 C 
ATOM      4  N   UNL     1       9.835   0.440   2.422  0.00  0.00    -0.298 NA
ATOM      5  C   UNL     1      10.523   0.442   3.731  0.00  0.00    +0.085 C 
ATOM      6  C   UNL     1      10.665  -0.196   1.391  0.00  0.00    +0.105 C 
ENDROOT
BRANCH   3   7
ATOM      7  C   UNL     1       7.411   0.680   2.260  0.00  0.00    -0.012 A 
ATOM      8  C   UNL     1       6.101   0.261   2.390  0.00  0.00    +0.115 A 
ATOM      9  N   UNL     1       5.101   1.078   2.120  0.00  0.00    -0.263 NA
ATOM     10  C   UNL     1       5.308   2.317   1.718  0.00  0.00    +0.111 A 
ATOM     11  C   UNL     1       6.592   2.806   1.565  0.00  0.00    +0.020 A 
ATOM     12  C   UNL     1       7.668   1.978   1.844  0.00  0.00    +0.008 A 
ENDBRANCH   3   7
TORSDOF 1
ENDMDL
MODEL 9
REMARK VINA RESULT:    -1.962      1.648      2.786
REMARK INTER + INTRA:          -2.305
REMARK INTER:                  -2.093
REMARK INTRA:                  -0.212
REMARK UNBOUND:                -0.228
REMARK  Name = Nicotine.pdb
REMARK  2 active torsions:
REMARK  status: ('A' for Active; 'I' for Inactive)
REMARK    1  A    between atoms: C_3  and  C_6
REMARK    2  A    between atoms: N_4  and  C_12
REMARK                            x       y       z     vdW  Elec       q    Type
REMARK                         _______ _______ _______ _____ _____    ______ ____
ROOT
ATOM      1  C   UNL     1       4.050   1.799   3.254  0.00  0.00    +0.017 C 
ATOM      2  C   UNL     1       5.391   1.745   2.476  0.00  0.00    +0.025 C 
ATOM      3  C   UNL     1       5.731   0.239   2.475  0.00  0.00    +0.088 C 
ATOM      4  N   UNL     1       5.006  -0.374   3.602  0.00  0.00    -0.298 NA
ATOM      5  C   UNL     1       4.257   0.686   4.312  0.00  0.00    +0.085 C 
ATOM      6  C   UNL     1       4.104  -1.434   3.135  0.00  0.00    +0.105 C 
ENDROOT
BRANCH   3   7
ATOM      7  C   UNL     1       7.215   0.048   2.653  0.00  0.00    -0.012 A 
ATOM      8  C   UNL     1       8.093   0.425   1.655  0.00  0.00    +0.115 A 
ATOM      9  N   UNL     1       9.394   0.262   1.804  0.00  0.00    -0.263 NA
ATOM     10  C   UNL     1       9.905  -0.263   2.899  0.00  0.00    +0.111 A 
ATOM     11  C   UNL     1       9.089  -0.663   3.941  0.00  0.00    +0.020 A 
ATOM     12  C   UNL     1       7.717  -0.502   3.823  0.00  0.00    +0.008 A 
ENDBRANCH   3   7
TORSDOF 1
ENDMDL
MODEL 10
REMARK VINA RESULT:    -1.946      2.879      4.576
REMARK INTER + INTRA:          -2.288
REMARK INTER:                  -2.033
REMARK INTRA:                  -0.254
REMARK UNBOUND:                -0.228
REMARK  Name = Nicotine.pdb
REMARK  2 active torsions:
REMARK  status: ('A' for Active; 'I' for Inactive)
REMARK    1  A    between atoms: C_3  and  C_6
REMARK    2  A    between atoms: N_4  and  C_12
REMARK                            x       y       z     vdW  Elec       q    Type
REMARK                         _______ _______ _______ _____ _____    ______ ____
ROOT
ATOM      1  C   UNL     1       7.508   2.803  -2.551  0.00  0.00    +0.017 C 
ATOM      2  C   UNL     1       7.600   2.866  -1.003  0.00  0.00    +0.025 C 
ATOM      3  C   UNL     1       8.958   2.194  -0.709  0.00  0.00    +0.088 C 
ATOM      4  N   UNL     1       9.286   1.345  -1.868  0.00  0.00    -0.298 NA
ATOM      5  C   UNL     1       8.185   1.442  -2.850  0.00  0.00    +0.085 C 
ATOM      6  C   UNL     1      10.565   1.745  -2.469  0.00  0.00    +0.105 C 
ENDROOT
BRANCH   3   7
ATOM      7  C   UNL     1       8.853   1.348   0.534  0.00  0.00    -0.012 A 
ATOM      8  C   UNL     1       9.992   0.866   1.150  0.00  0.00    +0.115 A 
ATOM      9  N   UNL     1       9.909   0.125   2.238  0.00  0.00    -0.263 NA
ATOM     10  C   UNL     1       8.747  -0.183   2.779  0.00  0.00    +0.111 A 
ATOM     11  C   UNL     1       7.564   0.263   2.219  0.00  0.00    +0.020 A 
ATOM     12  C   UNL     1       7.613   1.049   1.078  0.00  0.00    +0.008 A 
ENDBRANCH   3   7
TORSDOF 1
ENDMDL
