MODEL 1
REMARK VINA RESULT:    -4.188      0.000      0.000
REMARK INTER + INTRA:          -4.673
REMARK INTER:                  -4.433
REMARK INTRA:                  -0.240
REMARK UNBOUND:                -0.240
REMARK  Name = Nicotine.pdb
REMARK  2 active torsions:
REMARK  status: ('A' for Active; 'I' for Inactive)
REMARK    1  A    between atoms: C_3  and  C_6
REMARK    2  A    between atoms: N_4  and  C_12
REMARK                            x       y       z     vdW  Elec       q    Type
REMARK                         _______ _______ _______ _____ _____    ______ ____
ROOT
ATOM      1  C   UNL     1       6.813  -0.139   1.716  0.00  0.00    +0.017 C 
ATOM      2  C   UNL     1       5.696   0.931   1.827  0.00  0.00    +0.025 C 
ATOM      3  C   UNL     1       5.130   0.993   0.392  0.00  0.00    +0.088 C 
ATOM      4  N   UNL     1       6.175   0.480  -0.512  0.00  0.00    -0.298 NA
ATOM      5  C   UNL     1       7.365   0.130   0.294  0.00  0.00    +0.085 C 
ATOM      6  C   UNL     1       5.693  -0.681  -1.271  0.00  0.00    +0.105 C 
ENDROOT
BRANCH   3   7
ATOM      7  C   UNL     1       4.794   2.417   0.034  0.00  0.00    -0.012 A 
ATOM      8  C   UNL     1       3.587   2.721  -0.567  0.00  0.00    +0.115 A 
ATOM      9  N   UNL     1       3.285   3.965  -0.884  0.00  0.00    -0.263 NA
ATOM     10  C   UNL     1       4.114   4.962  -0.643  0.00  0.00    +0.111 A 
ATOM     11  C   UNL     1       5.339   4.735  -0.044  0.00  0.00    +0.020 A 
ATOM     12  C   UNL     1       5.689   3.440   0.308  0.00  0.00    +0.008 A 
ENDBRANCH   3   7
TORSDOF 1
ENDMDL
MODEL 2
REMARK VINA RESULT:    -4.104      2.216      3.428
REMARK INTER + INTRA:          -4.584
REMARK INTER:                  -4.372
REMARK INTRA:                  -0.212
REMARK UNBOUND:                -0.240
REMARK  Name = Nicotine.pdb
REMARK  2 active torsions:
REMARK  status: ('A' for Active; 'I' for Inactive)
REMARK    1  A    between atoms: C_3  and  C_6
REMARK    2  A    between atoms: N_4  and  C_12
REMARK                            x       y       z     vdW  Elec       q    Type
REMARK                         _______ _______ _______ _____ _____    ______ ____
ROOT
ATOM      1  C   UNL     1       4.961   1.023   0.676  0.00  0.00    +0.017 C 
ATOM      2  C   UNL     1       5.918   2.215   0.943  0.00  0.00    +0.025 C 
ATOM      3  C   UNL     1       5.289   3.357   0.116  0.00  0.00    +0.088 C 
ATOM      4  N   UNL     1       4.460   2.732  -0.931  0.00  0.00    -0.298 NA
ATOM      5  C   UNL     1       4.568   1.263  -0.803  0.00  0.00    +0.085 C 
ATOM      6  C   UNL     1       3.062   3.169  -0.826  0.00  0.00    +0.105 C 
ENDROOT
BRANCH   3   7
ATOM      7  C   UNL     1       6.375   4.189  -0.517  0.00  0.00    -0.012 A 
ATOM      8  C   UNL     1       7.691   3.771  -0.473  0.00  0.00    +0.115 A 
ATOM      9  N   UNL     1       8.647   4.494  -1.024  0.00  0.00    -0.263 NA
ATOM     10  C   UNL     1       8.390   5.634  -1.634  0.00  0.00    +0.111 A 
ATOM     11  C   UNL     1       7.097   6.115  -1.718  0.00  0.00    +0.020 A 
ATOM     12  C   UNL     1       6.065   5.380  -1.155  0.00  0.00    +0.008 A 
ENDBRANCH   3   7
TORSDOF 1
ENDMDL
MODEL 3
REMARK VINA RESULT:    -3.942      1.545      4.468
REMARK INTER + INTRA:          -4.412
REMARK INTER:                  -4.159
REMARK INTRA:                  -0.253
REMARK UNBOUND:                -0.240
REMARK  Name = Nicotine.pdb
REMARK  2 active torsions:
REMARK  status: ('A' for Active; 'I' for Inactive)
REMARK    1  A    between atoms: C_3  and  C_6
REMARK    2  A    between atoms: N_4  and  C_12
REMARK                            x       y       z     vdW  Elec       q    Type
REMARK                         _______ _______ _______ _____ _____    ______ ____
ROOT
ATOM      1  C   UNL     1       3.138   3.611  -0.829  0.00  0.00    +0.017 C 
ATOM      2  C   UNL     1       4.523   3.056  -0.405  0.00  0.00    +0.025 C 
ATOM      3  C   UNL     1       4.533   1.641  -1.021  0.00  0.00    +0.088 C 
ATOM      4  N   UNL     1       3.129   1.247  -1.235  0.00  0.00    -0.298 NA
ATOM      5  C   UNL     1       2.256   2.340  -0.757  0.00  0.00    +0.085 C 
ATOM      6  C   UNL     1       2.875   0.950  -2.651  0.00  0.00    +0.105 C 
ENDROOT
BRANCH   3   7
ATOM      7  C   UNL     1       5.200   0.674  -0.077  0.00  0.00    -0.012 A 
ATOM      8  C   UNL     1       5.542  -0.595  -0.502  0.00  0.00    +0.115 A 
ATOM      9  N   UNL     1       6.125  -1.447   0.319  0.00  0.00    -0.263 NA
ATOM     10  C   UNL     1       6.404  -1.127   1.567  0.00  0.00    +0.111 A 
ATOM     11  C   UNL     1       6.092   0.125   2.063  0.00  0.00    +0.020 A 
ATOM     12  C   UNL     1       5.483   1.049   1.228  0.00  0.00    +0.008 A 
ENDBRANCH   3   7
TORSDOF 1
ENDMDL
MODEL 4
REMARK VINA RESULT:    -3.805      1.538      2.715
REMARK INTER + INTRA:          -4.267
REMARK INTER:                  -4.082
REMARK INTRA:                  -0.185
REMARK UNBOUND:                -0.240
REMARK  Name = Nicotine.pdb
REMARK  2 active torsions:
REMARK  status: ('A' for Active; 'I' for Inactive)
REMARK    1  A    between atoms: C_3  and  C_6
REMARK    2  A    between atoms: N_4  and  C_12
REMARK                            x       y       z     vdW  Elec       q    Type
REMARK                         _______ _______ _______ _____ _____    ______ ____
ROOT
ATOM      1  C   UNL     1       8.469   3.204  -0.861  0.00  0.00    +0.017 C 
ATOM      2  C   UNL     1       7.109   3.732  -0.335  0.00  0.00    +0.025 C 
ATOM      3  C   UNL     1       6.398   2.447   0.141  0.00  0.00    +0.088 C 
ATOM      4  N   UNL     1       7.019   1.316  -0.571  0.00  0.00    -0.298 NA
ATOM      5  C   UNL     1       8.059   1.844  -1.479  0.00  0.00    +0.085 C 
ATOM      6  C   UNL     1       7.588   0.347   0.374  0.00  0.00    +0.105 C 
ENDROOT
BRANCH   3   7
ATOM      7  C   UNL     1       4.930   2.520  -0.191  0.00  0.00    -0.012 A 
ATOM      8  C   UNL     1       4.331   3.739  -0.447  0.00  0.00    +0.115 A 
ATOM      9  N   UNL     1       3.047   3.812  -0.738  0.00  0.00    -0.263 NA
ATOM     10  C   UNL     1       2.288   2.736  -0.797  0.00  0.00    +0.111 A 
ATOM     11  C   UNL     1       2.817   1.482  -0.554  0.00  0.00    +0.020 A 
ATOM     12  C   UNL     1       4.165   1.366  -0.250  0.00  0.00    +0.008 A 
ENDBRANCH   3   7
TORSDOF 1
ENDMDL
MODEL 5
REMARK VINA RESULT:    -3.718      1.384      4.618
REMARK INTER + INTRA:          -4.176
REMARK INTER:                  -3.989
REMARK INTRA:                  -0.187
REMARK UNBOUND:                -0.240
REMARK  Name = Nicotine.pdb
REMARK  2 active torsions:
REMARK  status: ('A' for Active; 'I' for Inactive)
REMARK    1  A    between atoms: C_3  and  C_6
REMARK    2  A    between atoms: N_4  and  C_12
REMARK                            x       y       z     vdW  Elec       q    Type
REMARK                         _______ _______ _______ _____ _____    ______ ____
ROOT
ATOM      1  C   UNL     1       6.209   4.883  -1.306  0.00  0.00    +0.017 C 
ATOM      2  C   UNL     1       6.871   3.480  -1.333  0.00  0.00    +0.025 C 
ATOM      3  C   UNL     1       5.726   2.547  -0.888  0.00  0.00    +0.088 C 
ATOM      4  N   UNL     1       4.756   3.370  -0.144  0.00  0.00    -0.298 NA
ATOM      5  C   UNL     1       5.261   4.758  -0.088  0.00  0.00    +0.085 C 
ATOM      6  C   UNL     1       3.429   3.317  -0.771  0.00  0.00    +0.105 C 
ENDROOT
BRANCH   3   7
ATOM      7  C   UNL     1       6.267   1.459   0.003  0.00  0.00    -0.012 A 
ATOM      8  C   UNL     1       7.548   0.976  -0.184  0.00  0.00    +0.115 A 
ATOM      9  N   UNL     1       8.030   0.024   0.592  0.00  0.00    -0.263 NA
ATOM     10  C   UNL     1       7.317  -0.502   1.568  0.00  0.00    +0.111 A 
ATOM     11  C   UNL     1       6.028  -0.069   1.815  0.00  0.00    +0.020 A 
ATOM     12  C   UNL     1       5.489   0.934   1.024  0.00  0.00    +0.008 A 
ENDBRANCH   3   7
TORSDOF 1
ENDMDL
MODEL 6
REMARK VINA RESULT:    -3.665      2.408      4.036
REMARK INTER + INTRA:          -4.119
REMARK INTER:                  -3.905
REMARK INTRA:                  -0.214
REMARK UNBOUND:                -0.240
REMARK  Name = Nicotine.pdb
REMARK  2 active torsions:
REMARK  status: ('A' for Active; 'I' for Inactive)
REMARK    1  A    between atoms: C_3  and  C_6
REMARK    2  A    between atoms: N_4  and  C_12
REMARK                            x       y       z     vdW  Elec       q    Type
REMARK                         _______ _______ _______ _____ _____    ______ ____
ROOT
ATOM      1  C   UNL     1       5.326   4.121   0.027  0.00  0.00    +0.017 C 
ATOM      2  C   UNL     1       4.107   3.635  -0.801  0.00  0.00    +0.025 C 
ATOM      3  C   UNL     1       4.092   2.115  -0.537  0.00  0.00    +0.088 C 
ATOM      4  N   UNL     1       5.452   1.730  -0.119  0.00  0.00    -0.298 NA
ATOM      5  C   UNL     1       6.309   2.935  -0.138  0.00  0.00    +0.085 C 
ATOM      6  C   UNL     1       5.439   1.112   1.213  0.00  0.00    +0.105 C 
ENDROOT
BRANCH   3   7
ATOM      7  C   UNL     1       3.714   1.380  -1.797  0.00  0.00    -0.012 A 
ATOM      8  C   UNL     1       4.053   1.894  -3.034  0.00  0.00    +0.115 A 
ATOM      9  N   UNL     1       3.726   1.257  -4.142  0.00  0.00    -0.263 NA
ATOM     10  C   UNL     1       3.068   0.115  -4.116  0.00  0.00    +0.111 A 
ATOM     11  C   UNL     1       2.695  -0.461  -2.916  0.00  0.00    +0.020 A 
ATOM     12  C   UNL     1       3.027   0.177  -1.730  0.00  0.00    +0.008 A 
ENDBRANCH   3   7
TORSDOF 1
ENDMDL
MODEL 7
REMARK VINA RESULT:    -3.535      2.598      3.905
REMARK INTER + INTRA:          -3.982
REMARK INTER:                  -3.731
REMARK INTRA:                  -0.251
REMARK UNBOUND:                -0.240
REMARK  Name = Nicotine.pdb
REMARK  2 active torsions:
REMARK  status: ('A' for Active; 'I' for Inactive)
REMARK    1  A    between atoms: C_3  and  C_6
REMARK    2  A    between atoms: N_4  and  C_12
REMARK                            x       y       z     vdW  Elec       q    Type
REMARK                         _______ _______ _______ _____ _____    ______ ____
ROOT
ATOM      1  C   UNL     1       2.710  -1.200  -3.303  0.00  0.00    +0.017 C 
ATOM      2  C   UNL     1       2.643  -0.358  -2.001  0.00  0.00    +0.025 C 
ATOM      3  C   UNL     1       3.251   0.994  -2.430  0.00  0.00    +0.088 C 
ATOM      4  N   UNL     1       4.084   0.741  -3.619  0.00  0.00    -0.298 NA
ATOM      5  C   UNL     1       4.038  -0.705  -3.927  0.00  0.00    +0.085 C 
ATOM      6  C   UNL     1       3.625   1.538  -4.764  0.00  0.00    +0.105 C 
ENDROOT
BRANCH   3   7
ATOM      7  C   UNL     1       4.100   1.551  -1.317  0.00  0.00    -0.012 A 
ATOM      8  C   UNL     1       4.108   2.908  -1.056  0.00  0.00    +0.115 A 
ATOM      9  N   UNL     1       4.848   3.404  -0.083  0.00  0.00    -0.263 NA
ATOM     10  C   UNL     1       5.604   2.633   0.673  0.00  0.00    +0.111 A 
ATOM     11  C   UNL     1       5.647   1.266   0.472  0.00  0.00    +0.020 A 
ATOM     12  C   UNL     1       4.878   0.709  -0.538  0.00  0.00    +0.008 A 
ENDBRANCH   3   7
TORSDOF 1
ENDMDL
MODEL 8
REMARK VINA RESULT:    -3.506      1.942      3.554
REMARK INTER + INTRA:          -3.951
REMARK INTER:                  -3.765
REMARK INTRA:                  -0.185
REMARK UNBOUND:                -0.240
REMARK  Name = Nicotine.pdb
REMARK  2 active torsions:
REMARK  status: ('A' for Active; 'I' for Inactive)
REMARK    1  A    between atoms: C_3  and  C_6
REMARK    2  A    between atoms: N_4  and  C_12
REMARK                            x       y       z     vdW  Elec       q    Type
REMARK                         _______ _______ _______ _____ _____    ______ ____
ROOT
ATOM      1  C   UNL     1       3.367  -0.403  -2.146  0.00  0.00    +0.017 C 
ATOM      2  C   UNL     1       4.568   0.032  -1.267  0.00  0.00    +0.025 C 
ATOM      3  C   UNL     1       4.108   1.392  -0.699  0.00  0.00    +0.088 C 
ATOM      4  N   UNL     1       3.069   1.914  -1.605  0.00  0.00    -0.298 NA
ATOM      5  C   UNL     1       2.886   0.955  -2.715  0.00  0.00    +0.085 C 
ATOM      6  C   UNL     1       1.807   2.136  -0.887  0.00  0.00    +0.105 C 
ENDROOT
BRANCH   3   7
ATOM      7  C   UNL     1       5.272   2.347  -0.647  0.00  0.00    -0.012 A 
ATOM      8  C   UNL     1       6.569   1.869  -0.641  0.00  0.00    +0.115 A 
ATOM      9  N   UNL     1       7.593   2.698  -0.596  0.00  0.00    -0.263 NA
ATOM     10  C   UNL     1       7.426   4.005  -0.555  0.00  0.00    +0.111 A 
ATOM     11  C   UNL     1       6.158   4.556  -0.558  0.00  0.00    +0.020 A 
ATOM     12  C   UNL     1       5.057   3.716  -0.611  0.00  0.00    +0.008 A 
ENDBRANCH   3   7
TORSDOF 1
ENDMDL
MODEL 9
REMARK VINA RESULT:    -3.499      1.728      4.492
REMARK INTER + INTRA:          -3.943
REMARK INTER:                  -3.748
REMARK INTRA:                  -0.196
REMARK UNBOUND:                -0.240
REMARK  Name = Nicotine.pdb
REMARK  2 active torsions:
REMARK  status: ('A' for Active; 'I' for Inactive)
REMARK    1  A    between atoms: C_3  and  C_6
REMARK    2  A    between atoms: N_4  and  C_12
REMARK                            x       y       z     vdW  Elec       q    Type
REMARK                         _______ _______ _______ _____ _____    ______ ____
ROOT
ATOM      1  C   UNL     1       3.365   2.881  -0.754  0.00  0.00    +0.017 C 
ATOM      2  C   UNL     1       4.794   2.728  -0.170  0.00  0.00    +0.025 C 
ATOM      3  C   UNL     1       5.358   1.518  -0.945  0.00  0.00    +0.088 C 
ATOM      4  N   UNL     1       4.207   0.743  -1.443  0.00  0.00    -0.298 NA
ATOM      5  C   UNL     1       2.964   1.403  -0.991  0.00  0.00    +0.085 C 
ATOM      6  C   UNL     1       4.242   0.630  -2.907  0.00  0.00    +0.105 C 
ENDROOT
BRANCH   3   7
ATOM      7  C   UNL     1       6.193   0.664  -0.026  0.00  0.00    -0.012 A 
ATOM      8  C   UNL     1       7.573   0.711  -0.091  0.00  0.00    +0.115 A 
ATOM      9  N   UNL     1       8.311  -0.033   0.710  0.00  0.00    -0.263 NA
ATOM     10  C   UNL     1       7.770  -0.844   1.596  0.00  0.00    +0.111 A 
ATOM     11  C   UNL     1       6.397  -0.944   1.719  0.00  0.00    +0.020 A 
ATOM     12  C   UNL     1       5.588  -0.173   0.898  0.00  0.00    +0.008 A 
ENDBRANCH   3   7
TORSDOF 1
ENDMDL
MODEL 10
REMARK VINA RESULT:    -3.445      2.064      3.386
REMARK INTER + INTRA:          -3.887
REMARK INTER:                  -3.670
REMARK INTRA:                  -0.217
REMARK UNBOUND:                -0.240
REMARK  Name = Nicotine.pdb
REMARK  2 active torsions:
REMARK  status: ('A' for Active; 'I' for Inactive)
REMARK    1  A    between atoms: C_3  and  C_6
REMARK    2  A    between atoms: N_4  and  C_12
REMARK                            x       y       z     vdW  Elec       q    Type
REMARK                         _______ _______ _______ _____ _____    ______ ____
ROOT
ATOM      1  C   UNL     1       7.234   3.816  -0.302  0.00  0.00    +0.017 C 
ATOM      2  C   UNL     1       5.836   3.282   0.107  0.00  0.00    +0.025 C 
ATOM      3  C   UNL     1       5.944   1.770  -0.183  0.00  0.00    +0.088 C 
ATOM      4  N   UNL     1       7.024   1.590  -1.170  0.00  0.00    -0.298 NA
ATOM      5  C   UNL     1       7.568   2.920  -1.520  0.00  0.00    +0.085 C 
ATOM      6  C   UNL     1       8.077   0.711  -0.645  0.00  0.00    +0.105 C 
ENDROOT
BRANCH   3   7
ATOM      7  C   UNL     1       4.643   1.262  -0.747  0.00  0.00    -0.012 A 
ATOM      8  C   UNL     1       4.609   0.093  -1.484  0.00  0.00    +0.115 A 
ATOM      9  N   UNL     1       3.474  -0.359  -1.980  0.00  0.00    -0.263 NA
ATOM     10  C   UNL     1       2.335   0.279  -1.797  0.00  0.00    +0.111 A 
ATOM     11  C   UNL     1       2.290   1.454  -1.070  0.00  0.00    +0.020 A 
ATOM     12  C   UNL     1       3.463   1.957  -0.528  0.00  0.00    +0.008 A 
ENDBRANCH   3   7
TORSDOF 1
ENDMDL
