MODEL 1
REMARK VINA RESULT:    -3.043      0.000      0.000
REMARK INTER + INTRA:          -3.431
REMARK INTER:                  -3.221
REMARK INTRA:                  -0.210
REMARK UNBOUND:                -0.210
REMARK  Name = Nicotine.pdb
REMARK  2 active torsions:
REMARK  status: ('A' for Active; 'I' for Inactive)
REMARK    1  A    between atoms: C_3  and  C_6
REMARK    2  A    between atoms: N_4  and  C_12
REMARK                            x       y       z     vdW  Elec       q    Type
REMARK                         _______ _______ _______ _____ _____    ______ ____
ROOT
ATOM      1  C   UNL     1       8.919   4.865  -3.821  0.00  0.00    +0.017 C 
ATOM      2  C   UNL     1       8.660   4.239  -5.217  0.00  0.00    +0.025 C 
ATOM      3  C   UNL     1       7.124   4.311  -5.349  0.00  0.00    +0.088 C 
ATOM      4  N   UNL     1       6.571   4.403  -3.986  0.00  0.00    -0.298 NA
ATOM      5  C   UNL     1       7.690   4.365  -3.021  0.00  0.00    +0.085 C 
ATOM      6  C   UNL     1       5.774   5.625  -3.821  0.00  0.00    +0.105 C 
ENDROOT
BRANCH   3   7
ATOM      7  C   UNL     1       6.609   3.070  -6.030  0.00  0.00    -0.012 A 
ATOM      8  C   UNL     1       7.462   2.015  -6.299  0.00  0.00    +0.115 A 
ATOM      9  N   UNL     1       7.019   0.925  -6.895  0.00  0.00    -0.263 NA
ATOM     10  C   UNL     1       5.758   0.796  -7.256  0.00  0.00    +0.111 A 
ATOM     11  C   UNL     1       4.847   1.808  -7.020  0.00  0.00    +0.020 A 
ATOM     12  C   UNL     1       5.274   2.967  -6.391  0.00  0.00    +0.008 A 
ENDBRANCH   3   7
TORSDOF 1
ENDMDL
MODEL 2
REMARK VINA RESULT:    -2.992      2.576      4.189
REMARK INTER + INTRA:          -3.377
REMARK INTER:                  -3.130
REMARK INTRA:                  -0.247
REMARK UNBOUND:                -0.210
REMARK  Name = Nicotine.pdb
REMARK  2 active torsions:
REMARK  status: ('A' for Active; 'I' for Inactive)
REMARK    1  A    between atoms: C_3  and  C_6
REMARK    2  A    between atoms: N_4  and  C_12
REMARK                            x       y       z     vdW  Elec       q    Type
REMARK                         _______ _______ _______ _____ _____    ______ ____
ROOT
ATOM      1  C   UNL     1       8.409  -1.979  -5.228  0.00  0.00    +0.017 C 
ATOM      2  C   UNL     1       8.051  -0.880  -6.263  0.00  0.00    +0.025 C 
ATOM      3  C   UNL     1       7.999   0.402  -5.405  0.00  0.00    +0.088 C 
ATOM      4  N   UNL     1       7.764  -0.015  -4.011  0.00  0.00    -0.298 NA
ATOM      5  C   UNL     1       7.644  -1.488  -3.973  0.00  0.00    +0.085 C 
ATOM      6  C   UNL     1       8.847   0.448  -3.133  0.00  0.00    +0.105 C 
ENDROOT
BRANCH   3   7
ATOM      7  C   UNL     1       6.873   1.287  -5.873  0.00  0.00    -0.012 A 
ATOM      8  C   UNL     1       6.700   2.545  -5.328  0.00  0.00    +0.115 A 
ATOM      9  N   UNL     1       5.717   3.326  -5.733  0.00  0.00    -0.263 NA
ATOM     10  C   UNL     1       4.867   2.944  -6.665  0.00  0.00    +0.111 A 
ATOM     11  C   UNL     1       4.978   1.699  -7.256  0.00  0.00    +0.020 A 
ATOM     12  C   UNL     1       6.002   0.853  -6.860  0.00  0.00    +0.008 A 
ENDBRANCH   3   7
TORSDOF 1
ENDMDL
MODEL 3
REMARK VINA RESULT:    -2.956      1.968      4.726
REMARK INTER + INTRA:          -3.338
REMARK INTER:                  -3.154
REMARK INTRA:                  -0.184
REMARK UNBOUND:                -0.210
REMARK  Name = Nicotine.pdb
REMARK  2 active torsions:
REMARK  status: ('A' for Active; 'I' for Inactive)
REMARK    1  A    between atoms: C_3  and  C_6
REMARK    2  A    between atoms: N_4  and  C_12
REMARK                            x       y       z     vdW  Elec       q    Type
REMARK                         _______ _______ _______ _____ _____    ______ ____
ROOT
ATOM      1  C   UNL     1       5.506   2.934  -6.766  0.00  0.00    +0.017 C 
ATOM      2  C   UNL     1       6.440   3.560  -5.698  0.00  0.00    +0.025 C 
ATOM      3  C   UNL     1       7.345   2.378  -5.292  0.00  0.00    +0.088 C 
ATOM      4  N   UNL     1       6.625   1.139  -5.636  0.00  0.00    -0.298 NA
ATOM      5  C   UNL     1       5.312   1.501  -6.211  0.00  0.00    +0.085 C 
ATOM      6  C   UNL     1       7.404   0.321  -6.575  0.00  0.00    +0.105 C 
ENDROOT
BRANCH   3   7
ATOM      7  C   UNL     1       7.612   2.422  -3.809  0.00  0.00    -0.012 A 
ATOM      8  C   UNL     1       7.509   3.613  -3.116  0.00  0.00    +0.115 A 
ATOM      9  N   UNL     1       7.741   3.661  -1.818  0.00  0.00    -0.263 NA
ATOM     10  C   UNL     1       8.077   2.585  -1.135  0.00  0.00    +0.111 A 
ATOM     11  C   UNL     1       8.199   1.358  -1.760  0.00  0.00    +0.020 A 
ATOM     12  C   UNL     1       7.958   1.268  -3.123  0.00  0.00    +0.008 A 
ENDBRANCH   3   7
TORSDOF 1
ENDMDL
MODEL 4
REMARK VINA RESULT:    -2.838      2.651      4.079
REMARK INTER + INTRA:          -3.214
REMARK INTER:                  -2.975
REMARK INTRA:                  -0.240
REMARK UNBOUND:                -0.210
REMARK  Name = Nicotine.pdb
REMARK  2 active torsions:
REMARK  status: ('A' for Active; 'I' for Inactive)
REMARK    1  A    between atoms: C_3  and  C_6
REMARK    2  A    between atoms: N_4  and  C_12
REMARK                            x       y       z     vdW  Elec       q    Type
REMARK                         _______ _______ _______ _____ _____    ______ ____
ROOT
ATOM      1  C   UNL     1       7.301   3.644  -6.793  0.00  0.00    +0.017 C 
ATOM      2  C   UNL     1       8.225   2.602  -6.109  0.00  0.00    +0.025 C 
ATOM      3  C   UNL     1       7.257   1.447  -5.774  0.00  0.00    +0.088 C 
ATOM      4  N   UNL     1       5.898   2.015  -5.729  0.00  0.00    -0.298 NA
ATOM      5  C   UNL     1       5.985   3.467  -5.995  0.00  0.00    +0.085 C 
ATOM      6  C   UNL     1       5.018   1.353  -6.701  0.00  0.00    +0.105 C 
ENDROOT
BRANCH   3   7
ATOM      7  C   UNL     1       7.611   0.854  -4.435  0.00  0.00    -0.012 A 
ATOM      8  C   UNL     1       7.691  -0.517  -4.277  0.00  0.00    +0.115 A 
ATOM      9  N   UNL     1       8.001  -1.044  -3.109  0.00  0.00    -0.263 NA
ATOM     10  C   UNL     1       8.244  -0.294  -2.052  0.00  0.00    +0.111 A 
ATOM     11  C   UNL     1       8.183   1.085  -2.134  0.00  0.00    +0.020 A 
ATOM     12  C   UNL     1       7.866   1.675  -3.348  0.00  0.00    +0.008 A 
ENDBRANCH   3   7
TORSDOF 1
ENDMDL
MODEL 5
REMARK VINA RESULT:    -2.834      2.282      3.880
REMARK INTER + INTRA:          -3.210
REMARK INTER:                  -3.004
REMARK INTRA:                  -0.206
REMARK UNBOUND:                -0.210
REMARK  Name = Nicotine.pdb
REMARK  2 active torsions:
REMARK  status: ('A' for Active; 'I' for Inactive)
REMARK    1  A    between atoms: C_3  and  C_6
REMARK    2  A    between atoms: N_4  and  C_12
REMARK                            x       y       z     vdW  Elec       q    Type
REMARK                         _______ _______ _______ _____ _____    ______ ____
ROOT
ATOM      1  C   UNL     1       4.913   2.754  -7.042  0.00  0.00    +0.017 C 
ATOM      2  C   UNL     1       5.195   1.433  -6.278  0.00  0.00    +0.025 C 
ATOM      3  C   UNL     1       6.407   1.796  -5.393  0.00  0.00    +0.088 C 
ATOM      4  N   UNL     1       7.073   2.953  -6.017  0.00  0.00    -0.298 NA
ATOM      5  C   UNL     1       6.346   3.303  -7.256  0.00  0.00    +0.085 C 
ATOM      6  C   UNL     1       7.122   4.094  -5.094  0.00  0.00    +0.105 C 
ENDROOT
BRANCH   3   7
ATOM      7  C   UNL     1       7.359   0.630  -5.324  0.00  0.00    -0.012 A 
ATOM      8  C   UNL     1       7.652  -0.101  -6.459  0.00  0.00    +0.115 A 
ATOM      9  N   UNL     1       8.484  -1.123  -6.408  0.00  0.00    -0.263 NA
ATOM     10  C   UNL     1       9.066  -1.486  -5.282  0.00  0.00    +0.111 A 
ATOM     11  C   UNL     1       8.822  -0.802  -4.106  0.00  0.00    +0.020 A 
ATOM     12  C   UNL     1       7.957   0.281  -4.123  0.00  0.00    +0.008 A 
ENDBRANCH   3   7
TORSDOF 1
ENDMDL
MODEL 6
REMARK VINA RESULT:    -2.779      4.417      5.505
REMARK INTER + INTRA:          -3.152
REMARK INTER:                  -2.936
REMARK INTRA:                  -0.216
REMARK UNBOUND:                -0.210
REMARK  Name = Nicotine.pdb
REMARK  2 active torsions:
REMARK  status: ('A' for Active; 'I' for Inactive)
REMARK    1  A    between atoms: C_3  and  C_6
REMARK    2  A    between atoms: N_4  and  C_12
REMARK                            x       y       z     vdW  Elec       q    Type
REMARK                         _______ _______ _______ _____ _____    ______ ____
ROOT
ATOM      1  C   UNL     1       7.577   2.429  -4.393  0.00  0.00    +0.017 C 
ATOM      2  C   UNL     1       8.073   1.559  -3.209  0.00  0.00    +0.025 C 
ATOM      3  C   UNL     1       8.349   0.193  -3.874  0.00  0.00    +0.088 C 
ATOM      4  N   UNL     1       7.552   0.141  -5.112  0.00  0.00    -0.298 NA
ATOM      5  C   UNL     1       6.780   1.397  -5.229  0.00  0.00    +0.085 C 
ATOM      6  C   UNL     1       8.412  -0.059  -6.285  0.00  0.00    +0.105 C 
ENDROOT
BRANCH   3   7
ATOM      7  C   UNL     1       7.934  -0.921  -2.948  0.00  0.00    -0.012 A 
ATOM      8  C   UNL     1       7.377  -2.080  -3.455  0.00  0.00    +0.115 A 
ATOM      9  N   UNL     1       7.011  -3.060  -2.652  0.00  0.00    -0.263 NA
ATOM     10  C   UNL     1       7.160  -2.976  -1.345  0.00  0.00    +0.111 A 
ATOM     11  C   UNL     1       7.710  -1.848  -0.765  0.00  0.00    +0.020 A 
ATOM     12  C   UNL     1       8.112  -0.800  -1.579  0.00  0.00    +0.008 A 
ENDBRANCH   3   7
TORSDOF 1
ENDMDL
MODEL 7
REMARK VINA RESULT:    -2.779      2.811      3.622
REMARK INTER + INTRA:          -3.152
REMARK INTER:                  -2.931
REMARK INTRA:                  -0.220
REMARK UNBOUND:                -0.210
REMARK  Name = Nicotine.pdb
REMARK  2 active torsions:
REMARK  status: ('A' for Active; 'I' for Inactive)
REMARK    1  A    between atoms: C_3  and  C_6
REMARK    2  A    between atoms: N_4  and  C_12
REMARK                            x       y       z     vdW  Elec       q    Type
REMARK                         _______ _______ _______ _____ _____    ______ ____
ROOT
ATOM      1  C   UNL     1       8.486  -0.304  -1.691  0.00  0.00    +0.017 C 
ATOM      2  C   UNL     1       8.237  -0.099  -3.208  0.00  0.00    +0.025 C 
ATOM      3  C   UNL     1       8.436   1.421  -3.390  0.00  0.00    +0.088 C 
ATOM      4  N   UNL     1       8.227   2.050  -2.074  0.00  0.00    -0.298 NA
ATOM      5  C   UNL     1       7.885   0.994  -1.097  0.00  0.00    +0.085 C 
ATOM      6  C   UNL     1       9.420   2.794  -1.650  0.00  0.00    +0.105 C 
ENDROOT
BRANCH   3   7
ATOM      7  C   UNL     1       7.432   1.954  -4.380  0.00  0.00    -0.012 A 
ATOM      8  C   UNL     1       7.179   3.310  -4.456  0.00  0.00    +0.115 A 
ATOM      9  N   UNL     1       6.302   3.785  -5.319  0.00  0.00    -0.263 NA
ATOM     10  C   UNL     1       5.636   2.994  -6.137  0.00  0.00    +0.111 A 
ATOM     11  C   UNL     1       5.837   1.627  -6.118  0.00  0.00    +0.020 A 
ATOM     12  C   UNL     1       6.755   1.091  -5.228  0.00  0.00    +0.008 A 
ENDBRANCH   3   7
TORSDOF 1
ENDMDL
MODEL 8
REMARK VINA RESULT:    -2.597     11.251     12.051
REMARK INTER + INTRA:          -2.959
REMARK INTER:                  -2.743
REMARK INTRA:                  -0.216
REMARK UNBOUND:                -0.210
REMARK  Name = Nicotine.pdb
REMARK  2 active torsions:
REMARK  status: ('A' for Active; 'I' for Inactive)
REMARK    1  A    between atoms: C_3  and  C_6
REMARK    2  A    between atoms: N_4  and  C_12
REMARK                            x       y       z     vdW  Elec       q    Type
REMARK                         _______ _______ _______ _____ _____    ______ ____
ROOT
ATOM      1  C   UNL     1      -0.805   1.610   2.394  0.00  0.00    +0.017 C 
ATOM      2  C   UNL     1      -2.225   1.041   2.136  0.00  0.00    +0.025 C 
ATOM      3  C   UNL     1      -1.985  -0.483   2.089  0.00  0.00    +0.088 C 
ATOM      4  N   UNL     1      -0.563  -0.692   1.764  0.00  0.00    -0.298 NA
ATOM      5  C   UNL     1       0.078   0.628   1.583  0.00  0.00    +0.085 C 
ATOM      6  C   UNL     1       0.110  -1.465   2.815  0.00  0.00    +0.105 C 
ENDROOT
BRANCH   3   7
ATOM      7  C   UNL     1      -2.853  -1.106   1.027  0.00  0.00    -0.012 A 
ATOM      8  C   UNL     1      -2.369  -2.139   0.246  0.00  0.00    +0.115 A 
ATOM      9  N   UNL     1      -3.122  -2.690  -0.686  0.00  0.00    -0.263 NA
ATOM     10  C   UNL     1      -4.356  -2.282  -0.911  0.00  0.00    +0.111 A 
ATOM     11  C   UNL     1      -4.908  -1.254  -0.169  0.00  0.00    +0.020 A 
ATOM     12  C   UNL     1      -4.148  -0.655   0.823  0.00  0.00    +0.008 A 
ENDBRANCH   3   7
TORSDOF 1
ENDMDL
MODEL 9
REMARK VINA RESULT:    -2.569      9.916     11.068
REMARK INTER + INTRA:          -2.929
REMARK INTER:                  -2.713
REMARK INTRA:                  -0.216
REMARK UNBOUND:                -0.210
REMARK  Name = Nicotine.pdb
REMARK  2 active torsions:
REMARK  status: ('A' for Active; 'I' for Inactive)
REMARK    1  A    between atoms: C_3  and  C_6
REMARK    2  A    between atoms: N_4  and  C_12
REMARK                            x       y       z     vdW  Elec       q    Type
REMARK                         _______ _______ _______ _____ _____    ______ ____
ROOT
ATOM      1  C   UNL     1      -2.540   4.323   0.244  0.00  0.00    +0.017 C 
ATOM      2  C   UNL     1      -2.912   3.047   1.045  0.00  0.00    +0.025 C 
ATOM      3  C   UNL     1      -1.606   2.718   1.799  0.00  0.00    +0.088 C 
ATOM      4  N   UNL     1      -0.502   3.357   1.060  0.00  0.00    -0.298 NA
ATOM      5  C   UNL     1      -1.062   4.041  -0.124  0.00  0.00    +0.085 C 
ATOM      6  C   UNL     1       0.229   4.299   1.917  0.00  0.00    +0.105 C 
ENDROOT
BRANCH   3   7
ATOM      7  C   UNL     1      -1.401   1.226   1.841  0.00  0.00    -0.012 A 
ATOM      8  C   UNL     1      -0.136   0.690   1.693  0.00  0.00    +0.115 A 
ATOM      9  N   UNL     1       0.053  -0.615   1.728  0.00  0.00    -0.263 NA
ATOM     10  C   UNL     1      -0.948  -1.455   1.904  0.00  0.00    +0.111 A 
ATOM     11  C   UNL     1      -2.241  -0.993   2.060  0.00  0.00    +0.020 A 
ATOM     12  C   UNL     1      -2.477   0.373   2.034  0.00  0.00    +0.008 A 
ENDBRANCH   3   7
TORSDOF 1
ENDMDL
MODEL 10
REMARK VINA RESULT:    -2.550      1.600      4.367
REMARK INTER + INTRA:          -2.910
REMARK INTER:                  -2.697
REMARK INTRA:                  -0.212
REMARK UNBOUND:                -0.210
REMARK  Name = Nicotine.pdb
REMARK  2 active torsions:
REMARK  status: ('A' for Active; 'I' for Inactive)
REMARK    1  A    between atoms: C_3  and  C_6
REMARK    2  A    between atoms: N_4  and  C_12
REMARK                            x       y       z     vdW  Elec       q    Type
REMARK                         _______ _______ _______ _____ _____    ______ ____
ROOT
ATOM      1  C   UNL     1       7.738  -0.068  -4.902  0.00  0.00    +0.017 C 
ATOM      2  C   UNL     1       7.619   1.362  -4.311  0.00  0.00    +0.025 C 
ATOM      3  C   UNL     1       6.860   2.131  -5.413  0.00  0.00    +0.088 C 
ATOM      4  N   UNL     1       7.064   1.399  -6.676  0.00  0.00    -0.298 NA
ATOM      5  C   UNL     1       7.932   0.232  -6.409  0.00  0.00    +0.085 C 
ATOM      6  C   UNL     1       5.781   0.981  -7.256  0.00  0.00    +0.105 C 
ENDROOT
BRANCH   3   7
ATOM      7  C   UNL     1       7.409   3.529  -5.534  0.00  0.00    -0.012 A 
ATOM      8  C   UNL     1       7.409   4.377  -4.443  0.00  0.00    +0.115 A 
ATOM      9  N   UNL     1       7.888   5.602  -4.540  0.00  0.00    -0.263 NA
ATOM     10  C   UNL     1       8.383   6.064  -5.671  0.00  0.00    +0.111 A 
ATOM     11  C   UNL     1       8.417   5.274  -6.804  0.00  0.00    +0.020 A 
ATOM     12  C   UNL     1       7.927   3.979  -6.739  0.00  0.00    +0.008 A 
ENDBRANCH   3   7
TORSDOF 1
ENDMDL
