MODEL 1
REMARK VINA RESULT:    -3.781      0.000      0.000
REMARK INTER + INTRA:          -4.193
REMARK INTER:                  -4.002
REMARK INTRA:                  -0.191
REMARK UNBOUND:                -0.191
REMARK  Name = Nicotine.pdb
REMARK  2 active torsions:
REMARK  status: ('A' for Active; 'I' for Inactive)
REMARK    1  A    between atoms: C_3  and  C_6
REMARK    2  A    between atoms: N_4  and  C_12
REMARK                            x       y       z     vdW  Elec       q    Type
REMARK                         _______ _______ _______ _____ _____    ______ ____
ROOT
ATOM      1  C   UNL     1      -2.022   0.139   6.242  0.00  0.00    +0.017 C 
ATOM      2  C   UNL     1      -1.163  -1.143   6.079  0.00  0.00    +0.025 C 
ATOM      3  C   UNL     1      -1.434  -1.558   4.617  0.00  0.00    +0.088 C 
ATOM      4  N   UNL     1      -2.716  -0.949   4.220  0.00  0.00    -0.298 NA
ATOM      5  C   UNL     1      -3.259  -0.201   5.374  0.00  0.00    +0.085 C 
ATOM      6  C   UNL     1      -2.544  -0.070   3.056  0.00  0.00    +0.105 C 
ENDROOT
BRANCH   3   7
ATOM      7  C   UNL     1      -1.525  -3.059   4.519  0.00  0.00    -0.012 A 
ATOM      8  C   UNL     1      -2.758  -3.683   4.477  0.00  0.00    +0.115 A 
ATOM      9  N   UNL     1      -2.847  -4.996   4.391  0.00  0.00    -0.263 NA
ATOM     10  C   UNL     1      -1.775  -5.761   4.342  0.00  0.00    +0.111 A 
ATOM     11  C   UNL     1      -0.508  -5.208   4.379  0.00  0.00    +0.020 A 
ATOM     12  C   UNL     1      -0.375  -3.831   4.464  0.00  0.00    +0.008 A 
ENDBRANCH   3   7
TORSDOF 1
ENDMDL
MODEL 2
REMARK VINA RESULT:    -3.574      2.356      3.623
REMARK INTER + INTRA:          -3.974
REMARK INTER:                  -3.732
REMARK INTRA:                  -0.242
REMARK UNBOUND:                -0.191
REMARK  Name = Nicotine.pdb
REMARK  2 active torsions:
REMARK  status: ('A' for Active; 'I' for Inactive)
REMARK    1  A    between atoms: C_3  and  C_6
REMARK    2  A    between atoms: N_4  and  C_12
REMARK                            x       y       z     vdW  Elec       q    Type
REMARK                         _______ _______ _______ _____ _____    ______ ____
ROOT
ATOM      1  C   UNL     1       1.570   1.016   5.080  0.00  0.00    +0.017 C 
ATOM      2  C   UNL     1       0.547   0.404   6.074  0.00  0.00    +0.025 C 
ATOM      3  C   UNL     1       0.454  -1.067   5.615  0.00  0.00    +0.088 C 
ATOM      4  N   UNL     1       0.892  -1.114   4.208  0.00  0.00    -0.298 NA
ATOM      5  C   UNL     1       1.226   0.259   3.772  0.00  0.00    +0.085 C 
ATOM      6  C   UNL     1       2.042  -2.013   4.044  0.00  0.00    +0.105 C 
ENDROOT
BRANCH   3   7
ATOM      7  C   UNL     1      -0.969  -1.549   5.726  0.00  0.00    -0.012 A 
ATOM      8  C   UNL     1      -1.292  -2.853   5.401  0.00  0.00    +0.115 A 
ATOM      9  N   UNL     1      -2.535  -3.284   5.496  0.00  0.00    -0.263 NA
ATOM     10  C   UNL     1      -3.512  -2.497   5.901  0.00  0.00    +0.111 A 
ATOM     11  C   UNL     1      -3.265  -1.180   6.244  0.00  0.00    +0.020 A 
ATOM     12  C   UNL     1      -1.969  -0.694   6.161  0.00  0.00    +0.008 A 
ENDBRANCH   3   7
TORSDOF 1
ENDMDL
MODEL 3
REMARK VINA RESULT:    -3.476      2.244      4.287
REMARK INTER + INTRA:          -3.870
REMARK INTER:                  -3.646
REMARK INTRA:                  -0.224
REMARK UNBOUND:                -0.191
REMARK  Name = Nicotine.pdb
REMARK  2 active torsions:
REMARK  status: ('A' for Active; 'I' for Inactive)
REMARK    1  A    between atoms: C_3  and  C_6
REMARK    2  A    between atoms: N_4  and  C_12
REMARK                            x       y       z     vdW  Elec       q    Type
REMARK                         _______ _______ _______ _____ _____    ______ ____
ROOT
ATOM      1  C   UNL     1      -3.544  -2.384   5.871  0.00  0.00    +0.017 C 
ATOM      2  C   UNL     1      -2.722  -1.122   6.244  0.00  0.00    +0.025 C 
ATOM      3  C   UNL     1      -2.268  -0.585   4.870  0.00  0.00    +0.088 C 
ATOM      4  N   UNL     1      -2.316  -1.714   3.923  0.00  0.00    -0.298 NA
ATOM      5  C   UNL     1      -2.754  -2.923   4.652  0.00  0.00    +0.085 C 
ATOM      6  C   UNL     1      -3.216  -1.421   2.800  0.00  0.00    +0.105 C 
ENDROOT
BRANCH   3   7
ATOM      7  C   UNL     1      -0.861  -0.055   4.966  0.00  0.00    -0.012 A 
ATOM      8  C   UNL     1      -0.149   0.251   3.822  0.00  0.00    +0.115 A 
ATOM      9  N   UNL     1       1.083   0.716   3.897  0.00  0.00    -0.263 NA
ATOM     10  C   UNL     1       1.682   0.906   5.056  0.00  0.00    +0.111 A 
ATOM     11  C   UNL     1       1.032   0.623   6.243  0.00  0.00    +0.020 A 
ATOM     12  C   UNL     1      -0.266   0.138   6.204  0.00  0.00    +0.008 A 
ENDBRANCH   3   7
TORSDOF 1
ENDMDL
MODEL 4
REMARK VINA RESULT:    -3.462      1.299      2.280
REMARK INTER + INTRA:          -3.855
REMARK INTER:                  -3.639
REMARK INTRA:                  -0.216
REMARK UNBOUND:                -0.191
REMARK  Name = Nicotine.pdb
REMARK  2 active torsions:
REMARK  status: ('A' for Active; 'I' for Inactive)
REMARK    1  A    between atoms: C_3  and  C_6
REMARK    2  A    between atoms: N_4  and  C_12
REMARK                            x       y       z     vdW  Elec       q    Type
REMARK                         _______ _______ _______ _____ _____    ______ ____
ROOT
ATOM      1  C   UNL     1      -2.944  -0.049   3.676  0.00  0.00    +0.017 C 
ATOM      2  C   UNL     1      -3.305  -1.542   3.895  0.00  0.00    +0.025 C 
ATOM      3  C   UNL     1      -2.301  -1.986   4.980  0.00  0.00    +0.088 C 
ATOM      4  N   UNL     1      -1.162  -1.052   4.930  0.00  0.00    -0.298 NA
ATOM      5  C   UNL     1      -1.405  -0.071   3.851  0.00  0.00    +0.085 C 
ATOM      6  C   UNL     1      -0.975  -0.379   6.222  0.00  0.00    +0.105 C 
ENDROOT
BRANCH   3   7
ATOM      7  C   UNL     1      -1.829  -3.389   4.698  0.00  0.00    -0.012 A 
ATOM      8  C   UNL     1      -0.510  -3.740   4.919  0.00  0.00    +0.115 A 
ATOM      9  N   UNL     1      -0.089  -4.965   4.674  0.00  0.00    -0.263 NA
ATOM     10  C   UNL     1      -0.898  -5.898   4.213  0.00  0.00    +0.111 A 
ATOM     11  C   UNL     1      -2.230  -5.621   3.968  0.00  0.00    +0.020 A 
ATOM     12  C   UNL     1      -2.711  -4.345   4.218  0.00  0.00    +0.008 A 
ENDBRANCH   3   7
TORSDOF 1
ENDMDL
MODEL 5
REMARK VINA RESULT:    -3.303      1.662      2.482
REMARK INTER + INTRA:          -3.687
REMARK INTER:                  -3.431
REMARK INTRA:                  -0.256
REMARK UNBOUND:                -0.191
REMARK  Name = Nicotine.pdb
REMARK  2 active torsions:
REMARK  status: ('A' for Active; 'I' for Inactive)
REMARK    1  A    between atoms: C_3  and  C_6
REMARK    2  A    between atoms: N_4  and  C_12
REMARK                            x       y       z     vdW  Elec       q    Type
REMARK                         _______ _______ _______ _____ _____    ______ ____
ROOT
ATOM      1  C   UNL     1      -1.147   0.341   6.242  0.00  0.00    +0.017 C 
ATOM      2  C   UNL     1      -1.875  -1.029   6.225  0.00  0.00    +0.025 C 
ATOM      3  C   UNL     1      -0.756  -2.012   5.821  0.00  0.00    +0.088 C 
ATOM      4  N   UNL     1       0.284  -1.229   5.129  0.00  0.00    -0.298 NA
ATOM      5  C   UNL     1      -0.153   0.182   5.065  0.00  0.00    +0.085 C 
ATOM      6  C   UNL     1       1.578  -1.350   5.813  0.00  0.00    +0.105 C 
ENDROOT
BRANCH   3   7
ATOM      7  C   UNL     1      -1.308  -3.065   4.896  0.00  0.00    -0.012 A 
ATOM      8  C   UNL     1      -0.671  -4.285   4.766  0.00  0.00    +0.115 A 
ATOM      9  N   UNL     1      -1.147  -5.212   3.958  0.00  0.00    -0.263 NA
ATOM     10  C   UNL     1      -2.240  -5.017   3.247  0.00  0.00    +0.111 A 
ATOM     11  C   UNL     1      -2.931  -3.822   3.325  0.00  0.00    +0.020 A 
ATOM     12  C   UNL     1      -2.463  -2.826   4.168  0.00  0.00    +0.008 A 
ENDBRANCH   3   7
TORSDOF 1
ENDMDL
MODEL 6
REMARK VINA RESULT:    -3.200      2.028      3.378
REMARK INTER + INTRA:          -3.578
REMARK INTER:                  -3.322
REMARK INTRA:                  -0.256
REMARK UNBOUND:                -0.191
REMARK  Name = Nicotine.pdb
REMARK  2 active torsions:
REMARK  status: ('A' for Active; 'I' for Inactive)
REMARK    1  A    between atoms: C_3  and  C_6
REMARK    2  A    between atoms: N_4  and  C_12
REMARK                            x       y       z     vdW  Elec       q    Type
REMARK                         _______ _______ _______ _____ _____    ______ ____
ROOT
ATOM      1  C   UNL     1      -0.958   0.628   1.540  0.00  0.00    +0.017 C 
ATOM      2  C   UNL     1      -0.760  -0.145   2.871  0.00  0.00    +0.025 C 
ATOM      3  C   UNL     1      -1.612  -1.415   2.664  0.00  0.00    +0.088 C 
ATOM      4  N   UNL     1      -2.612  -1.106   1.626  0.00  0.00    -0.298 NA
ATOM      5  C   UNL     1      -2.433   0.299   1.203  0.00  0.00    +0.085 C 
ATOM      6  C   UNL     1      -2.486  -2.021   0.484  0.00  0.00    +0.105 C 
ENDROOT
BRANCH   3   7
ATOM      7  C   UNL     1      -2.303  -1.784   3.951  0.00  0.00    -0.012 A 
ATOM      8  C   UNL     1      -2.838  -3.047   4.120  0.00  0.00    +0.115 A 
ATOM      9  N   UNL     1      -3.445  -3.378   5.244  0.00  0.00    -0.263 NA
ATOM     10  C   UNL     1      -3.566  -2.526   6.243  0.00  0.00    +0.111 A 
ATOM     11  C   UNL     1      -3.055  -1.245   6.146  0.00  0.00    +0.020 A 
ATOM     12  C   UNL     1      -2.406  -0.863   4.982  0.00  0.00    +0.008 A 
ENDBRANCH   3   7
TORSDOF 1
ENDMDL
MODEL 7
REMARK VINA RESULT:    -3.125      2.649      4.044
REMARK INTER + INTRA:          -3.499
REMARK INTER:                  -3.307
REMARK INTRA:                  -0.191
REMARK UNBOUND:                -0.191
REMARK  Name = Nicotine.pdb
REMARK  2 active torsions:
REMARK  status: ('A' for Active; 'I' for Inactive)
REMARK    1  A    between atoms: C_3  and  C_6
REMARK    2  A    between atoms: N_4  and  C_12
REMARK                            x       y       z     vdW  Elec       q    Type
REMARK                         _______ _______ _______ _____ _____    ______ ____
ROOT
ATOM      1  C   UNL     1       2.089  -0.466   3.295  0.00  0.00    +0.017 C 
ATOM      2  C   UNL     1       0.542  -0.477   3.169  0.00  0.00    +0.025 C 
ATOM      3  C   UNL     1       0.076  -0.093   4.590  0.00  0.00    +0.088 C 
ATOM      4  N   UNL     1       1.178  -0.415   5.513  0.00  0.00    -0.298 NA
ATOM      5  C   UNL     1       2.289  -1.002   4.734  0.00  0.00    +0.085 C 
ATOM      6  C   UNL     1       1.621   0.780   6.244  0.00  0.00    +0.105 C 
ENDROOT
BRANCH   3   7
ATOM      7  C   UNL     1      -1.152  -0.884   4.958  0.00  0.00    -0.012 A 
ATOM      8  C   UNL     1      -1.045  -2.011   5.752  0.00  0.00    +0.115 A 
ATOM      9  N   UNL     1      -2.115  -2.709   6.079  0.00  0.00    -0.263 NA
ATOM     10  C   UNL     1      -3.319  -2.367   5.666  0.00  0.00    +0.111 A 
ATOM     11  C   UNL     1      -3.504  -1.252   4.870  0.00  0.00    +0.020 A 
ATOM     12  C   UNL     1      -2.403  -0.490   4.510  0.00  0.00    +0.008 A 
ENDBRANCH   3   7
TORSDOF 1
ENDMDL
MODEL 8
REMARK VINA RESULT:    -3.113      1.871      4.177
REMARK INTER + INTRA:          -3.486
REMARK INTER:                  -3.263
REMARK INTRA:                  -0.223
REMARK UNBOUND:                -0.191
REMARK  Name = Nicotine.pdb
REMARK  2 active torsions:
REMARK  status: ('A' for Active; 'I' for Inactive)
REMARK    1  A    between atoms: C_3  and  C_6
REMARK    2  A    between atoms: N_4  and  C_12
REMARK                            x       y       z     vdW  Elec       q    Type
REMARK                         _______ _______ _______ _____ _____    ______ ____
ROOT
ATOM      1  C   UNL     1       0.481  -3.319   1.651  0.00  0.00    +0.017 C 
ATOM      2  C   UNL     1       0.104  -2.488   2.906  0.00  0.00    +0.025 C 
ATOM      3  C   UNL     1      -0.278  -3.571   3.937  0.00  0.00    +0.088 C 
ATOM      4  N   UNL     1      -0.643  -4.784   3.183  0.00  0.00    -0.298 NA
ATOM      5  C   UNL     1      -0.527  -4.492   1.738  0.00  0.00    +0.085 C 
ATOM      6  C   UNL     1       0.211  -5.917   3.561  0.00  0.00    +0.105 C 
ENDROOT
BRANCH   3   7
ATOM      7  C   UNL     1      -1.452  -3.105   4.759  0.00  0.00    -0.012 A 
ATOM      8  C   UNL     1      -2.625  -3.836   4.780  0.00  0.00    +0.115 A 
ATOM      9  N   UNL     1      -3.657  -3.435   5.497  0.00  0.00    -0.263 NA
ATOM     10  C   UNL     1      -3.615  -2.331   6.216  0.00  0.00    +0.111 A 
ATOM     11  C   UNL     1      -2.475  -1.548   6.244  0.00  0.00    +0.020 A 
ATOM     12  C   UNL     1      -1.368  -1.941   5.507  0.00  0.00    +0.008 A 
ENDBRANCH   3   7
TORSDOF 1
ENDMDL
MODEL 9
REMARK VINA RESULT:    -3.044      1.724      4.486
REMARK INTER + INTRA:          -3.413
REMARK INTER:                  -3.207
REMARK INTRA:                  -0.206
REMARK UNBOUND:                -0.191
REMARK  Name = Nicotine.pdb
REMARK  2 active torsions:
REMARK  status: ('A' for Active; 'I' for Inactive)
REMARK    1  A    between atoms: C_3  and  C_6
REMARK    2  A    between atoms: N_4  and  C_12
REMARK                            x       y       z     vdW  Elec       q    Type
REMARK                         _______ _______ _______ _____ _____    ______ ____
ROOT
ATOM      1  C   UNL     1      -1.939  -3.669   1.347  0.00  0.00    +0.017 C 
ATOM      2  C   UNL     1      -1.151  -2.680   2.246  0.00  0.00    +0.025 C 
ATOM      3  C   UNL     1      -1.471  -3.177   3.672  0.00  0.00    +0.088 C 
ATOM      4  N   UNL     1      -2.727  -3.945   3.596  0.00  0.00    -0.298 NA
ATOM      5  C   UNL     1      -3.208  -3.922   2.198  0.00  0.00    +0.085 C 
ATOM      6  C   UNL     1      -2.532  -5.323   4.064  0.00  0.00    +0.105 C 
ENDROOT
BRANCH   3   7
ATOM      7  C   UNL     1      -1.643  -2.001   4.599  0.00  0.00    -0.012 A 
ATOM      8  C   UNL     1      -0.684  -1.008   4.653  0.00  0.00    +0.115 A 
ATOM      9  N   UNL     1      -0.826   0.025   5.461  0.00  0.00    -0.263 NA
ATOM     10  C   UNL     1      -1.879   0.152   6.244  0.00  0.00    +0.111 A 
ATOM     11  C   UNL     1      -2.880  -0.802   6.244  0.00  0.00    +0.020 A 
ATOM     12  C   UNL     1      -2.767  -1.899   5.404  0.00  0.00    +0.008 A 
ENDBRANCH   3   7
TORSDOF 1
ENDMDL
