MODEL 1
REMARK VINA RESULT:    -3.581      0.000      0.000
REMARK INTER + INTRA:          -4.036
REMARK INTER:                  -3.790
REMARK INTRA:                  -0.245
REMARK UNBOUND:                -0.245
REMARK  Name = Nicotine.pdb
REMARK  2 active torsions:
REMARK  status: ('A' for Active; 'I' for Inactive)
REMARK    1  A    between atoms: C_3  and  C_6
REMARK    2  A    between atoms: N_4  and  C_12
REMARK                            x       y       z     vdW  Elec       q    Type
REMARK                         _______ _______ _______ _____ _____    ______ ____
ROOT
ATOM      1  C   UNL     1      -1.456   1.788   4.942  0.00  0.00    +0.017 C 
ATOM      2  C   UNL     1      -0.034   2.045   4.377  0.00  0.00    +0.025 C 
ATOM      3  C   UNL     1       0.731   0.762   4.766  0.00  0.00    +0.088 C 
ATOM      4  N   UNL     1       0.014   0.152   5.900  0.00  0.00    -0.298 NA
ATOM      5  C   UNL     1      -1.140   1.011   6.244  0.00  0.00    +0.085 C 
ATOM      6  C   UNL     1      -0.423  -1.212   5.576  0.00  0.00    +0.105 C 
ENDROOT
BRANCH   3   7
ATOM      7  C   UNL     1       2.139   1.109   5.174  0.00  0.00    -0.012 A 
ATOM      8  C   UNL     1       3.042   0.110   5.488  0.00  0.00    +0.115 A 
ATOM      9  N   UNL     1       4.276   0.405   5.846  0.00  0.00    -0.263 NA
ATOM     10  C   UNL     1       4.697   1.652   5.920  0.00  0.00    +0.111 A 
ATOM     11  C   UNL     1       3.851   2.704   5.621  0.00  0.00    +0.020 A 
ATOM     12  C   UNL     1       2.547   2.432   5.235  0.00  0.00    +0.008 A 
ENDBRANCH   3   7
TORSDOF 1
ENDMDL
MODEL 2
REMARK VINA RESULT:    -3.494      2.026      2.928
REMARK INTER + INTRA:          -3.943
REMARK INTER:                  -3.759
REMARK INTRA:                  -0.184
REMARK UNBOUND:                -0.245
REMARK  Name = Nicotine.pdb
REMARK  2 active torsions:
REMARK  status: ('A' for Active; 'I' for Inactive)
REMARK    1  A    between atoms: C_3  and  C_6
REMARK    2  A    between atoms: N_4  and  C_12
REMARK                            x       y       z     vdW  Elec       q    Type
REMARK                         _______ _______ _______ _____ _____    ______ ____
ROOT
ATOM      1  C   UNL     1      -1.435   0.083   5.888  0.00  0.00    +0.017 C 
ATOM      2  C   UNL     1      -1.287   1.558   5.430  0.00  0.00    +0.025 C 
ATOM      3  C   UNL     1       0.065   1.557   4.685  0.00  0.00    +0.088 C 
ATOM      4  N   UNL     1       0.835   0.401   5.179  0.00  0.00    -0.298 NA
ATOM      5  C   UNL     1       0.033  -0.293   6.210  0.00  0.00    +0.085 C 
ATOM      6  C   UNL     1       1.183  -0.509   4.081  0.00  0.00    +0.105 C 
ENDROOT
BRANCH   3   7
ATOM      7  C   UNL     1       0.811   2.833   4.975  0.00  0.00    -0.012 A 
ATOM      8  C   UNL     1       0.128   3.967   5.375  0.00  0.00    +0.115 A 
ATOM      9  N   UNL     1       0.774   5.088   5.631  0.00  0.00    -0.263 NA
ATOM     10  C   UNL     1       2.084   5.175   5.516  0.00  0.00    +0.111 A 
ATOM     11  C   UNL     1       2.834   4.083   5.121  0.00  0.00    +0.020 A 
ATOM     12  C   UNL     1       2.191   2.885   4.849  0.00  0.00    +0.008 A 
ENDBRANCH   3   7
TORSDOF 1
ENDMDL
MODEL 3
REMARK VINA RESULT:    -3.449      1.611      4.749
REMARK INTER + INTRA:          -3.896
REMARK INTER:                  -3.681
REMARK INTRA:                  -0.215
REMARK UNBOUND:                -0.245
REMARK  Name = Nicotine.pdb
REMARK  2 active torsions:
REMARK  status: ('A' for Active; 'I' for Inactive)
REMARK    1  A    between atoms: C_3  and  C_6
REMARK    2  A    between atoms: N_4  and  C_12
REMARK                            x       y       z     vdW  Elec       q    Type
REMARK                         _______ _______ _______ _____ _____    ______ ____
ROOT
ATOM      1  C   UNL     1       2.719  -0.058   5.057  0.00  0.00    +0.017 C 
ATOM      2  C   UNL     1       1.244  -0.199   4.599  0.00  0.00    +0.025 C 
ATOM      3  C   UNL     1       0.703   1.241   4.719  0.00  0.00    +0.088 C 
ATOM      4  N   UNL     1       1.570   1.955   5.675  0.00  0.00    -0.298 NA
ATOM      5  C   UNL     1       2.600   1.016   6.168  0.00  0.00    +0.085 C 
ATOM      6  C   UNL     1       2.185   3.133   5.051  0.00  0.00    +0.105 C 
ENDROOT
BRANCH   3   7
ATOM      7  C   UNL     1      -0.714   1.216   5.230  0.00  0.00    -0.012 A 
ATOM      8  C   UNL     1      -1.233   0.067   5.794  0.00  0.00    +0.115 A 
ATOM      9  N   UNL     1      -2.473   0.036   6.244  0.00  0.00    -0.263 NA
ATOM     10  C   UNL     1      -3.262   1.090   6.174  0.00  0.00    +0.111 A 
ATOM     11  C   UNL     1      -2.811   2.276   5.622  0.00  0.00    +0.020 A 
ATOM     12  C   UNL     1      -1.512   2.347   5.144  0.00  0.00    +0.008 A 
ENDBRANCH   3   7
TORSDOF 1
ENDMDL
MODEL 4
REMARK VINA RESULT:    -3.325      2.517      5.738
REMARK INTER + INTRA:          -3.764
REMARK INTER:                  -3.510
REMARK INTRA:                  -0.254
REMARK UNBOUND:                -0.245
REMARK  Name = Nicotine.pdb
REMARK  2 active torsions:
REMARK  status: ('A' for Active; 'I' for Inactive)
REMARK    1  A    between atoms: C_3  and  C_6
REMARK    2  A    between atoms: N_4  and  C_12
REMARK                            x       y       z     vdW  Elec       q    Type
REMARK                         _______ _______ _______ _____ _____    ______ ____
ROOT
ATOM      1  C   UNL     1       8.458   0.783   5.195  0.00  0.00    +0.017 C 
ATOM      2  C   UNL     1       7.214   1.231   6.006  0.00  0.00    +0.025 C 
ATOM      3  C   UNL     1       6.193   0.107   5.726  0.00  0.00    +0.088 C 
ATOM      4  N   UNL     1       6.599  -0.547   4.469  0.00  0.00    -0.298 NA
ATOM      5  C   UNL     1       7.803   0.135   3.950  0.00  0.00    +0.085 C 
ATOM      6  C   UNL     1       6.852  -1.978   4.678  0.00  0.00    +0.105 C 
ENDROOT
BRANCH   3   7
ATOM      7  C   UNL     1       4.813   0.693   5.578  0.00  0.00    -0.012 A 
ATOM      8  C   UNL     1       3.701  -0.128   5.578  0.00  0.00    +0.115 A 
ATOM      9  N   UNL     1       2.490   0.377   5.449  0.00  0.00    -0.263 NA
ATOM     10  C   UNL     1       2.289   1.673   5.317  0.00  0.00    +0.111 A 
ATOM     11  C   UNL     1       3.353   2.556   5.309  0.00  0.00    +0.020 A 
ATOM     12  C   UNL     1       4.641   2.063   5.447  0.00  0.00    +0.008 A 
ENDBRANCH   3   7
TORSDOF 1
ENDMDL
MODEL 5
REMARK VINA RESULT:    -3.296      2.847      5.893
REMARK INTER + INTRA:          -3.734
REMARK INTER:                  -3.535
REMARK INTRA:                  -0.199
REMARK UNBOUND:                -0.245
REMARK  Name = Nicotine.pdb
REMARK  2 active torsions:
REMARK  status: ('A' for Active; 'I' for Inactive)
REMARK    1  A    between atoms: C_3  and  C_6
REMARK    2  A    between atoms: N_4  and  C_12
REMARK                            x       y       z     vdW  Elec       q    Type
REMARK                         _______ _______ _______ _____ _____    ______ ____
ROOT
ATOM      1  C   UNL     1       1.002   3.006   5.307  0.00  0.00    +0.017 C 
ATOM      2  C   UNL     1      -0.263   3.684   5.896  0.00  0.00    +0.025 C 
ATOM      3  C   UNL     1      -1.213   2.492   6.143  0.00  0.00    +0.088 C 
ATOM      4  N   UNL     1      -0.775   1.395   5.262  0.00  0.00    -0.298 NA
ATOM      5  C   UNL     1       0.381   1.862   4.467  0.00  0.00    +0.085 C 
ATOM      6  C   UNL     1      -0.430   0.199   6.041  0.00  0.00    +0.105 C 
ENDROOT
BRANCH   3   7
ATOM      7  C   UNL     1      -2.628   2.886   5.808  0.00  0.00    -0.012 A 
ATOM      8  C   UNL     1      -3.137   4.097   6.239  0.00  0.00    +0.115 A 
ATOM      9  N   UNL     1      -4.375   4.449   5.951  0.00  0.00    -0.263 NA
ATOM     10  C   UNL     1      -5.171   3.670   5.246  0.00  0.00    +0.111 A 
ATOM     11  C   UNL     1      -4.731   2.445   4.781  0.00  0.00    +0.020 A 
ATOM     12  C   UNL     1      -3.434   2.043   5.060  0.00  0.00    +0.008 A 
ENDBRANCH   3   7
TORSDOF 1
ENDMDL
MODEL 6
REMARK VINA RESULT:    -3.258      2.787      4.589
REMARK INTER + INTRA:          -3.694
REMARK INTER:                  -3.438
REMARK INTRA:                  -0.256
REMARK UNBOUND:                -0.245
REMARK  Name = Nicotine.pdb
REMARK  2 active torsions:
REMARK  status: ('A' for Active; 'I' for Inactive)
REMARK    1  A    between atoms: C_3  and  C_6
REMARK    2  A    between atoms: N_4  and  C_12
REMARK                            x       y       z     vdW  Elec       q    Type
REMARK                         _______ _______ _______ _____ _____    ______ ____
ROOT
ATOM      1  C   UNL     1       2.260   1.954   5.486  0.00  0.00    +0.017 C 
ATOM      2  C   UNL     1       3.310   0.863   5.825  0.00  0.00    +0.025 C 
ATOM      3  C   UNL     1       4.603   1.679   6.033  0.00  0.00    +0.088 C 
ATOM      4  N   UNL     1       4.431   2.959   5.322  0.00  0.00    -0.298 NA
ATOM      5  C   UNL     1       3.106   2.959   4.666  0.00  0.00    +0.085 C 
ATOM      6  C   UNL     1       4.564   4.096   6.242  0.00  0.00    +0.105 C 
ENDROOT
BRANCH   3   7
ATOM      7  C   UNL     1       5.780   0.929   5.465  0.00  0.00    -0.012 A 
ATOM      8  C   UNL     1       7.062   1.206   5.900  0.00  0.00    +0.115 A 
ATOM      9  N   UNL     1       8.097   0.554   5.408  0.00  0.00    -0.263 NA
ATOM     10  C   UNL     1       7.954  -0.380   4.488  0.00  0.00    +0.111 A 
ATOM     11  C   UNL     1       6.702  -0.712   4.005  0.00  0.00    +0.020 A 
ATOM     12  C   UNL     1       5.590  -0.051   4.503  0.00  0.00    +0.008 A 
ENDBRANCH   3   7
TORSDOF 1
ENDMDL
MODEL 7
REMARK VINA RESULT:    -3.239      1.452      2.526
REMARK INTER + INTRA:          -3.673
REMARK INTER:                  -3.428
REMARK INTRA:                  -0.245
REMARK UNBOUND:                -0.245
REMARK  Name = Nicotine.pdb
REMARK  2 active torsions:
REMARK  status: ('A' for Active; 'I' for Inactive)
REMARK    1  A    between atoms: C_3  and  C_6
REMARK    2  A    between atoms: N_4  and  C_12
REMARK                            x       y       z     vdW  Elec       q    Type
REMARK                         _______ _______ _______ _____ _____    ______ ____
ROOT
ATOM      1  C   UNL     1      -0.826   0.913   5.555  0.00  0.00    +0.017 C 
ATOM      2  C   UNL     1       0.505   0.510   6.244  0.00  0.00    +0.025 C 
ATOM      3  C   UNL     1       1.364   1.785   6.112  0.00  0.00    +0.088 C 
ATOM      4  N   UNL     1       0.817   2.566   4.988  0.00  0.00    -0.298 NA
ATOM      5  C   UNL     1      -0.321   1.822   4.407  0.00  0.00    +0.085 C 
ATOM      6  C   UNL     1       0.401   3.904   5.430  0.00  0.00    +0.105 C 
ENDROOT
BRANCH   3   7
ATOM      7  C   UNL     1       2.796   1.411   5.829  0.00  0.00    -0.012 A 
ATOM      8  C   UNL     1       3.771   2.387   5.752  0.00  0.00    +0.115 A 
ATOM      9  N   UNL     1       5.027   2.069   5.504  0.00  0.00    -0.263 NA
ATOM     10  C   UNL     1       5.401   0.818   5.322  0.00  0.00    +0.111 A 
ATOM     11  C   UNL     1       4.482  -0.212   5.386  0.00  0.00    +0.020 A 
ATOM     12  C   UNL     1       3.154   0.084   5.649  0.00  0.00    +0.008 A 
ENDBRANCH   3   7
TORSDOF 1
ENDMDL
MODEL 8
REMARK VINA RESULT:    -3.238      2.320      4.101
REMARK INTER + INTRA:          -3.672
REMARK INTER:                  -3.479
REMARK INTRA:                  -0.193
REMARK UNBOUND:                -0.245
REMARK  Name = Nicotine.pdb
REMARK  2 active torsions:
REMARK  status: ('A' for Active; 'I' for Inactive)
REMARK    1  A    between atoms: C_3  and  C_6
REMARK    2  A    between atoms: N_4  and  C_12
REMARK                            x       y       z     vdW  Elec       q    Type
REMARK                         _______ _______ _______ _____ _____    ______ ____
ROOT
ATOM      1  C   UNL     1      -4.991   1.458   5.813  0.00  0.00    +0.017 C 
ATOM      2  C   UNL     1      -3.706   0.674   6.189  0.00  0.00    +0.025 C 
ATOM      3  C   UNL     1      -2.629   1.778   6.244  0.00  0.00    +0.088 C 
ATOM      4  N   UNL     1      -3.117   2.906   5.430  0.00  0.00    -0.298 NA
ATOM      5  C   UNL     1      -4.429   2.539   4.856  0.00  0.00    +0.085 C 
ATOM      6  C   UNL     1      -3.217   4.132   6.233  0.00  0.00    +0.105 C 
ENDROOT
BRANCH   3   7
ATOM      7  C   UNL     1      -1.332   1.259   5.678  0.00  0.00    -0.012 A 
ATOM      8  C   UNL     1      -0.919  -0.031   5.949  0.00  0.00    +0.115 A 
ATOM      9  N   UNL     1       0.215  -0.494   5.458  0.00  0.00    -0.263 NA
ATOM     10  C   UNL     1       0.993   0.248   4.696  0.00  0.00    +0.111 A 
ATOM     11  C   UNL     1       0.645   1.549   4.382  0.00  0.00    +0.020 A 
ATOM     12  C   UNL     1      -0.542   2.068   4.875  0.00  0.00    +0.008 A 
ENDBRANCH   3   7
TORSDOF 1
ENDMDL
MODEL 9
REMARK VINA RESULT:    -3.107      2.231      4.774
REMARK INTER + INTRA:          -3.534
REMARK INTER:                  -3.320
REMARK INTRA:                  -0.215
REMARK UNBOUND:                -0.245
REMARK  Name = Nicotine.pdb
REMARK  2 active torsions:
REMARK  status: ('A' for Active; 'I' for Inactive)
REMARK    1  A    between atoms: C_3  and  C_6
REMARK    2  A    between atoms: N_4  and  C_12
REMARK                            x       y       z     vdW  Elec       q    Type
REMARK                         _______ _______ _______ _____ _____    ______ ____
ROOT
ATOM      1  C   UNL     1       2.884   3.663   4.973  0.00  0.00    +0.017 C 
ATOM      2  C   UNL     1       1.860   2.606   4.482  0.00  0.00    +0.025 C 
ATOM      3  C   UNL     1       0.502   3.250   4.831  0.00  0.00    +0.088 C 
ATOM      4  N   UNL     1       0.748   4.234   5.901  0.00  0.00    -0.298 NA
ATOM      5  C   UNL     1       2.186   4.208   6.244  0.00  0.00    +0.085 C 
ATOM      6  C   UNL     1       0.329   5.579   5.486  0.00  0.00    +0.105 C 
ENDROOT
BRANCH   3   7
ATOM      7  C   UNL     1      -0.457   2.194   5.315  0.00  0.00    -0.012 A 
ATOM      8  C   UNL     1       0.004   0.938   5.664  0.00  0.00    +0.115 A 
ATOM      9  N   UNL     1      -0.829   0.008   6.088  0.00  0.00    -0.263 NA
ATOM     10  C   UNL     1      -2.124   0.233   6.196  0.00  0.00    +0.111 A 
ATOM     11  C   UNL     1      -2.657   1.465   5.866  0.00  0.00    +0.020 A 
ATOM     12  C   UNL     1      -1.812   2.470   5.421  0.00  0.00    +0.008 A 
ENDBRANCH   3   7
TORSDOF 1
ENDMDL
MODEL 10
REMARK VINA RESULT:    -3.047      2.143      5.471
REMARK INTER + INTRA:          -3.471
REMARK INTER:                  -3.276
REMARK INTRA:                  -0.195
REMARK UNBOUND:                -0.245
REMARK  Name = Nicotine.pdb
REMARK  2 active torsions:
REMARK  status: ('A' for Active; 'I' for Inactive)
REMARK    1  A    between atoms: C_3  and  C_6
REMARK    2  A    between atoms: N_4  and  C_12
REMARK                            x       y       z     vdW  Elec       q    Type
REMARK                         _______ _______ _______ _____ _____    ______ ____
ROOT
ATOM      1  C   UNL     1       7.744   1.154   5.761  0.00  0.00    +0.017 C 
ATOM      2  C   UNL     1       6.376   1.703   6.244  0.00  0.00    +0.025 C 
ATOM      3  C   UNL     1       5.476   0.449   6.236  0.00  0.00    +0.088 C 
ATOM      4  N   UNL     1       6.088  -0.522   5.311  0.00  0.00    -0.298 NA
ATOM      5  C   UNL     1       7.306   0.083   4.731  0.00  0.00    +0.085 C 
ATOM      6  C   UNL     1       6.402  -1.780   6.000  0.00  0.00    +0.105 C 
ENDROOT
BRANCH   3   7
ATOM      7  C   UNL     1       4.094   0.812   5.760  0.00  0.00    -0.012 A 
ATOM      8  C   UNL     1       3.755   2.134   5.541  0.00  0.00    +0.115 A 
ATOM      9  N   UNL     1       2.548   2.461   5.123  0.00  0.00    -0.263 NA
ATOM     10  C   UNL     1       1.621   1.550   4.900  0.00  0.00    +0.111 A 
ATOM     11  C   UNL     1       1.887   0.208   5.097  0.00  0.00    +0.020 A 
ATOM     12  C   UNL     1       3.148  -0.174   5.530  0.00  0.00    +0.008 A 
ENDBRANCH   3   7
TORSDOF 1
ENDMDL
