MODEL 1
REMARK VINA RESULT:    -3.188      0.000      0.000
REMARK INTER + INTRA:          -3.590
REMARK INTER:                  -3.375
REMARK INTRA:                  -0.216
REMARK UNBOUND:                -0.216
REMARK  Name = Nicotine.pdb
REMARK  2 active torsions:
REMARK  status: ('A' for Active; 'I' for Inactive)
REMARK    1  A    between atoms: C_3  and  C_6
REMARK    2  A    between atoms: N_4  and  C_12
REMARK                            x       y       z     vdW  Elec       q    Type
REMARK                         _______ _______ _______ _____ _____    ______ ____
ROOT
ATOM      1  C   UNL     1       8.311   7.028   4.644  0.00  0.00    +0.017 C 
ATOM      2  C   UNL     1       7.540   6.028   3.743  0.00  0.00    +0.025 C 
ATOM      3  C   UNL     1       8.578   4.912   3.496  0.00  0.00    +0.088 C 
ATOM      4  N   UNL     1       9.911   5.497   3.722  0.00  0.00    -0.298 NA
ATOM      5  C   UNL     1       9.747   6.925   4.070  0.00  0.00    +0.085 C 
ATOM      6  C   UNL     1      10.631   4.777   4.780  0.00  0.00    +0.105 C 
ENDROOT
BRANCH   3   7
ATOM      7  C   UNL     1       8.468   4.414   2.079  0.00  0.00    -0.012 A 
ATOM      8  C   UNL     1       9.593   3.990   1.397  0.00  0.00    +0.115 A 
ATOM      9  N   UNL     1       9.506   3.553   0.156  0.00  0.00    -0.263 NA
ATOM     10  C   UNL     1       8.353   3.502  -0.481  0.00  0.00    +0.111 A 
ATOM     11  C   UNL     1       7.185   3.908   0.136  0.00  0.00    +0.020 A 
ATOM     12  C   UNL     1       7.237   4.369   1.443  0.00  0.00    +0.008 A 
ENDBRANCH   3   7
TORSDOF 1
ENDMDL
MODEL 2
REMARK VINA RESULT:    -3.018      1.743      4.959
REMARK INTER + INTRA:          -3.410
REMARK INTER:                  -3.197
REMARK INTRA:                  -0.213
REMARK UNBOUND:                -0.216
REMARK  Name = Nicotine.pdb
REMARK  2 active torsions:
REMARK  status: ('A' for Active; 'I' for Inactive)
REMARK    1  A    between atoms: C_3  and  C_6
REMARK    2  A    between atoms: N_4  and  C_12
REMARK                            x       y       z     vdW  Elec       q    Type
REMARK                         _______ _______ _______ _____ _____    ______ ____
ROOT
ATOM      1  C   UNL     1       7.551   2.782  -2.387  0.00  0.00    +0.017 C 
ATOM      2  C   UNL     1       8.072   2.418  -0.972  0.00  0.00    +0.025 C 
ATOM      3  C   UNL     1       7.466   3.526  -0.084  0.00  0.00    +0.088 C 
ATOM      4  N   UNL     1       7.160   4.671  -0.962  0.00  0.00    -0.298 NA
ATOM      5  C   UNL     1       7.571   4.330  -2.340  0.00  0.00    +0.085 C 
ATOM      6  C   UNL     1       5.733   5.011  -0.906  0.00  0.00    +0.105 C 
ENDROOT
BRANCH   3   7
ATOM      7  C   UNL     1       8.460   3.939   0.971  0.00  0.00    -0.012 A 
ATOM      8  C   UNL     1       9.815   3.916   0.701  0.00  0.00    +0.115 A 
ATOM      9  N   UNL     1      10.692   4.275   1.619  0.00  0.00    -0.263 NA
ATOM     10  C   UNL     1      10.316   4.667   2.820  0.00  0.00    +0.111 A 
ATOM     11  C   UNL     1       8.977   4.716   3.162  0.00  0.00    +0.020 A 
ATOM     12  C   UNL     1       8.027   4.351   2.222  0.00  0.00    +0.008 A 
ENDBRANCH   3   7
TORSDOF 1
ENDMDL
MODEL 3
REMARK VINA RESULT:    -2.773      1.252      4.557
REMARK INTER + INTRA:          -3.151
REMARK INTER:                  -2.937
REMARK INTRA:                  -0.214
REMARK UNBOUND:                -0.216
REMARK  Name = Nicotine.pdb
REMARK  2 active torsions:
REMARK  status: ('A' for Active; 'I' for Inactive)
REMARK    1  A    between atoms: C_3  and  C_6
REMARK    2  A    between atoms: N_4  and  C_12
REMARK                            x       y       z     vdW  Elec       q    Type
REMARK                         _______ _______ _______ _____ _____    ______ ____
ROOT
ATOM      1  C   UNL     1       8.330   2.705  -0.158  0.00  0.00    +0.017 C 
ATOM      2  C   UNL     1       8.214   2.901   1.377  0.00  0.00    +0.025 C 
ATOM      3  C   UNL     1       7.511   4.270   1.500  0.00  0.00    +0.088 C 
ATOM      4  N   UNL     1       7.750   4.998   0.240  0.00  0.00    -0.298 NA
ATOM      5  C   UNL     1       8.586   4.155  -0.640  0.00  0.00    +0.085 C 
ATOM      6  C   UNL     1       6.483   5.349  -0.414  0.00  0.00    +0.105 C 
ENDROOT
BRANCH   3   7
ATOM      7  C   UNL     1       8.090   5.041   2.657  0.00  0.00    -0.012 A 
ATOM      8  C   UNL     1       9.256   4.617   3.266  0.00  0.00    +0.115 A 
ATOM      9  N   UNL     1       9.770   5.287   4.280  0.00  0.00    -0.263 NA
ATOM     10  C   UNL     1       9.198   6.377   4.751  0.00  0.00    +0.111 A 
ATOM     11  C   UNL     1       8.030   6.862   4.193  0.00  0.00    +0.020 A 
ATOM     12  C   UNL     1       7.464   6.187   3.122  0.00  0.00    +0.008 A 
ENDBRANCH   3   7
TORSDOF 1
ENDMDL
MODEL 4
REMARK VINA RESULT:    -2.769      1.362      4.772
REMARK INTER + INTRA:          -3.147
REMARK INTER:                  -2.894
REMARK INTRA:                  -0.252
REMARK UNBOUND:                -0.216
REMARK  Name = Nicotine.pdb
REMARK  2 active torsions:
REMARK  status: ('A' for Active; 'I' for Inactive)
REMARK    1  A    between atoms: C_3  and  C_6
REMARK    2  A    between atoms: N_4  and  C_12
REMARK                            x       y       z     vdW  Elec       q    Type
REMARK                         _______ _______ _______ _____ _____    ______ ____
ROOT
ATOM      1  C   UNL     1       8.304   2.606  -0.519  0.00  0.00    +0.017 C 
ATOM      2  C   UNL     1       8.215   2.764   1.022  0.00  0.00    +0.025 C 
ATOM      3  C   UNL     1       7.499   4.121   1.190  0.00  0.00    +0.088 C 
ATOM      4  N   UNL     1       7.706   4.882  -0.055  0.00  0.00    -0.298 NA
ATOM      5  C   UNL     1       8.535   4.070  -0.971  0.00  0.00    +0.085 C 
ATOM      6  C   UNL     1       6.423   5.233  -0.677  0.00  0.00    +0.105 C 
ENDROOT
BRANCH   3   7
ATOM      7  C   UNL     1       8.091   4.872   2.355  0.00  0.00    -0.012 A 
ATOM      8  C   UNL     1       7.471   6.007   2.843  0.00  0.00    +0.115 A 
ATOM      9  N   UNL     1       7.982   6.669   3.862  0.00  0.00    -0.263 NA
ATOM     10  C   UNL     1       9.095   6.282   4.453  0.00  0.00    +0.111 A 
ATOM     11  C   UNL     1       9.770   5.156   4.020  0.00  0.00    +0.020 A 
ATOM     12  C   UNL     1       9.260   4.430   2.955  0.00  0.00    +0.008 A 
ENDBRANCH   3   7
TORSDOF 1
ENDMDL
MODEL 5
REMARK VINA RESULT:    -2.687      1.595      5.021
REMARK INTER + INTRA:          -3.059
REMARK INTER:                  -2.805
REMARK INTRA:                  -0.255
REMARK UNBOUND:                -0.216
REMARK  Name = Nicotine.pdb
REMARK  2 active torsions:
REMARK  status: ('A' for Active; 'I' for Inactive)
REMARK    1  A    between atoms: C_3  and  C_6
REMARK    2  A    between atoms: N_4  and  C_12
REMARK                            x       y       z     vdW  Elec       q    Type
REMARK                         _______ _______ _______ _____ _____    ______ ____
ROOT
ATOM      1  C   UNL     1       7.730   2.851  -2.010  0.00  0.00    +0.017 C 
ATOM      2  C   UNL     1       8.042   2.571  -0.516  0.00  0.00    +0.025 C 
ATOM      3  C   UNL     1       7.285   3.701   0.214  0.00  0.00    +0.088 C 
ATOM      4  N   UNL     1       7.088   4.793  -0.756  0.00  0.00    -0.298 NA
ATOM      5  C   UNL     1       7.708   4.400  -2.040  0.00  0.00    +0.085 C 
ATOM      6  C   UNL     1       5.661   5.092  -0.931  0.00  0.00    +0.105 C 
ENDROOT
BRANCH   3   7
ATOM      7  C   UNL     1       8.100   4.193   1.382  0.00  0.00    -0.012 A 
ATOM      8  C   UNL     1       7.522   4.989   2.352  0.00  0.00    +0.115 A 
ATOM      9  N   UNL     1       8.228   5.423   3.378  0.00  0.00    -0.263 NA
ATOM     10  C   UNL     1       9.503   5.120   3.519  0.00  0.00    +0.111 A 
ATOM     11  C   UNL     1      10.150   4.327   2.589  0.00  0.00    +0.020 A 
ATOM     12  C   UNL     1       9.438   3.848   1.500  0.00  0.00    +0.008 A 
ENDBRANCH   3   7
TORSDOF 1
ENDMDL
MODEL 6
REMARK VINA RESULT:    -2.318      1.744      5.030
REMARK INTER + INTRA:          -2.670
REMARK INTER:                  -2.470
REMARK INTRA:                  -0.200
REMARK UNBOUND:                -0.216
REMARK  Name = Nicotine.pdb
REMARK  2 active torsions:
REMARK  status: ('A' for Active; 'I' for Inactive)
REMARK    1  A    between atoms: C_3  and  C_6
REMARK    2  A    between atoms: N_4  and  C_12
REMARK                            x       y       z     vdW  Elec       q    Type
REMARK                         _______ _______ _______ _____ _____    ______ ____
ROOT
ATOM      1  C   UNL     1       9.987   4.589  -2.822  0.00  0.00    +0.017 C 
ATOM      2  C   UNL     1      10.404   4.379  -1.343  0.00  0.00    +0.025 C 
ATOM      3  C   UNL     1       9.228   3.564  -0.763  0.00  0.00    +0.088 C 
ATOM      4  N   UNL     1       8.060   3.809  -1.627  0.00  0.00    -0.298 NA
ATOM      5  C   UNL     1       8.452   4.754  -2.694  0.00  0.00    +0.085 C 
ATOM      6  C   UNL     1       7.552   2.554  -2.196  0.00  0.00    +0.105 C 
ENDROOT
BRANCH   3   7
ATOM      7  C   UNL     1       8.933   4.019   0.642  0.00  0.00    -0.012 A 
ATOM      8  C   UNL     1       9.960   4.202   1.548  0.00  0.00    +0.115 A 
ATOM      9  N   UNL     1       9.710   4.600   2.781  0.00  0.00    -0.263 NA
ATOM     10  C   UNL     1       8.482   4.837   3.196  0.00  0.00    +0.111 A 
ATOM     11  C   UNL     1       7.403   4.677   2.346  0.00  0.00    +0.020 A 
ATOM     12  C   UNL     1       7.628   4.265   1.042  0.00  0.00    +0.008 A 
ENDBRANCH   3   7
TORSDOF 1
ENDMDL
MODEL 7
REMARK VINA RESULT:    -2.257      1.252      4.393
REMARK INTER + INTRA:          -2.604
REMARK INTER:                  -2.385
REMARK INTRA:                  -0.219
REMARK UNBOUND:                -0.216
REMARK  Name = Nicotine.pdb
REMARK  2 active torsions:
REMARK  status: ('A' for Active; 'I' for Inactive)
REMARK    1  A    between atoms: C_3  and  C_6
REMARK    2  A    between atoms: N_4  and  C_12
REMARK                            x       y       z     vdW  Elec       q    Type
REMARK                         _______ _______ _______ _____ _____    ______ ____
ROOT
ATOM      1  C   UNL     1       7.085   3.708   1.088  0.00  0.00    +0.017 C 
ATOM      2  C   UNL     1       7.217   4.873   2.105  0.00  0.00    +0.025 C 
ATOM      3  C   UNL     1       8.743   5.093   2.184  0.00  0.00    +0.088 C 
ATOM      4  N   UNL     1       9.389   3.843   1.745  0.00  0.00    -0.298 NA
ATOM      5  C   UNL     1       8.335   2.856   1.424  0.00  0.00    +0.085 C 
ATOM      6  C   UNL     1      10.260   4.078   0.587  0.00  0.00    +0.105 C 
ENDROOT
BRANCH   3   7
ATOM      7  C   UNL     1       9.143   5.408   3.602  0.00  0.00    -0.012 A 
ATOM      8  C   UNL     1      10.243   4.795   4.170  0.00  0.00    +0.115 A 
ATOM      9  N   UNL     1      10.600   5.065   5.411  0.00  0.00    -0.263 NA
ATOM     10  C   UNL     1       9.928   5.922   6.155  0.00  0.00    +0.111 A 
ATOM     11  C   UNL     1       8.817   6.574   5.654  0.00  0.00    +0.020 A 
ATOM     12  C   UNL     1       8.415   6.319   4.352  0.00  0.00    +0.008 A 
ENDBRANCH   3   7
TORSDOF 1
ENDMDL
MODEL 8
REMARK VINA RESULT:    -2.065      1.776      2.779
REMARK INTER + INTRA:          -2.401
REMARK INTER:                  -2.173
REMARK INTRA:                  -0.228
REMARK UNBOUND:                -0.216
REMARK  Name = Nicotine.pdb
REMARK  2 active torsions:
REMARK  status: ('A' for Active; 'I' for Inactive)
REMARK    1  A    between atoms: C_3  and  C_6
REMARK    2  A    between atoms: N_4  and  C_12
REMARK                            x       y       z     vdW  Elec       q    Type
REMARK                         _______ _______ _______ _____ _____    ______ ____
ROOT
ATOM      1  C   UNL     1       7.014   4.060   2.682  0.00  0.00    +0.017 C 
ATOM      2  C   UNL     1       7.402   3.404   1.330  0.00  0.00    +0.025 C 
ATOM      3  C   UNL     1       8.924   3.648   1.251  0.00  0.00    +0.088 C 
ATOM      4  N   UNL     1       9.230   4.793   2.128  0.00  0.00    -0.298 NA
ATOM      5  C   UNL     1       7.967   5.281   2.722  0.00  0.00    +0.085 C 
ATOM      6  C   UNL     1      10.192   4.415   3.170  0.00  0.00    +0.105 C 
ENDROOT
BRANCH   3   7
ATOM      7  C   UNL     1       9.319   3.967  -0.168  0.00  0.00    -0.012 A 
ATOM      8  C   UNL     1      10.598   4.403  -0.456  0.00  0.00    +0.115 A 
ATOM      9  N   UNL     1      10.952   4.684  -1.695  0.00  0.00    -0.263 NA
ATOM     10  C   UNL     1      10.108   4.564  -2.701  0.00  0.00    +0.111 A 
ATOM     11  C   UNL     1       8.811   4.134  -2.490  0.00  0.00    +0.020 A 
ATOM     12  C   UNL     1       8.405   3.823  -1.201  0.00  0.00    +0.008 A 
ENDBRANCH   3   7
TORSDOF 1
ENDMDL
MODEL 9
REMARK VINA RESULT:    -1.938      1.679      4.877
REMARK INTER + INTRA:          -2.267
REMARK INTER:                  -2.052
REMARK INTRA:                  -0.216
REMARK UNBOUND:                -0.216
REMARK  Name = Nicotine.pdb
REMARK  2 active torsions:
REMARK  status: ('A' for Active; 'I' for Inactive)
REMARK    1  A    between atoms: C_3  and  C_6
REMARK    2  A    between atoms: N_4  and  C_12
REMARK                            x       y       z     vdW  Elec       q    Type
REMARK                         _______ _______ _______ _____ _____    ______ ____
ROOT
ATOM      1  C   UNL     1       6.675   3.021  -1.773  0.00  0.00    +0.017 C 
ATOM      2  C   UNL     1       6.786   3.815  -0.445  0.00  0.00    +0.025 C 
ATOM      3  C   UNL     1       8.178   4.474  -0.549  0.00  0.00    +0.088 C 
ATOM      4  N   UNL     1       8.967   3.679  -1.508  0.00  0.00    -0.298 NA
ATOM      5  C   UNL     1       8.136   2.549  -1.978  0.00  0.00    +0.085 C 
ATOM      6  C   UNL     1       9.418   4.507  -2.634  0.00  0.00    +0.105 C 
ENDROOT
BRANCH   3   7
ATOM      7  C   UNL     1       8.851   4.468   0.799  0.00  0.00    -0.012 A 
ATOM      8  C   UNL     1      10.222   4.322   0.896  0.00  0.00    +0.115 A 
ATOM      9  N   UNL     1      10.818   4.316   2.072  0.00  0.00    -0.263 NA
ATOM     10  C   UNL     1      10.139   4.446   3.195  0.00  0.00    +0.111 A 
ATOM     11  C   UNL     1       8.764   4.596   3.177  0.00  0.00    +0.020 A 
ATOM     12  C   UNL     1       8.103   4.613   1.958  0.00  0.00    +0.008 A 
ENDBRANCH   3   7
TORSDOF 1
ENDMDL
