MODEL 1
REMARK VINA RESULT:    24.782      0.000      0.000
REMARK INTER + INTRA:          25.994
REMARK INTER:                  26.231
REMARK INTRA:                  -0.236
REMARK UNBOUND:                -0.236
REMARK  Name = Nicotine.pdb
REMARK  2 active torsions:
REMARK  status: ('A' for Active; 'I' for Inactive)
REMARK    1  A    between atoms: C_3  and  C_6
REMARK    2  A    between atoms: N_4  and  C_12
REMARK                            x       y       z     vdW  Elec       q    Type
REMARK                         _______ _______ _______ _____ _____    ______ ____
ROOT
ATOM      1  C   UNL     1       8.856  -3.720   2.794  0.00  0.00    +0.017 C 
ATOM      2  C   UNL     1       9.960  -2.656   2.562  0.00  0.00    +0.025 C 
ATOM      3  C   UNL     1      10.254  -2.144   3.989  0.00  0.00    +0.088 C 
ATOM      4  N   UNL     1       9.068  -2.441   4.812  0.00  0.00    -0.298 NA
ATOM      5  C   UNL     1       8.050  -3.087   3.957  0.00  0.00    +0.085 C 
ATOM      6  C   UNL     1       9.419  -3.298   5.952  0.00  0.00    +0.105 C 
ENDROOT
BRANCH   3   7
ATOM      7  C   UNL     1      10.501  -0.658   3.959  0.00  0.00    -0.012 A 
ATOM      8  C   UNL     1      10.737   0.035   5.132  0.00  0.00    +0.115 A 
ATOM      9  N   UNL     1      10.954   1.336   5.115  0.00  0.00    -0.263 NA
ATOM     10  C   UNL     1      10.954   2.024   3.990  0.00  0.00    +0.111 A 
ATOM     11  C   UNL     1      10.725   1.399   2.778  0.00  0.00    +0.020 A 
ATOM     12  C   UNL     1      10.499   0.031   2.756  0.00  0.00    +0.008 A 
ENDBRANCH   3   7
TORSDOF 1
ENDMDL
MODEL 2
REMARK VINA RESULT:    27.270      1.251      4.453
REMARK INTER + INTRA:          28.628
REMARK INTER:                  28.843
REMARK INTRA:                  -0.215
REMARK UNBOUND:                -0.236
REMARK  Name = Nicotine.pdb
REMARK  2 active torsions:
REMARK  status: ('A' for Active; 'I' for Inactive)
REMARK    1  A    between atoms: C_3  and  C_6
REMARK    2  A    between atoms: N_4  and  C_12
REMARK                            x       y       z     vdW  Elec       q    Type
REMARK                         _______ _______ _______ _____ _____    ______ ____
ROOT
ATOM      1  C   UNL     1      10.901   0.299   5.886  0.00  0.00    +0.017 C 
ATOM      2  C   UNL     1      10.948  -1.164   5.371  0.00  0.00    +0.025 C 
ATOM      3  C   UNL     1      10.775  -1.001   3.846  0.00  0.00    +0.088 C 
ATOM      4  N   UNL     1      10.123   0.301   3.617  0.00  0.00    -0.298 NA
ATOM      5  C   UNL     1       9.864   0.935   4.927  0.00  0.00    +0.085 C 
ATOM      6  C   UNL     1      10.954   1.165   2.769  0.00  0.00    +0.105 C 
ENDROOT
BRANCH   3   7
ATOM      7  C   UNL     1       9.910  -2.111   3.307  0.00  0.00    -0.012 A 
ATOM      8  C   UNL     1       8.980  -2.730   4.120  0.00  0.00    +0.115 A 
ATOM      9  N   UNL     1       8.220  -3.703   3.656  0.00  0.00    -0.263 NA
ATOM     10  C   UNL     1       8.313  -4.121   2.409  0.00  0.00    +0.111 A 
ATOM     11  C   UNL     1       9.220  -3.548   1.537  0.00  0.00    +0.020 A 
ATOM     12  C   UNL     1      10.033  -2.520   1.988  0.00  0.00    +0.008 A 
ENDBRANCH   3   7
TORSDOF 1
ENDMDL
