MODEL 1
REMARK VINA RESULT:     1.562      0.000      0.000
REMARK INTER + INTRA:           1.444
REMARK INTER:                   1.654
REMARK INTRA:                  -0.209
REMARK UNBOUND:                -0.209
REMARK  Name = Nicotine.pdb
REMARK  2 active torsions:
REMARK  status: ('A' for Active; 'I' for Inactive)
REMARK    1  A    between atoms: C_3  and  C_6
REMARK    2  A    between atoms: N_4  and  C_12
REMARK                            x       y       z     vdW  Elec       q    Type
REMARK                         _______ _______ _______ _____ _____    ______ ____
ROOT
ATOM      1  C   UNL     1      10.705   0.938  -4.049  0.00  0.00    +0.017 C 
ATOM      2  C   UNL     1      10.954  -0.565  -4.338  0.00  0.00    +0.025 C 
ATOM      3  C   UNL     1      10.897  -0.636  -5.879  0.00  0.00    +0.088 C 
ATOM      4  N   UNL     1      10.131   0.534  -6.342  0.00  0.00    -0.298 NA
ATOM      5  C   UNL     1       9.692   1.308  -5.161  0.00  0.00    +0.085 C 
ATOM      6  C   UNL     1      10.935   1.366  -7.248  0.00  0.00    +0.105 C 
ENDROOT
BRANCH   3   7
ATOM      7  C   UNL     1      10.208  -1.905  -6.309  0.00  0.00    -0.012 A 
ATOM      8  C   UNL     1       8.949  -1.859  -6.877  0.00  0.00    +0.115 A 
ATOM      9  N   UNL     1       8.339  -2.965  -7.256  0.00  0.00    -0.263 NA
ATOM     10  C   UNL     1       8.898  -4.150  -7.110  0.00  0.00    +0.111 A 
ATOM     11  C   UNL     1      10.156  -4.275  -6.550  0.00  0.00    +0.020 A 
ATOM     12  C   UNL     1      10.830  -3.133  -6.145  0.00  0.00    +0.008 A 
ENDBRANCH   3   7
TORSDOF 1
ENDMDL
MODEL 2
REMARK VINA RESULT:     1.749      1.205      4.476
REMARK INTER + INTRA:           1.642
REMARK INTER:                   1.849
REMARK INTRA:                  -0.207
REMARK UNBOUND:                -0.209
REMARK  Name = Nicotine.pdb
REMARK  2 active torsions:
REMARK  status: ('A' for Active; 'I' for Inactive)
REMARK    1  A    between atoms: C_3  and  C_6
REMARK    2  A    between atoms: N_4  and  C_12
REMARK                            x       y       z     vdW  Elec       q    Type
REMARK                         _______ _______ _______ _____ _____    ______ ____
ROOT
ATOM      1  C   UNL     1      10.806  -4.926  -5.838  0.00  0.00    +0.017 C 
ATOM      2  C   UNL     1      10.910  -3.568  -5.095  0.00  0.00    +0.025 C 
ATOM      3  C   UNL     1       9.755  -2.747  -5.708  0.00  0.00    +0.088 C 
ATOM      4  N   UNL     1       9.444  -3.343  -7.020  0.00  0.00    -0.298 NA
ATOM      5  C   UNL     1      10.367  -4.474  -7.254  0.00  0.00    +0.085 C 
ATOM      6  C   UNL     1       8.045  -3.784  -7.079  0.00  0.00    +0.105 C 
ENDROOT
BRANCH   3   7
ATOM      7  C   UNL     1      10.183  -1.313  -5.884  0.00  0.00    -0.012 A 
ATOM      8  C   UNL     1      10.267  -0.470  -4.792  0.00  0.00    +0.115 A 
ATOM      9  N   UNL     1      10.640   0.787  -4.937  0.00  0.00    -0.263 NA
ATOM     10  C   UNL     1      10.946   1.287  -6.118  0.00  0.00    +0.111 A 
ATOM     11  C   UNL     1      10.887   0.503  -7.255  0.00  0.00    +0.020 A 
ATOM     12  C   UNL     1      10.503  -0.824  -7.141  0.00  0.00    +0.008 A 
ENDBRANCH   3   7
TORSDOF 1
ENDMDL
