MODEL 1
REMARK VINA RESULT:    -2.483      0.000      0.000
REMARK INTER + INTRA:          -2.852
REMARK INTER:                  -2.628
REMARK INTRA:                  -0.224
REMARK UNBOUND:                -0.224
REMARK  Name = Nicotine.pdb
REMARK  2 active torsions:
REMARK  status: ('A' for Active; 'I' for Inactive)
REMARK    1  A    between atoms: C_3  and  C_6
REMARK    2  A    between atoms: N_4  and  C_12
REMARK                            x       y       z     vdW  Elec       q    Type
REMARK                         _______ _______ _______ _____ _____    ______ ____
ROOT
ATOM      1  C   UNL     1      10.028  -0.495  -6.917  0.00  0.00    +0.017 C 
ATOM      2  C   UNL     1      10.726   0.850  -7.253  0.00  0.00    +0.025 C 
ATOM      3  C   UNL     1      10.897   1.507  -5.867  0.00  0.00    +0.088 C 
ATOM      4  N   UNL     1       9.902   0.897  -4.968  0.00  0.00    -0.298 NA
ATOM      5  C   UNL     1       9.110  -0.085  -5.739  0.00  0.00    +0.085 C 
ATOM      6  C   UNL     1      10.553   0.261  -3.815  0.00  0.00    +0.105 C 
ENDROOT
BRANCH   3   7
ATOM      7  C   UNL     1      10.656   2.991  -5.970  0.00  0.00    -0.012 A 
ATOM      8  C   UNL     1      10.500   3.755  -4.829  0.00  0.00    +0.115 A 
ATOM      9  N   UNL     1      10.288   5.054  -4.910  0.00  0.00    -0.263 NA
ATOM     10  C   UNL     1      10.217   5.673  -6.072  0.00  0.00    +0.111 A 
ATOM     11  C   UNL     1      10.364   4.975  -7.256  0.00  0.00    +0.020 A 
ATOM     12  C   UNL     1      10.593   3.608  -7.210  0.00  0.00    +0.008 A 
ENDBRANCH   3   7
TORSDOF 1
ENDMDL
MODEL 2
REMARK VINA RESULT:    -2.451      2.124      5.412
REMARK INTER + INTRA:          -2.818
REMARK INTER:                  -2.597
REMARK INTRA:                  -0.221
REMARK UNBOUND:                -0.224
REMARK  Name = Nicotine.pdb
REMARK  2 active torsions:
REMARK  status: ('A' for Active; 'I' for Inactive)
REMARK    1  A    between atoms: C_3  and  C_6
REMARK    2  A    between atoms: N_4  and  C_12
REMARK                            x       y       z     vdW  Elec       q    Type
REMARK                         _______ _______ _______ _____ _____    ______ ____
ROOT
ATOM      1  C   UNL     1      10.507   1.748  -3.489  0.00  0.00    +0.017 C 
ATOM      2  C   UNL     1      10.953   0.297  -3.810  0.00  0.00    +0.025 C 
ATOM      3  C   UNL     1      10.953   0.267  -5.353  0.00  0.00    +0.088 C 
ATOM      4  N   UNL     1      10.058   1.345  -5.811  0.00  0.00    -0.298 NA
ATOM      5  C   UNL     1       9.489   2.020  -4.625  0.00  0.00    +0.085 C 
ATOM      6  C   UNL     1      10.777   2.298  -6.666  0.00  0.00    +0.105 C 
ENDROOT
BRANCH   3   7
ATOM      7  C   UNL     1      10.443  -1.065  -5.839  0.00  0.00    -0.012 A 
ATOM      8  C   UNL     1       9.474  -1.126  -6.823  0.00  0.00    +0.115 A 
ATOM      9  N   UNL     1       9.023  -2.288  -7.254  0.00  0.00    -0.263 NA
ATOM     10  C   UNL     1       9.472  -3.429  -6.770  0.00  0.00    +0.111 A 
ATOM     11  C   UNL     1      10.442  -3.447  -5.785  0.00  0.00    +0.020 A 
ATOM     12  C   UNL     1      10.944  -2.245  -5.310  0.00  0.00    +0.008 A 
ENDBRANCH   3   7
TORSDOF 1
ENDMDL
MODEL 3
REMARK VINA RESULT:    -2.293      1.464      2.478
REMARK INTER + INTRA:          -2.650
REMARK INTER:                  -2.434
REMARK INTRA:                  -0.217
REMARK UNBOUND:                -0.224
REMARK  Name = Nicotine.pdb
REMARK  2 active torsions:
REMARK  status: ('A' for Active; 'I' for Inactive)
REMARK    1  A    between atoms: C_3  and  C_6
REMARK    2  A    between atoms: N_4  and  C_12
REMARK                            x       y       z     vdW  Elec       q    Type
REMARK                         _______ _______ _______ _____ _____    ______ ____
ROOT
ATOM      1  C   UNL     1      10.879  -1.566  -4.907  0.00  0.00    +0.017 C 
ATOM      2  C   UNL     1      10.675  -0.128  -4.360  0.00  0.00    +0.025 C 
ATOM      3  C   UNL     1       9.787   0.530  -5.437  0.00  0.00    +0.088 C 
ATOM      4  N   UNL     1       9.975  -0.233  -6.684  0.00  0.00    -0.298 NA
ATOM      5  C   UNL     1      10.954  -1.312  -6.433  0.00  0.00    +0.085 C 
ATOM      6  C   UNL     1       8.700  -0.780  -7.165  0.00  0.00    +0.105 C 
ENDROOT
BRANCH   3   7
ATOM      7  C   UNL     1      10.207   1.962  -5.642  0.00  0.00    -0.012 A 
ATOM      8  C   UNL     1      10.240   2.506  -6.912  0.00  0.00    +0.115 A 
ATOM      9  N   UNL     1      10.606   3.759  -7.101  0.00  0.00    -0.263 NA
ATOM     10  C   UNL     1      10.954   4.538  -6.096  0.00  0.00    +0.111 A 
ATOM     11  C   UNL     1      10.945   4.064  -4.797  0.00  0.00    +0.020 A 
ATOM     12  C   UNL     1      10.560   2.753  -4.560  0.00  0.00    +0.008 A 
ENDBRANCH   3   7
TORSDOF 1
ENDMDL
