MODEL 1
REMARK VINA RESULT:    -3.449      0.000      0.000
REMARK INTER + INTRA:          -3.899
REMARK INTER:                  -3.650
REMARK INTRA:                  -0.249
REMARK UNBOUND:                -0.249
REMARK  Name = Nicotine.pdb
REMARK  2 active torsions:
REMARK  status: ('A' for Active; 'I' for Inactive)
REMARK    1  A    between atoms: C_3  and  C_6
REMARK    2  A    between atoms: N_4  and  C_12
REMARK                            x       y       z     vdW  Elec       q    Type
REMARK                         _______ _______ _______ _____ _____    ______ ____
ROOT
ATOM      1  C   UNL     1       9.458  -0.824  -1.765  0.00  0.00    +0.017 C 
ATOM      2  C   UNL     1       8.262  -0.982  -2.741  0.00  0.00    +0.025 C 
ATOM      3  C   UNL     1       8.040  -2.509  -2.773  0.00  0.00    +0.088 C 
ATOM      4  N   UNL     1       9.304  -3.143  -2.357  0.00  0.00    -0.298 NA
ATOM      5  C   UNL     1      10.299  -2.082  -2.095  0.00  0.00    +0.085 C 
ATOM      6  C   UNL     1       9.106  -3.985  -1.170  0.00  0.00    +0.105 C 
ENDROOT
BRANCH   3   7
ATOM      7  C   UNL     1       7.682  -2.946  -4.170  0.00  0.00    -0.012 A 
ATOM      8  C   UNL     1       6.708  -3.905  -4.374  0.00  0.00    +0.115 A 
ATOM      9  N   UNL     1       6.388  -4.293  -5.593  0.00  0.00    -0.263 NA
ATOM     10  C   UNL     1       6.978  -3.787  -6.658  0.00  0.00    +0.111 A 
ATOM     11  C   UNL     1       7.961  -2.823  -6.532  0.00  0.00    +0.020 A 
ATOM     12  C   UNL     1       8.320  -2.387  -5.266  0.00  0.00    +0.008 A 
ENDBRANCH   3   7
TORSDOF 1
ENDMDL
MODEL 2
REMARK VINA RESULT:    -3.401      1.340      2.033
REMARK INTER + INTRA:          -3.849
REMARK INTER:                  -3.641
REMARK INTRA:                  -0.207
REMARK UNBOUND:                -0.249
REMARK  Name = Nicotine.pdb
REMARK  2 active torsions:
REMARK  status: ('A' for Active; 'I' for Inactive)
REMARK    1  A    between atoms: C_3  and  C_6
REMARK    2  A    between atoms: N_4  and  C_12
REMARK                            x       y       z     vdW  Elec       q    Type
REMARK                         _______ _______ _______ _____ _____    ______ ____
ROOT
ATOM      1  C   UNL     1       9.076  -1.657  -1.521  0.00  0.00    +0.017 C 
ATOM      2  C   UNL     1       8.939  -2.862  -2.489  0.00  0.00    +0.025 C 
ATOM      3  C   UNL     1       9.321  -2.255  -3.856  0.00  0.00    +0.088 C 
ATOM      4  N   UNL     1       9.110  -0.799  -3.761  0.00  0.00    -0.298 NA
ATOM      5  C   UNL     1       8.594  -0.484  -2.412  0.00  0.00    +0.085 C 
ATOM      6  C   UNL     1      10.354  -0.068  -4.033  0.00  0.00    +0.105 C 
ENDROOT
BRANCH   3   7
ATOM      7  C   UNL     1       8.443  -2.832  -4.936  0.00  0.00    -0.012 A 
ATOM      8  C   UNL     1       7.407  -3.687  -4.612  0.00  0.00    +0.115 A 
ATOM      9  N   UNL     1       6.634  -4.197  -5.552  0.00  0.00    -0.263 NA
ATOM     10  C   UNL     1       6.815  -3.915  -6.827  0.00  0.00    +0.111 A 
ATOM     11  C   UNL     1       7.831  -3.066  -7.226  0.00  0.00    +0.020 A 
ATOM     12  C   UNL     1       8.660  -2.507  -6.266  0.00  0.00    +0.008 A 
ENDBRANCH   3   7
TORSDOF 1
ENDMDL
MODEL 3
REMARK VINA RESULT:    -3.207      1.619      4.707
REMARK INTER + INTRA:          -3.643
REMARK INTER:                  -3.441
REMARK INTRA:                  -0.203
REMARK UNBOUND:                -0.249
REMARK  Name = Nicotine.pdb
REMARK  2 active torsions:
REMARK  status: ('A' for Active; 'I' for Inactive)
REMARK    1  A    between atoms: C_3  and  C_6
REMARK    2  A    between atoms: N_4  and  C_12
REMARK                            x       y       z     vdW  Elec       q    Type
REMARK                         _______ _______ _______ _____ _____    ______ ____
ROOT
ATOM      1  C   UNL     1       6.418  -2.388  -4.437  0.00  0.00    +0.017 C 
ATOM      2  C   UNL     1       7.320  -1.620  -3.436  0.00  0.00    +0.025 C 
ATOM      3  C   UNL     1       8.634  -2.430  -3.460  0.00  0.00    +0.088 C 
ATOM      4  N   UNL     1       8.303  -3.785  -3.937  0.00  0.00    -0.298 NA
ATOM      5  C   UNL     1       6.847  -3.855  -4.183  0.00  0.00    +0.085 C 
ATOM      6  C   UNL     1       9.059  -4.116  -5.152  0.00  0.00    +0.105 C 
ENDROOT
BRANCH   3   7
ATOM      7  C   UNL     1       9.218  -2.501  -2.073  0.00  0.00    -0.012 A 
ATOM      8  C   UNL     1       9.332  -1.359  -1.303  0.00  0.00    +0.115 A 
ATOM      9  N   UNL     1       9.842  -1.413  -0.088  0.00  0.00    -0.263 NA
ATOM     10  C   UNL     1      10.260  -2.547   0.438  0.00  0.00    +0.111 A 
ATOM     11  C   UNL     1      10.177  -3.730  -0.272  0.00  0.00    +0.020 A 
ATOM     12  C   UNL     1       9.642  -3.714  -1.550  0.00  0.00    +0.008 A 
ENDBRANCH   3   7
TORSDOF 1
ENDMDL
MODEL 4
REMARK VINA RESULT:    -3.087      1.385      4.490
REMARK INTER + INTRA:          -3.516
REMARK INTER:                  -3.318
REMARK INTRA:                  -0.198
REMARK UNBOUND:                -0.249
REMARK  Name = Nicotine.pdb
REMARK  2 active torsions:
REMARK  status: ('A' for Active; 'I' for Inactive)
REMARK    1  A    between atoms: C_3  and  C_6
REMARK    2  A    between atoms: N_4  and  C_12
REMARK                            x       y       z     vdW  Elec       q    Type
REMARK                         _______ _______ _______ _____ _____    ______ ____
ROOT
ATOM      1  C   UNL     1       8.833  -3.952  -6.240  0.00  0.00    +0.017 C 
ATOM      2  C   UNL     1       9.082  -4.205  -4.730  0.00  0.00    +0.025 C 
ATOM      3  C   UNL     1       7.960  -3.392  -4.052  0.00  0.00    +0.088 C 
ATOM      4  N   UNL     1       7.528  -2.359  -5.011  0.00  0.00    -0.298 NA
ATOM      5  C   UNL     1       8.348  -2.481  -6.235  0.00  0.00    +0.085 C 
ATOM      6  C   UNL     1       6.098  -2.489  -5.319  0.00  0.00    +0.105 C 
ENDROOT
BRANCH   3   7
ATOM      7  C   UNL     1       8.483  -2.742  -2.797  0.00  0.00    -0.012 A 
ATOM      8  C   UNL     1       8.505  -3.441  -1.605  0.00  0.00    +0.115 A 
ATOM      9  N   UNL     1       8.961  -2.880  -0.503  0.00  0.00    -0.263 NA
ATOM     10  C   UNL     1       9.412  -1.641  -0.491  0.00  0.00    +0.111 A 
ATOM     11  C   UNL     1       9.422  -0.881  -1.645  0.00  0.00    +0.020 A 
ATOM     12  C   UNL     1       8.954  -1.439  -2.825  0.00  0.00    +0.008 A 
ENDBRANCH   3   7
TORSDOF 1
ENDMDL
MODEL 5
REMARK VINA RESULT:    -3.005      2.210      5.113
REMARK INTER + INTRA:          -3.429
REMARK INTER:                  -3.210
REMARK INTRA:                  -0.220
REMARK UNBOUND:                -0.249
REMARK  Name = Nicotine.pdb
REMARK  2 active torsions:
REMARK  status: ('A' for Active; 'I' for Inactive)
REMARK    1  A    between atoms: C_3  and  C_6
REMARK    2  A    between atoms: N_4  and  C_12
REMARK                            x       y       z     vdW  Elec       q    Type
REMARK                         _______ _______ _______ _____ _____    ______ ____
ROOT
ATOM      1  C   UNL     1       7.700  -2.161  -4.063  0.00  0.00    +0.017 C 
ATOM      2  C   UNL     1       7.598  -2.380  -2.531  0.00  0.00    +0.025 C 
ATOM      3  C   UNL     1       8.784  -1.559  -1.983  0.00  0.00    +0.088 C 
ATOM      4  N   UNL     1       9.754  -1.406  -3.082  0.00  0.00    -0.298 NA
ATOM      5  C   UNL     1       9.234  -2.114  -4.271  0.00  0.00    +0.085 C 
ATOM      6  C   UNL     1       9.997   0.012  -3.378  0.00  0.00    +0.105 C 
ENDROOT
BRANCH   3   7
ATOM      7  C   UNL     1       9.424  -2.288  -0.831  0.00  0.00    -0.012 A 
ATOM      8  C   UNL     1       9.527  -1.685   0.408  0.00  0.00    +0.115 A 
ATOM      9  N   UNL     1      10.085  -2.316   1.423  0.00  0.00    -0.263 NA
ATOM     10  C   UNL     1      10.565  -3.538   1.298  0.00  0.00    +0.111 A 
ATOM     11  C   UNL     1      10.498  -4.205   0.090  0.00  0.00    +0.020 A 
ATOM     12  C   UNL     1       9.912  -3.575  -0.998  0.00  0.00    +0.008 A 
ENDBRANCH   3   7
TORSDOF 1
ENDMDL
MODEL 6
REMARK VINA RESULT:    -2.968      1.549      1.956
REMARK INTER + INTRA:          -3.390
REMARK INTER:                  -3.179
REMARK INTRA:                  -0.211
REMARK UNBOUND:                -0.249
REMARK  Name = Nicotine.pdb
REMARK  2 active torsions:
REMARK  status: ('A' for Active; 'I' for Inactive)
REMARK    1  A    between atoms: C_3  and  C_6
REMARK    2  A    between atoms: N_4  and  C_12
REMARK                            x       y       z     vdW  Elec       q    Type
REMARK                         _______ _______ _______ _____ _____    ______ ____
ROOT
ATOM      1  C   UNL     1      10.277  -2.568  -0.116  0.00  0.00    +0.017 C 
ATOM      2  C   UNL     1       9.102  -2.041  -0.980  0.00  0.00    +0.025 C 
ATOM      3  C   UNL     1       8.467  -3.337  -1.529  0.00  0.00    +0.088 C 
ATOM      4  N   UNL     1       9.499  -4.388  -1.471  0.00  0.00    -0.298 NA
ATOM      5  C   UNL     1      10.744  -3.796  -0.937  0.00  0.00    +0.085 C 
ATOM      6  C   UNL     1       9.055  -5.517  -0.644  0.00  0.00    +0.105 C 
ENDROOT
BRANCH   3   7
ATOM      7  C   UNL     1       8.027  -3.127  -2.955  0.00  0.00    -0.012 A 
ATOM      8  C   UNL     1       7.171  -2.091  -3.277  0.00  0.00    +0.115 A 
ATOM      9  N   UNL     1       6.781  -1.901  -4.522  0.00  0.00    -0.263 NA
ATOM     10  C   UNL     1       7.186  -2.683  -5.503  0.00  0.00    +0.111 A 
ATOM     11  C   UNL     1       8.042  -3.740  -5.257  0.00  0.00    +0.020 A 
ATOM     12  C   UNL     1       8.478  -3.968  -3.961  0.00  0.00    +0.008 A 
ENDBRANCH   3   7
TORSDOF 1
ENDMDL
MODEL 7
REMARK VINA RESULT:    -2.826      1.943      5.017
REMARK INTER + INTRA:          -3.240
REMARK INTER:                  -3.025
REMARK INTRA:                  -0.215
REMARK UNBOUND:                -0.249
REMARK  Name = Nicotine.pdb
REMARK  2 active torsions:
REMARK  status: ('A' for Active; 'I' for Inactive)
REMARK    1  A    between atoms: C_3  and  C_6
REMARK    2  A    between atoms: N_4  and  C_12
REMARK                            x       y       z     vdW  Elec       q    Type
REMARK                         _______ _______ _______ _____ _____    ______ ____
ROOT
ATOM      1  C   UNL     1       8.230  -0.805  -2.759  0.00  0.00    +0.017 C 
ATOM      2  C   UNL     1       9.431  -1.195  -1.858  0.00  0.00    +0.025 C 
ATOM      3  C   UNL     1       9.568  -2.713  -2.100  0.00  0.00    +0.088 C 
ATOM      4  N   UNL     1       8.264  -3.197  -2.587  0.00  0.00    -0.298 NA
ATOM      5  C   UNL     1       7.325  -2.056  -2.633  0.00  0.00    +0.085 C 
ATOM      6  C   UNL     1       8.395  -3.825  -3.909  0.00  0.00    +0.105 C 
ENDROOT
BRANCH   3   7
ATOM      7  C   UNL     1       9.925  -3.407  -0.811  0.00  0.00    -0.012 A 
ATOM      8  C   UNL     1       9.535  -4.715  -0.590  0.00  0.00    +0.115 A 
ATOM      9  N   UNL     1       9.843  -5.330   0.535  0.00  0.00    -0.263 NA
ATOM     10  C   UNL     1      10.529  -4.730   1.487  0.00  0.00    +0.111 A 
ATOM     11  C   UNL     1      10.954  -3.423   1.337  0.00  0.00    +0.020 A 
ATOM     12  C   UNL     1      10.653  -2.745   0.166  0.00  0.00    +0.008 A 
ENDBRANCH   3   7
TORSDOF 1
ENDMDL
MODEL 8
REMARK VINA RESULT:    -2.681      1.902      4.435
REMARK INTER + INTRA:          -3.087
REMARK INTER:                  -2.846
REMARK INTRA:                  -0.240
REMARK UNBOUND:                -0.249
REMARK  Name = Nicotine.pdb
REMARK  2 active torsions:
REMARK  status: ('A' for Active; 'I' for Inactive)
REMARK    1  A    between atoms: C_3  and  C_6
REMARK    2  A    between atoms: N_4  and  C_12
REMARK                            x       y       z     vdW  Elec       q    Type
REMARK                         _______ _______ _______ _____ _____    ______ ____
ROOT
ATOM      1  C   UNL     1       7.620  -4.191  -6.573  0.00  0.00    +0.017 C 
ATOM      2  C   UNL     1       8.793  -3.660  -5.707  0.00  0.00    +0.025 C 
ATOM      3  C   UNL     1       8.072  -3.018  -4.503  0.00  0.00    +0.088 C 
ATOM      4  N   UNL     1       6.698  -2.703  -4.934  0.00  0.00    -0.298 NA
ATOM      5  C   UNL     1       6.547  -3.097  -6.350  0.00  0.00    +0.085 C 
ATOM      6  C   UNL     1       5.711  -3.387  -4.088  0.00  0.00    +0.105 C 
ENDROOT
BRANCH   3   7
ATOM      7  C   UNL     1       8.784  -1.755  -4.093  0.00  0.00    -0.012 A 
ATOM      8  C   UNL     1       8.319  -1.003  -3.031  0.00  0.00    +0.115 A 
ATOM      9  N   UNL     1       8.936   0.104  -2.666  0.00  0.00    -0.263 NA
ATOM     10  C   UNL     1      10.013   0.535  -3.292  0.00  0.00    +0.111 A 
ATOM     11  C   UNL     1      10.537  -0.164  -4.363  0.00  0.00    +0.020 A 
ATOM     12  C   UNL     1       9.918  -1.335  -4.772  0.00  0.00    +0.008 A 
ENDBRANCH   3   7
TORSDOF 1
ENDMDL
MODEL 9
REMARK VINA RESULT:    -0.559      1.771      4.850
REMARK INTER + INTRA:          -0.840
REMARK INTER:                  -0.625
REMARK INTRA:                  -0.215
REMARK UNBOUND:                -0.249
REMARK  Name = Nicotine.pdb
REMARK  2 active torsions:
REMARK  status: ('A' for Active; 'I' for Inactive)
REMARK    1  A    between atoms: C_3  and  C_6
REMARK    2  A    between atoms: N_4  and  C_12
REMARK                            x       y       z     vdW  Elec       q    Type
REMARK                         _______ _______ _______ _____ _____    ______ ____
ROOT
ATOM      1  C   UNL     1       7.872  -2.755  -4.964  0.00  0.00    +0.017 C 
ATOM      2  C   UNL     1       9.154  -2.532  -4.118  0.00  0.00    +0.025 C 
ATOM      3  C   UNL     1       9.046  -3.621  -3.030  0.00  0.00    +0.088 C 
ATOM      4  N   UNL     1       7.623  -3.994  -2.925  0.00  0.00    -0.298 NA
ATOM      5  C   UNL     1       6.849  -3.170  -3.877  0.00  0.00    +0.085 C 
ATOM      6  C   UNL     1       7.433  -5.425  -3.191  0.00  0.00    +0.105 C 
ENDROOT
BRANCH   3   7
ATOM      7  C   UNL     1       9.533  -3.079  -1.712  0.00  0.00    -0.012 A 
ATOM      8  C   UNL     1       9.451  -1.726  -1.438  0.00  0.00    +0.115 A 
ATOM      9  N   UNL     1       9.876  -1.243  -0.287  0.00  0.00    -0.263 NA
ATOM     10  C   UNL     1      10.392  -2.022   0.643  0.00  0.00    +0.111 A 
ATOM     11  C   UNL     1      10.506  -3.385   0.441  0.00  0.00    +0.020 A 
ATOM     12  C   UNL     1      10.065  -3.930  -0.755  0.00  0.00    +0.008 A 
ENDBRANCH   3   7
TORSDOF 1
ENDMDL
