MODEL 1
REMARK VINA RESULT:    -1.545      0.000      0.000
REMARK INTER + INTRA:          -1.859
REMARK INTER:                  -1.636
REMARK INTRA:                  -0.223
REMARK UNBOUND:                -0.223
REMARK  Name = Nicotine.pdb
REMARK  2 active torsions:
REMARK  status: ('A' for Active; 'I' for Inactive)
REMARK    1  A    between atoms: C_3  and  C_6
REMARK    2  A    between atoms: N_4  and  C_12
REMARK                            x       y       z     vdW  Elec       q    Type
REMARK                         _______ _______ _______ _____ _____    ______ ____
ROOT
ATOM      1  C   UNL     1      -1.428   5.892   3.034  0.00  0.00    +0.017 C 
ATOM      2  C   UNL     1      -2.784   6.181   2.337  0.00  0.00    +0.025 C 
ATOM      3  C   UNL     1      -2.779   5.199   1.146  0.00  0.00    +0.088 C 
ATOM      4  N   UNL     1      -1.373   4.850   0.873  0.00  0.00    -0.298 NA
ATOM      5  C   UNL     1      -0.512   5.589   1.822  0.00  0.00    +0.085 C 
ATOM      6  C   UNL     1      -1.158   3.402   0.985  0.00  0.00    +0.105 C 
ENDROOT
BRANCH   3   7
ATOM      7  C   UNL     1      -3.389   5.858  -0.064  0.00  0.00    -0.012 A 
ATOM      8  C   UNL     1      -2.698   5.899  -1.260  0.00  0.00    +0.115 A 
ATOM      9  N   UNL     1      -3.225   6.473  -2.324  0.00  0.00    -0.263 NA
ATOM     10  C   UNL     1      -4.421   7.028  -2.292  0.00  0.00    +0.111 A 
ATOM     11  C   UNL     1      -5.171   7.025  -1.131  0.00  0.00    +0.020 A 
ATOM     12  C   UNL     1      -4.652   6.426   0.007  0.00  0.00    +0.008 A 
ENDBRANCH   3   7
TORSDOF 1
ENDMDL
MODEL 2
REMARK VINA RESULT:    -1.128      1.667      4.346
REMARK INTER + INTRA:          -1.418
REMARK INTER:                  -1.226
REMARK INTRA:                  -0.192
REMARK UNBOUND:                -0.223
REMARK  Name = Nicotine.pdb
REMARK  2 active torsions:
REMARK  status: ('A' for Active; 'I' for Inactive)
REMARK    1  A    between atoms: C_3  and  C_6
REMARK    2  A    between atoms: N_4  and  C_12
REMARK                            x       y       z     vdW  Elec       q    Type
REMARK                         _______ _______ _______ _____ _____    ______ ____
ROOT
ATOM      1  C   UNL     1      -4.720   6.688  -1.272  0.00  0.00    +0.017 C 
ATOM      2  C   UNL     1      -3.220   6.313  -1.149  0.00  0.00    +0.025 C 
ATOM      3  C   UNL     1      -3.159   5.559   0.196  0.00  0.00    +0.088 C 
ATOM      4  N   UNL     1      -4.330   5.981   0.987  0.00  0.00    -0.298 NA
ATOM      5  C   UNL     1      -5.093   6.976   0.204  0.00  0.00    +0.085 C 
ATOM      6  C   UNL     1      -5.171   4.830   1.339  0.00  0.00    +0.105 C 
ENDROOT
BRANCH   3   7
ATOM      7  C   UNL     1      -1.890   5.915   0.927  0.00  0.00    -0.012 A 
ATOM      8  C   UNL     1      -0.902   6.646   0.296  0.00  0.00    +0.115 A 
ATOM      9  N   UNL     1       0.211   6.962   0.928  0.00  0.00    -0.263 NA
ATOM     10  C   UNL     1       0.427   6.596   2.176  0.00  0.00    +0.111 A 
ATOM     11  C   UNL     1      -0.516   5.864   2.872  0.00  0.00    +0.020 A 
ATOM     12  C   UNL     1      -1.701   5.518   2.242  0.00  0.00    +0.008 A 
ENDBRANCH   3   7
TORSDOF 1
ENDMDL
MODEL 3
REMARK VINA RESULT:    -0.557      0.934      1.435
REMARK INTER + INTRA:          -0.813
REMARK INTER:                  -0.614
REMARK INTRA:                  -0.199
REMARK UNBOUND:                -0.223
REMARK  Name = Nicotine.pdb
REMARK  2 active torsions:
REMARK  status: ('A' for Active; 'I' for Inactive)
REMARK    1  A    between atoms: C_3  and  C_6
REMARK    2  A    between atoms: N_4  and  C_12
REMARK                            x       y       z     vdW  Elec       q    Type
REMARK                         _______ _______ _______ _____ _____    ______ ____
ROOT
ATOM      1  C   UNL     1      -1.227   5.969   3.299  0.00  0.00    +0.017 C 
ATOM      2  C   UNL     1      -2.630   6.063   2.643  0.00  0.00    +0.025 C 
ATOM      3  C   UNL     1      -2.473   5.212   1.365  0.00  0.00    +0.088 C 
ATOM      4  N   UNL     1      -1.034   5.157   1.050  0.00  0.00    -0.298 NA
ATOM      5  C   UNL     1      -0.301   5.954   2.057  0.00  0.00    +0.085 C 
ATOM      6  C   UNL     1      -0.553   3.770   1.024  0.00  0.00    +0.105 C 
ENDROOT
BRANCH   3   7
ATOM      7  C   UNL     1      -3.224   5.853   0.227  0.00  0.00    -0.012 A 
ATOM      8  C   UNL     1      -4.506   6.334   0.418  0.00  0.00    +0.115 A 
ATOM      9  N   UNL     1      -5.170   6.896  -0.573  0.00  0.00    -0.263 NA
ATOM     10  C   UNL     1      -4.646   7.022  -1.776  0.00  0.00    +0.111 A 
ATOM     11  C   UNL     1      -3.368   6.564  -2.042  0.00  0.00    +0.020 A 
ATOM     12  C   UNL     1      -2.637   5.972  -1.024  0.00  0.00    +0.008 A 
ENDBRANCH   3   7
TORSDOF 1
ENDMDL
MODEL 4
REMARK VINA RESULT:     0.805     10.243     11.252
REMARK INTER + INTRA:           0.628
REMARK INTER:                   0.801
REMARK INTRA:                  -0.172
REMARK UNBOUND:                -0.223
REMARK  Name = Nicotine.pdb
REMARK  2 active torsions:
REMARK  status: ('A' for Active; 'I' for Inactive)
REMARK    1  A    between atoms: C_3  and  C_6
REMARK    2  A    between atoms: N_4  and  C_12
REMARK                            x       y       z     vdW  Elec       q    Type
REMARK                         _______ _______ _______ _____ _____    ______ ____
ROOT
ATOM      1  C   UNL     1      -1.327  -5.709  -0.541  0.00  0.00    +0.017 C 
ATOM      2  C   UNL     1      -2.723  -5.760  -1.215  0.00  0.00    +0.025 C 
ATOM      3  C   UNL     1      -2.383  -5.743  -2.721  0.00  0.00    +0.088 C 
ATOM      4  N   UNL     1      -1.036  -5.159  -2.858  0.00  0.00    -0.298 NA
ATOM      5  C   UNL     1      -0.543  -4.792  -1.513  0.00  0.00    +0.085 C 
ATOM      6  C   UNL     1      -0.119  -6.096  -3.518  0.00  0.00    +0.105 C 
ENDROOT
BRANCH   3   7
ATOM      7  C   UNL     1      -3.387  -4.901  -3.464  0.00  0.00    -0.012 A 
ATOM      8  C   UNL     1      -3.449  -3.537  -3.252  0.00  0.00    +0.115 A 
ATOM      9  N   UNL     1      -4.325  -2.793  -3.899  0.00  0.00    -0.263 NA
ATOM     10  C   UNL     1      -5.170  -3.314  -4.766  0.00  0.00    +0.111 A 
ATOM     11  C   UNL     1      -5.167  -4.671  -5.030  0.00  0.00    +0.020 A 
ATOM     12  C   UNL     1      -4.257  -5.484  -4.373  0.00  0.00    +0.008 A 
ENDBRANCH   3   7
TORSDOF 1
ENDMDL
MODEL 5
REMARK VINA RESULT:     1.315      1.189      1.851
REMARK INTER + INTRA:           1.169
REMARK INTER:                   1.393
REMARK INTRA:                  -0.224
REMARK UNBOUND:                -0.223
REMARK  Name = Nicotine.pdb
REMARK  2 active torsions:
REMARK  status: ('A' for Active; 'I' for Inactive)
REMARK    1  A    between atoms: C_3  and  C_6
REMARK    2  A    between atoms: N_4  and  C_12
REMARK                            x       y       z     vdW  Elec       q    Type
REMARK                         _______ _______ _______ _____ _____    ______ ____
ROOT
ATOM      1  C   UNL     1      -0.533   4.350   2.157  0.00  0.00    +0.017 C 
ATOM      2  C   UNL     1      -1.591   4.242   1.028  0.00  0.00    +0.025 C 
ATOM      3  C   UNL     1      -1.422   5.574   0.266  0.00  0.00    +0.088 C 
ATOM      4  N   UNL     1      -0.791   6.531   1.192  0.00  0.00    -0.298 NA
ATOM      5  C   UNL     1      -0.587   5.861   2.495  0.00  0.00    +0.085 C 
ATOM      6  C   UNL     1       0.481   7.028   0.652  0.00  0.00    +0.105 C 
ENDROOT
BRANCH   3   7
ATOM      7  C   UNL     1      -2.768   6.091  -0.169  0.00  0.00    -0.012 A 
ATOM      8  C   UNL     1      -3.012   6.375  -1.500  0.00  0.00    +0.115 A 
ATOM      9  N   UNL     1      -4.188   6.828  -1.888  0.00  0.00    -0.263 NA
ATOM     10  C   UNL     1      -5.171   7.028  -1.033  0.00  0.00    +0.111 A 
ATOM     11  C   UNL     1      -5.001   6.766   0.314  0.00  0.00    +0.020 A 
ATOM     12  C   UNL     1      -3.780   6.283   0.759  0.00  0.00    +0.008 A 
ENDBRANCH   3   7
TORSDOF 1
ENDMDL
