MODEL 1
REMARK VINA RESULT:    -3.810      0.000      0.000
REMARK INTER + INTRA:          -4.250
REMARK INTER:                  -4.032
REMARK INTRA:                  -0.218
REMARK UNBOUND:                -0.218
REMARK  Name = Nicotine.pdb
REMARK  2 active torsions:
REMARK  status: ('A' for Active; 'I' for Inactive)
REMARK    1  A    between atoms: C_3  and  C_6
REMARK    2  A    between atoms: N_4  and  C_12
REMARK                            x       y       z     vdW  Elec       q    Type
REMARK                         _______ _______ _______ _____ _____    ______ ____
ROOT
ATOM      1  C   UNL     1       5.393  -0.170   1.122  0.00  0.00    +0.017 C 
ATOM      2  C   UNL     1       5.332  -1.026   2.414  0.00  0.00    +0.025 C 
ATOM      3  C   UNL     1       6.418  -2.096   2.173  0.00  0.00    +0.088 C 
ATOM      4  N   UNL     1       6.627  -2.186   0.717  0.00  0.00    -0.298 NA
ATOM      5  C   UNL     1       5.705  -1.243   0.049  0.00  0.00    +0.085 C 
ATOM      6  C   UNL     1       8.023  -1.895   0.366  0.00  0.00    +0.105 C 
ENDROOT
BRANCH   3   7
ATOM      7  C   UNL     1       5.957  -3.426   2.709  0.00  0.00    -0.012 A 
ATOM      8  C   UNL     1       6.164  -4.583   1.982  0.00  0.00    +0.115 A 
ATOM      9  N   UNL     1       5.763  -5.751   2.445  0.00  0.00    -0.263 NA
ATOM     10  C   UNL     1       5.153  -5.864   3.608  0.00  0.00    +0.111 A 
ATOM     11  C   UNL     1       4.911  -4.751   4.391  0.00  0.00    +0.020 A 
ATOM     12  C   UNL     1       5.323  -3.506   3.940  0.00  0.00    +0.008 A 
ENDBRANCH   3   7
TORSDOF 1
ENDMDL
MODEL 2
REMARK VINA RESULT:    -3.768      1.295      1.536
REMARK INTER + INTRA:          -4.206
REMARK INTER:                  -3.981
REMARK INTRA:                  -0.225
REMARK UNBOUND:                -0.218
REMARK  Name = Nicotine.pdb
REMARK  2 active torsions:
REMARK  status: ('A' for Active; 'I' for Inactive)
REMARK    1  A    between atoms: C_3  and  C_6
REMARK    2  A    between atoms: N_4  and  C_12
REMARK                            x       y       z     vdW  Elec       q    Type
REMARK                         _______ _______ _______ _____ _____    ______ ____
ROOT
ATOM      1  C   UNL     1       6.236  -1.108  -0.422  0.00  0.00    +0.017 C 
ATOM      2  C   UNL     1       6.472  -1.455   1.072  0.00  0.00    +0.025 C 
ATOM      3  C   UNL     1       6.707  -2.980   1.041  0.00  0.00    +0.088 C 
ATOM      4  N   UNL     1       6.093  -3.492  -0.197  0.00  0.00    -0.298 NA
ATOM      5  C   UNL     1       5.470  -2.361  -0.916  0.00  0.00    +0.085 C 
ATOM      6  C   UNL     1       7.088  -4.168  -1.039  0.00  0.00    +0.105 C 
ENDROOT
BRANCH   3   7
ATOM      7  C   UNL     1       6.060  -3.623   2.240  0.00  0.00    -0.012 A 
ATOM      8  C   UNL     1       5.942  -4.998   2.318  0.00  0.00    +0.115 A 
ATOM      9  N   UNL     1       5.376  -5.569   3.364  0.00  0.00    -0.263 NA
ATOM     10  C   UNL     1       4.904  -4.859   4.369  0.00  0.00    +0.111 A 
ATOM     11  C   UNL     1       4.987  -3.479   4.362  0.00  0.00    +0.020 A 
ATOM     12  C   UNL     1       5.580  -2.844   3.282  0.00  0.00    +0.008 A 
ENDBRANCH   3   7
TORSDOF 1
ENDMDL
MODEL 3
REMARK VINA RESULT:    -3.687      1.636      2.077
REMARK INTER + INTRA:          -4.120
REMARK INTER:                  -3.935
REMARK INTRA:                  -0.185
REMARK UNBOUND:                -0.218
REMARK  Name = Nicotine.pdb
REMARK  2 active torsions:
REMARK  status: ('A' for Active; 'I' for Inactive)
REMARK    1  A    between atoms: C_3  and  C_6
REMARK    2  A    between atoms: N_4  and  C_12
REMARK                            x       y       z     vdW  Elec       q    Type
REMARK                         _______ _______ _______ _____ _____    ______ ____
ROOT
ATOM      1  C   UNL     1       6.090  -1.276  -0.755  0.00  0.00    +0.017 C 
ATOM      2  C   UNL     1       6.271  -1.363   0.783  0.00  0.00    +0.025 C 
ATOM      3  C   UNL     1       6.680  -2.835   1.001  0.00  0.00    +0.088 C 
ATOM      4  N   UNL     1       6.207  -3.598  -0.168  0.00  0.00    -0.298 NA
ATOM      5  C   UNL     1       5.504  -2.672  -1.081  0.00  0.00    +0.085 C 
ATOM      6  C   UNL     1       7.323  -4.266  -0.849  0.00  0.00    +0.105 C 
ENDROOT
BRANCH   3   7
ATOM      7  C   UNL     1       6.037  -3.365   2.256  0.00  0.00    -0.012 A 
ATOM      8  C   UNL     1       5.572  -2.496   3.224  0.00  0.00    +0.115 A 
ATOM      9  N   UNL     1       5.007  -2.951   4.326  0.00  0.00    -0.263 NA
ATOM     10  C   UNL     1       4.865  -4.243   4.548  0.00  0.00    +0.111 A 
ATOM     11  C   UNL     1       5.306  -5.173   3.625  0.00  0.00    +0.020 A 
ATOM     12  C   UNL     1       5.899  -4.731   2.453  0.00  0.00    +0.008 A 
ENDBRANCH   3   7
TORSDOF 1
ENDMDL
MODEL 4
REMARK VINA RESULT:    -3.589      1.828      3.662
REMARK INTER + INTRA:          -4.017
REMARK INTER:                  -3.808
REMARK INTRA:                  -0.209
REMARK UNBOUND:                -0.218
REMARK  Name = Nicotine.pdb
REMARK  2 active torsions:
REMARK  status: ('A' for Active; 'I' for Inactive)
REMARK    1  A    between atoms: C_3  and  C_6
REMARK    2  A    between atoms: N_4  and  C_12
REMARK                            x       y       z     vdW  Elec       q    Type
REMARK                         _______ _______ _______ _____ _____    ______ ____
ROOT
ATOM      1  C   UNL     1       4.736  -2.114   4.751  0.00  0.00    +0.017 C 
ATOM      2  C   UNL     1       5.308  -3.091   3.691  0.00  0.00    +0.025 C 
ATOM      3  C   UNL     1       6.264  -2.197   2.873  0.00  0.00    +0.088 C 
ATOM      4  N   UNL     1       5.828  -0.802   3.066  0.00  0.00    -0.298 NA
ATOM      5  C   UNL     1       4.636  -0.797   3.941  0.00  0.00    +0.085 C 
ATOM      6  C   UNL     1       6.907   0.013   3.640  0.00  0.00    +0.105 C 
ENDROOT
BRANCH   3   7
ATOM      7  C   UNL     1       6.186  -2.562   1.413  0.00  0.00    -0.012 A 
ATOM      8  C   UNL     1       6.376  -3.870   1.010  0.00  0.00    +0.115 A 
ATOM      9  N   UNL     1       6.309  -4.199  -0.266  0.00  0.00    -0.263 NA
ATOM     10  C   UNL     1       6.061  -3.303  -1.200  0.00  0.00    +0.111 A 
ATOM     11  C   UNL     1       5.860  -1.975  -0.872  0.00  0.00    +0.020 A 
ATOM     12  C   UNL     1       5.917  -1.593   0.459  0.00  0.00    +0.008 A 
ENDBRANCH   3   7
TORSDOF 1
ENDMDL
MODEL 5
REMARK VINA RESULT:    -3.448      1.539      1.831
REMARK INTER + INTRA:          -3.867
REMARK INTER:                  -3.652
REMARK INTRA:                  -0.215
REMARK UNBOUND:                -0.218
REMARK  Name = Nicotine.pdb
REMARK  2 active torsions:
REMARK  status: ('A' for Active; 'I' for Inactive)
REMARK    1  A    between atoms: C_3  and  C_6
REMARK    2  A    between atoms: N_4  and  C_12
REMARK                            x       y       z     vdW  Elec       q    Type
REMARK                         _______ _______ _______ _____ _____    ______ ____
ROOT
ATOM      1  C   UNL     1       4.400   0.078   3.948  0.00  0.00    +0.017 C 
ATOM      2  C   UNL     1       4.654  -1.319   4.572  0.00  0.00    +0.025 C 
ATOM      3  C   UNL     1       5.855  -1.849   3.761  0.00  0.00    +0.088 C 
ATOM      4  N   UNL     1       5.877  -1.116   2.482  0.00  0.00    -0.298 NA
ATOM      5  C   UNL     1       4.732  -0.180   2.457  0.00  0.00    +0.085 C 
ATOM      6  C   UNL     1       7.147  -0.401   2.306  0.00  0.00    +0.105 C 
ENDROOT
BRANCH   3   7
ATOM      7  C   UNL     1       5.691  -3.325   3.505  0.00  0.00    -0.012 A 
ATOM      8  C   UNL     1       6.138  -3.883   2.323  0.00  0.00    +0.115 A 
ATOM      9  N   UNL     1       5.998  -5.174   2.091  0.00  0.00    -0.263 NA
ATOM     10  C   UNL     1       5.431  -5.978   2.968  0.00  0.00    +0.111 A 
ATOM     11  C   UNL     1       4.960  -5.491   4.174  0.00  0.00    +0.020 A 
ATOM     12  C   UNL     1       5.094  -4.140   4.455  0.00  0.00    +0.008 A 
ENDBRANCH   3   7
TORSDOF 1
ENDMDL
MODEL 6
REMARK VINA RESULT:    -3.153      1.542      2.586
REMARK INTER + INTRA:          -3.555
REMARK INTER:                  -3.348
REMARK INTRA:                  -0.207
REMARK UNBOUND:                -0.218
REMARK  Name = Nicotine.pdb
REMARK  2 active torsions:
REMARK  status: ('A' for Active; 'I' for Inactive)
REMARK    1  A    between atoms: C_3  and  C_6
REMARK    2  A    between atoms: N_4  and  C_12
REMARK                            x       y       z     vdW  Elec       q    Type
REMARK                         _______ _______ _______ _____ _____    ______ ____
ROOT
ATOM      1  C   UNL     1       8.844  -3.725   0.519  0.00  0.00    +0.017 C 
ATOM      2  C   UNL     1       8.075  -4.692   1.457  0.00  0.00    +0.025 C 
ATOM      3  C   UNL     1       6.605  -4.261   1.272  0.00  0.00    +0.088 C 
ATOM      4  N   UNL     1       6.616  -2.873   0.775  0.00  0.00    -0.298 NA
ATOM      5  C   UNL     1       8.020  -2.422   0.671  0.00  0.00    +0.085 C 
ATOM      6  C   UNL     1       5.932  -2.771  -0.520  0.00  0.00    +0.105 C 
ENDROOT
BRANCH   3   7
ATOM      7  C   UNL     1       5.880  -4.329   2.591  0.00  0.00    -0.012 A 
ATOM      8  C   UNL     1       5.507  -5.550   3.121  0.00  0.00    +0.115 A 
ATOM      9  N   UNL     1       4.872  -5.618   4.275  0.00  0.00    -0.263 NA
ATOM     10  C   UNL     1       4.570  -4.536   4.965  0.00  0.00    +0.111 A 
ATOM     11  C   UNL     1       4.912  -3.281   4.499  0.00  0.00    +0.020 A 
ATOM     12  C   UNL     1       5.585  -3.170   3.291  0.00  0.00    +0.008 A 
ENDBRANCH   3   7
TORSDOF 1
ENDMDL
MODEL 7
REMARK VINA RESULT:    -3.136      2.781      3.942
REMARK INTER + INTRA:          -3.537
REMARK INTER:                  -3.348
REMARK INTRA:                  -0.188
REMARK UNBOUND:                -0.218
REMARK  Name = Nicotine.pdb
REMARK  2 active torsions:
REMARK  status: ('A' for Active; 'I' for Inactive)
REMARK    1  A    between atoms: C_3  and  C_6
REMARK    2  A    between atoms: N_4  and  C_12
REMARK                            x       y       z     vdW  Elec       q    Type
REMARK                         _______ _______ _______ _____ _____    ______ ____
ROOT
ATOM      1  C   UNL     1       6.072   2.295   1.681  0.00  0.00    +0.017 C 
ATOM      2  C   UNL     1       5.679   1.326   0.534  0.00  0.00    +0.025 C 
ATOM      3  C   UNL     1       5.238   0.055   1.290  0.00  0.00    +0.088 C 
ATOM      4  N   UNL     1       5.867   0.099   2.623  0.00  0.00    -0.298 NA
ATOM      5  C   UNL     1       6.693   1.322   2.714  0.00  0.00    +0.085 C 
ATOM      6  C   UNL     1       4.853   0.067   3.685  0.00  0.00    +0.105 C 
ENDROOT
BRANCH   3   7
ATOM      7  C   UNL     1       5.699  -1.171   0.545  0.00  0.00    -0.012 A 
ATOM      8  C   UNL     1       5.741  -1.174  -0.837  0.00  0.00    +0.115 A 
ATOM      9  N   UNL     1       6.143  -2.242  -1.497  0.00  0.00    -0.263 NA
ATOM     10  C   UNL     1       6.518  -3.342  -0.873  0.00  0.00    +0.111 A 
ATOM     11  C   UNL     1       6.502  -3.413   0.507  0.00  0.00    +0.020 A 
ATOM     12  C   UNL     1       6.091  -2.307   1.235  0.00  0.00    +0.008 A 
ENDBRANCH   3   7
TORSDOF 1
ENDMDL
MODEL 8
REMARK VINA RESULT:    -3.111      1.542      2.220
REMARK INTER + INTRA:          -3.511
REMARK INTER:                  -3.310
REMARK INTRA:                  -0.201
REMARK UNBOUND:                -0.218
REMARK  Name = Nicotine.pdb
REMARK  2 active torsions:
REMARK  status: ('A' for Active; 'I' for Inactive)
REMARK    1  A    between atoms: C_3  and  C_6
REMARK    2  A    between atoms: N_4  and  C_12
REMARK                            x       y       z     vdW  Elec       q    Type
REMARK                         _______ _______ _______ _____ _____    ______ ____
ROOT
ATOM      1  C   UNL     1       8.143   0.291   2.197  0.00  0.00    +0.017 C 
ATOM      2  C   UNL     1       8.081  -1.192   1.746  0.00  0.00    +0.025 C 
ATOM      3  C   UNL     1       6.568  -1.437   1.566  0.00  0.00    +0.088 C 
ATOM      4  N   UNL     1       5.863  -0.429   2.378  0.00  0.00    -0.298 NA
ATOM      5  C   UNL     1       6.868   0.407   3.069  0.00  0.00    +0.085 C 
ATOM      6  C   UNL     1       4.976   0.393   1.545  0.00  0.00    +0.105 C 
ENDROOT
BRANCH   3   7
ATOM      7  C   UNL     1       6.213  -2.822   2.042  0.00  0.00    -0.012 A 
ATOM      8  C   UNL     1       6.425  -3.917   1.227  0.00  0.00    +0.115 A 
ATOM      9  N   UNL     1       6.117  -5.132   1.636  0.00  0.00    -0.263 NA
ATOM     10  C   UNL     1       5.599  -5.352   2.828  0.00  0.00    +0.111 A 
ATOM     11  C   UNL     1       5.358  -4.305   3.698  0.00  0.00    +0.020 A 
ATOM     12  C   UNL     1       5.674  -3.014   3.305  0.00  0.00    +0.008 A 
ENDBRANCH   3   7
TORSDOF 1
ENDMDL
MODEL 9
REMARK VINA RESULT:    -3.047      1.976      2.807
REMARK INTER + INTRA:          -3.443
REMARK INTER:                  -3.187
REMARK INTRA:                  -0.256
REMARK UNBOUND:                -0.218
REMARK  Name = Nicotine.pdb
REMARK  2 active torsions:
REMARK  status: ('A' for Active; 'I' for Inactive)
REMARK    1  A    between atoms: C_3  and  C_6
REMARK    2  A    between atoms: N_4  and  C_12
REMARK                            x       y       z     vdW  Elec       q    Type
REMARK                         _______ _______ _______ _____ _____    ______ ____
ROOT
ATOM      1  C   UNL     1       6.818  -0.437   2.155  0.00  0.00    +0.017 C 
ATOM      2  C   UNL     1       5.736  -1.548   2.124  0.00  0.00    +0.025 C 
ATOM      3  C   UNL     1       5.475  -1.821   3.621  0.00  0.00    +0.088 C 
ATOM      4  N   UNL     1       6.665  -1.366   4.362  0.00  0.00    -0.298 NA
ATOM      5  C   UNL     1       7.655  -0.850   3.392  0.00  0.00    +0.085 C 
ATOM      6  C   UNL     1       6.310  -0.339   5.349  0.00  0.00    +0.105 C 
ENDROOT
BRANCH   3   7
ATOM      7  C   UNL     1       5.264  -3.296   3.844  0.00  0.00    -0.012 A 
ATOM      8  C   UNL     1       4.619  -3.746   4.980  0.00  0.00    +0.115 A 
ATOM      9  N   UNL     1       4.430  -5.035   5.183  0.00  0.00    -0.263 NA
ATOM     10  C   UNL     1       4.844  -5.941   4.319  0.00  0.00    +0.111 A 
ATOM     11  C   UNL     1       5.496  -5.566   3.159  0.00  0.00    +0.020 A 
ATOM     12  C   UNL     1       5.708  -4.219   2.909  0.00  0.00    +0.008 A 
ENDBRANCH   3   7
TORSDOF 1
ENDMDL
MODEL 10
REMARK VINA RESULT:    -3.028      2.502      4.899
REMARK INTER + INTRA:          -3.423
REMARK INTER:                  -3.204
REMARK INTRA:                  -0.219
REMARK UNBOUND:                -0.218
REMARK  Name = Nicotine.pdb
REMARK  2 active torsions:
REMARK  status: ('A' for Active; 'I' for Inactive)
REMARK    1  A    between atoms: C_3  and  C_6
REMARK    2  A    between atoms: N_4  and  C_12
REMARK                            x       y       z     vdW  Elec       q    Type
REMARK                         _______ _______ _______ _____ _____    ______ ____
ROOT
ATOM      1  C   UNL     1       7.546  -4.353   0.936  0.00  0.00    +0.017 C 
ATOM      2  C   UNL     1       6.646  -3.167   1.373  0.00  0.00    +0.025 C 
ATOM      3  C   UNL     1       5.998  -2.716   0.047  0.00  0.00    +0.088 C 
ATOM      4  N   UNL     1       6.869  -3.184  -1.046  0.00  0.00    -0.298 NA
ATOM      5  C   UNL     1       8.033  -3.879  -0.456  0.00  0.00    +0.085 C 
ATOM      6  C   UNL     1       6.136  -4.068  -1.962  0.00  0.00    +0.105 C 
ENDROOT
BRANCH   3   7
ATOM      7  C   UNL     1       5.893  -1.213   0.013  0.00  0.00    -0.012 A 
ATOM      8  C   UNL     1       6.250  -0.513  -1.124  0.00  0.00    +0.115 A 
ATOM      9  N   UNL     1       6.161   0.802  -1.162  0.00  0.00    -0.263 NA
ATOM     10  C   UNL     1       5.732   1.498  -0.127  0.00  0.00    +0.111 A 
ATOM     11  C   UNL     1       5.357   0.866   1.044  0.00  0.00    +0.020 A 
ATOM     12  C   UNL     1       5.432  -0.516   1.119  0.00  0.00    +0.008 A 
ENDBRANCH   3   7
TORSDOF 1
ENDMDL
