MODEL 1
REMARK VINA RESULT:     0.188      0.000      0.000
REMARK INTER + INTRA:          -0.014
REMARK INTER:                   0.199
REMARK INTRA:                  -0.214
REMARK UNBOUND:                -0.214
REMARK  Name = Nicotine.pdb
REMARK  2 active torsions:
REMARK  status: ('A' for Active; 'I' for Inactive)
REMARK    1  A    between atoms: C_3  and  C_6
REMARK    2  A    between atoms: N_4  and  C_12
REMARK                            x       y       z     vdW  Elec       q    Type
REMARK                         _______ _______ _______ _____ _____    ______ ____
ROOT
ATOM      1  C   UNL     1       2.130   4.486  -5.023  0.00  0.00    +0.017 C 
ATOM      2  C   UNL     1       0.818   4.039  -5.719  0.00  0.00    +0.025 C 
ATOM      3  C   UNL     1       0.555   5.176  -6.729  0.00  0.00    +0.088 C 
ATOM      4  N   UNL     1       1.277   6.366  -6.243  0.00  0.00    -0.298 NA
ATOM      5  C   UNL     1       1.949   6.024  -4.972  0.00  0.00    +0.085 C 
ATOM      6  C   UNL     1       2.245   6.839  -7.241  0.00  0.00    +0.105 C 
ENDROOT
BRANCH   3   7
ATOM      7  C   UNL     1      -0.922   5.465  -6.803  0.00  0.00    -0.012 A 
ATOM      8  C   UNL     1      -1.809   4.476  -7.185  0.00  0.00    +0.115 A 
ATOM      9  N   UNL     1      -3.103   4.721  -7.252  0.00  0.00    -0.263 NA
ATOM     10  C   UNL     1      -3.601   5.906  -6.961  0.00  0.00    +0.111 A 
ATOM     11  C   UNL     1      -2.775   6.944  -6.571  0.00  0.00    +0.020 A 
ATOM     12  C   UNL     1      -1.409   6.723  -6.483  0.00  0.00    +0.008 A 
ENDBRANCH   3   7
TORSDOF 1
ENDMDL
MODEL 2
REMARK VINA RESULT:     0.764      0.895      1.401
REMARK INTER + INTRA:           0.595
REMARK INTER:                   0.805
REMARK INTRA:                  -0.209
REMARK UNBOUND:                -0.214
REMARK  Name = Nicotine.pdb
REMARK  2 active torsions:
REMARK  status: ('A' for Active; 'I' for Inactive)
REMARK    1  A    between atoms: C_3  and  C_6
REMARK    2  A    between atoms: N_4  and  C_12
REMARK                            x       y       z     vdW  Elec       q    Type
REMARK                         _______ _______ _______ _____ _____    ______ ____
ROOT
ATOM      1  C   UNL     1       1.946   4.093  -4.897  0.00  0.00    +0.017 C 
ATOM      2  C   UNL     1       0.599   3.817  -5.616  0.00  0.00    +0.025 C 
ATOM      3  C   UNL     1       0.443   5.042  -6.542  0.00  0.00    +0.088 C 
ATOM      4  N   UNL     1       1.270   6.124  -5.979  0.00  0.00    -0.298 NA
ATOM      5  C   UNL     1       1.906   5.634  -4.738  0.00  0.00    +0.085 C 
ATOM      6  C   UNL     1       2.279   6.575  -6.946  0.00  0.00    +0.105 C 
ENDROOT
BRANCH   3   7
ATOM      7  C   UNL     1      -1.001   5.468  -6.589  0.00  0.00    -0.012 A 
ATOM      8  C   UNL     1      -1.402   6.646  -5.987  0.00  0.00    +0.115 A 
ATOM      9  N   UNL     1      -2.664   7.027  -6.023  0.00  0.00    -0.263 NA
ATOM     10  C   UNL     1      -3.588   6.308  -6.629  0.00  0.00    +0.111 A 
ATOM     11  C   UNL     1      -3.262   5.118  -7.253  0.00  0.00    +0.020 A 
ATOM     12  C   UNL     1      -1.944   4.688  -7.241  0.00  0.00    +0.008 A 
ENDBRANCH   3   7
TORSDOF 1
ENDMDL
MODEL 3
REMARK VINA RESULT:     2.983      1.123      4.659
REMARK INTER + INTRA:           2.944
REMARK INTER:                   3.156
REMARK INTRA:                  -0.212
REMARK UNBOUND:                -0.214
REMARK  Name = Nicotine.pdb
REMARK  2 active torsions:
REMARK  status: ('A' for Active; 'I' for Inactive)
REMARK    1  A    between atoms: C_3  and  C_6
REMARK    2  A    between atoms: N_4  and  C_12
REMARK                            x       y       z     vdW  Elec       q    Type
REMARK                         _______ _______ _______ _____ _____    ______ ____
ROOT
ATOM      1  C   UNL     1      -2.834   6.578  -7.000  0.00  0.00    +0.017 C 
ATOM      2  C   UNL     1      -1.367   7.027  -7.229  0.00  0.00    +0.025 C 
ATOM      3  C   UNL     1      -0.585   5.697  -7.181  0.00  0.00    +0.088 C 
ATOM      4  N   UNL     1      -1.411   4.732  -6.434  0.00  0.00    -0.298 NA
ATOM      5  C   UNL     1      -2.651   5.410  -5.999  0.00  0.00    +0.085 C 
ATOM      6  C   UNL     1      -1.716   3.553  -7.254  0.00  0.00    +0.105 C 
ENDROOT
BRANCH   3   7
ATOM      7  C   UNL     1       0.731   5.901  -6.476  0.00  0.00    -0.012 A 
ATOM      8  C   UNL     1       1.635   6.838  -6.941  0.00  0.00    +0.115 A 
ATOM      9  N   UNL     1       2.789   7.023  -6.330  0.00  0.00    -0.263 NA
ATOM     10  C   UNL     1       3.126   6.329  -5.261  0.00  0.00    +0.111 A 
ATOM     11  C   UNL     1       2.273   5.375  -4.738  0.00  0.00    +0.020 A 
ATOM     12  C   UNL     1       1.048   5.156  -5.351  0.00  0.00    +0.008 A 
ENDBRANCH   3   7
TORSDOF 1
ENDMDL
MODEL 4
REMARK VINA RESULT:     3.137      1.466      2.224
REMARK INTER + INTRA:           3.107
REMARK INTER:                   3.354
REMARK INTRA:                  -0.247
REMARK UNBOUND:                -0.214
REMARK  Name = Nicotine.pdb
REMARK  2 active torsions:
REMARK  status: ('A' for Active; 'I' for Inactive)
REMARK    1  A    between atoms: C_3  and  C_6
REMARK    2  A    between atoms: N_4  and  C_12
REMARK                            x       y       z     vdW  Elec       q    Type
REMARK                         _______ _______ _______ _____ _____    ______ ____
ROOT
ATOM      1  C   UNL     1       1.784   6.479  -6.412  0.00  0.00    +0.017 C 
ATOM      2  C   UNL     1       0.440   6.972  -5.813  0.00  0.00    +0.025 C 
ATOM      3  C   UNL     1      -0.326   5.658  -5.552  0.00  0.00    +0.088 C 
ATOM      4  N   UNL     1       0.256   4.630  -6.432  0.00  0.00    -0.298 NA
ATOM      5  C   UNL     1       1.326   5.253  -7.241  0.00  0.00    +0.085 C 
ATOM      6  C   UNL     1       0.776   3.500  -5.652  0.00  0.00    +0.105 C 
ENDROOT
BRANCH   3   7
ATOM      7  C   UNL     1      -1.787   5.843  -5.873  0.00  0.00    -0.012 A 
ATOM      8  C   UNL     1      -2.758   5.306  -5.050  0.00  0.00    +0.115 A 
ATOM      9  N   UNL     1      -4.038   5.463  -5.324  0.00  0.00    -0.263 NA
ATOM     10  C   UNL     1      -4.442   6.134  -6.385  0.00  0.00    +0.111 A 
ATOM     11  C   UNL     1      -3.528   6.700  -7.254  0.00  0.00    +0.020 A 
ATOM     12  C   UNL     1      -2.174   6.560  -6.996  0.00  0.00    +0.008 A 
ENDBRANCH   3   7
TORSDOF 1
ENDMDL
