MODEL 1
REMARK VINA RESULT:    -4.062      0.000      0.000
REMARK INTER + INTRA:          -4.533
REMARK INTER:                  -4.299
REMARK INTRA:                  -0.234
REMARK UNBOUND:                -0.234
REMARK  Name = Nicotine.pdb
REMARK  2 active torsions:
REMARK  status: ('A' for Active; 'I' for Inactive)
REMARK    1  A    between atoms: C_3  and  C_6
REMARK    2  A    between atoms: N_4  and  C_12
REMARK                            x       y       z     vdW  Elec       q    Type
REMARK                         _______ _______ _______ _____ _____    ______ ____
ROOT
ATOM      1  C   UNL     1       6.545   2.276   0.739  0.00  0.00    +0.017 C 
ATOM      2  C   UNL     1       6.843   1.085   1.688  0.00  0.00    +0.025 C 
ATOM      3  C   UNL     1       7.909   1.662   2.644  0.00  0.00    +0.088 C 
ATOM      4  N   UNL     1       8.546   2.798   1.954  0.00  0.00    -0.298 NA
ATOM      5  C   UNL     1       7.942   2.932   0.611  0.00  0.00    +0.085 C 
ATOM      6  C   UNL     1       8.393   4.037   2.727  0.00  0.00    +0.105 C 
ENDROOT
BRANCH   3   7
ATOM      7  C   UNL     1       8.940   0.608   2.958  0.00  0.00    -0.012 A 
ATOM      8  C   UNL     1      10.048   0.920   3.723  0.00  0.00    +0.115 A 
ATOM      9  N   UNL     1      10.954   0.004   4.003  0.00  0.00    -0.263 NA
ATOM     10  C   UNL     1      10.843  -1.236   3.570  0.00  0.00    +0.111 A 
ATOM     11  C   UNL     1       9.762  -1.622   2.800  0.00  0.00    +0.020 A 
ATOM     12  C   UNL     1       8.786  -0.688   2.489  0.00  0.00    +0.008 A 
ENDBRANCH   3   7
TORSDOF 1
ENDMDL
MODEL 2
REMARK VINA RESULT:    -3.926      1.416      4.684
REMARK INTER + INTRA:          -4.390
REMARK INTER:                  -4.174
REMARK INTRA:                  -0.216
REMARK UNBOUND:                -0.234
REMARK  Name = Nicotine.pdb
REMARK  2 active torsions:
REMARK  status: ('A' for Active; 'I' for Inactive)
REMARK    1  A    between atoms: C_3  and  C_6
REMARK    2  A    between atoms: N_4  and  C_12
REMARK                            x       y       z     vdW  Elec       q    Type
REMARK                         _______ _______ _______ _____ _____    ______ ____
ROOT
ATOM      1  C   UNL     1      10.954  -1.156   3.240  0.00  0.00    +0.017 C 
ATOM      2  C   UNL     1      10.560   0.331   3.037  0.00  0.00    +0.025 C 
ATOM      3  C   UNL     1       9.035   0.321   3.277  0.00  0.00    +0.088 C 
ATOM      4  N   UNL     1       8.565  -1.057   3.048  0.00  0.00    -0.298 NA
ATOM      5  C   UNL     1       9.721  -1.889   2.654  0.00  0.00    +0.085 C 
ATOM      6  C   UNL     1       7.911  -1.596   4.247  0.00  0.00    +0.105 C 
ENDROOT
BRANCH   3   7
ATOM      7  C   UNL     1       8.359   1.262   2.314  0.00  0.00    -0.012 A 
ATOM      8  C   UNL     1       7.096   0.977   1.828  0.00  0.00    +0.115 A 
ATOM      9  N   UNL     1       6.497   1.795   0.985  0.00  0.00    -0.263 NA
ATOM     10  C   UNL     1       7.071   2.908   0.574  0.00  0.00    +0.111 A 
ATOM     11  C   UNL     1       8.332   3.260   1.016  0.00  0.00    +0.020 A 
ATOM     12  C   UNL     1       8.991   2.427   1.908  0.00  0.00    +0.008 A 
ENDBRANCH   3   7
TORSDOF 1
ENDMDL
MODEL 3
REMARK VINA RESULT:    -3.828      1.148      2.262
REMARK INTER + INTRA:          -4.286
REMARK INTER:                  -4.100
REMARK INTRA:                  -0.186
REMARK UNBOUND:                -0.234
REMARK  Name = Nicotine.pdb
REMARK  2 active torsions:
REMARK  status: ('A' for Active; 'I' for Inactive)
REMARK    1  A    between atoms: C_3  and  C_6
REMARK    2  A    between atoms: N_4  and  C_12
REMARK                            x       y       z     vdW  Elec       q    Type
REMARK                         _______ _______ _______ _____ _____    ______ ____
ROOT
ATOM      1  C   UNL     1       9.493   4.622   3.250  0.00  0.00    +0.017 C 
ATOM      2  C   UNL     1      10.407   3.368   3.262  0.00  0.00    +0.025 C 
ATOM      3  C   UNL     1       9.712   2.422   2.261  0.00  0.00    +0.088 C 
ATOM      4  N   UNL     1       8.302   2.843   2.168  0.00  0.00    -0.298 NA
ATOM      5  C   UNL     1       8.091   3.985   3.082  0.00  0.00    +0.085 C 
ATOM      6  C   UNL     1       7.949   3.200   0.788  0.00  0.00    +0.105 C 
ENDROOT
BRANCH   3   7
ATOM      7  C   UNL     1       9.793   1.002   2.757  0.00  0.00    -0.012 A 
ATOM      8  C   UNL     1      10.869   0.587   3.519  0.00  0.00    +0.115 A 
ATOM      9  N   UNL     1      10.947  -0.654   3.957  0.00  0.00    -0.263 NA
ATOM     10  C   UNL     1      10.012  -1.544   3.690  0.00  0.00    +0.111 A 
ATOM     11  C   UNL     1       8.906  -1.202   2.934  0.00  0.00    +0.020 A 
ATOM     12  C   UNL     1       8.786   0.095   2.460  0.00  0.00    +0.008 A 
ENDBRANCH   3   7
TORSDOF 1
ENDMDL
MODEL 4
REMARK VINA RESULT:    -3.818      2.353      4.185
REMARK INTER + INTRA:          -4.275
REMARK INTER:                  -4.073
REMARK INTRA:                  -0.202
REMARK UNBOUND:                -0.234
REMARK  Name = Nicotine.pdb
REMARK  2 active torsions:
REMARK  status: ('A' for Active; 'I' for Inactive)
REMARK    1  A    between atoms: C_3  and  C_6
REMARK    2  A    between atoms: N_4  and  C_12
REMARK                            x       y       z     vdW  Elec       q    Type
REMARK                         _______ _______ _______ _____ _____    ______ ____
ROOT
ATOM      1  C   UNL     1      10.798  -1.249   2.916  0.00  0.00    +0.017 C 
ATOM      2  C   UNL     1       9.316  -1.587   2.604  0.00  0.00    +0.025 C 
ATOM      3  C   UNL     1       8.646  -0.197   2.555  0.00  0.00    +0.088 C 
ATOM      4  N   UNL     1       9.500   0.726   3.324  0.00  0.00    -0.298 NA
ATOM      5  C   UNL     1      10.648  -0.033   3.864  0.00  0.00    +0.085 C 
ATOM      6  C   UNL     1       9.954   1.845   2.487  0.00  0.00    +0.105 C 
ENDROOT
BRANCH   3   7
ATOM      7  C   UNL     1       7.275  -0.267   3.176  0.00  0.00    -0.012 A 
ATOM      8  C   UNL     1       7.081  -0.938   4.369  0.00  0.00    +0.115 A 
ATOM      9  N   UNL     1       5.884  -1.004   4.919  0.00  0.00    -0.263 NA
ATOM     10  C   UNL     1       4.833  -0.439   4.361  0.00  0.00    +0.111 A 
ATOM     11  C   UNL     1       4.950   0.250   3.168  0.00  0.00    +0.020 A 
ATOM     12  C   UNL     1       6.193   0.345   2.562  0.00  0.00    +0.008 A 
ENDBRANCH   3   7
TORSDOF 1
ENDMDL
MODEL 5
REMARK VINA RESULT:    -3.809      1.629      2.468
REMARK INTER + INTRA:          -4.266
REMARK INTER:                  -4.012
REMARK INTRA:                  -0.254
REMARK UNBOUND:                -0.234
REMARK  Name = Nicotine.pdb
REMARK  2 active torsions:
REMARK  status: ('A' for Active; 'I' for Inactive)
REMARK    1  A    between atoms: C_3  and  C_6
REMARK    2  A    between atoms: N_4  and  C_12
REMARK                            x       y       z     vdW  Elec       q    Type
REMARK                         _______ _______ _______ _____ _____    ______ ____
ROOT
ATOM      1  C   UNL     1       6.412   3.011   1.998  0.00  0.00    +0.017 C 
ATOM      2  C   UNL     1       7.574   2.139   1.455  0.00  0.00    +0.025 C 
ATOM      3  C   UNL     1       7.316   0.767   2.113  0.00  0.00    +0.088 C 
ATOM      4  N   UNL     1       6.493   1.006   3.312  0.00  0.00    -0.298 NA
ATOM      5  C   UNL     1       6.253   2.459   3.437  0.00  0.00    +0.085 C 
ATOM      6  C   UNL     1       5.226   0.267   3.237  0.00  0.00    +0.105 C 
ENDROOT
BRANCH   3   7
ATOM      7  C   UNL     1       8.625   0.133   2.507  0.00  0.00    -0.012 A 
ATOM      8  C   UNL     1       8.768  -1.242   2.495  0.00  0.00    +0.115 A 
ATOM      9  N   UNL     1       9.910  -1.805   2.837  0.00  0.00    -0.263 NA
ATOM     10  C   UNL     1      10.954  -1.087   3.203  0.00  0.00    +0.111 A 
ATOM     11  C   UNL     1      10.887   0.293   3.239  0.00  0.00    +0.020 A 
ATOM     12  C   UNL     1       9.704   0.921   2.880  0.00  0.00    +0.008 A 
ENDBRANCH   3   7
TORSDOF 1
ENDMDL
MODEL 6
REMARK VINA RESULT:    -3.779      1.452      2.062
REMARK INTER + INTRA:          -4.234
REMARK INTER:                  -4.034
REMARK INTRA:                  -0.200
REMARK UNBOUND:                -0.234
REMARK  Name = Nicotine.pdb
REMARK  2 active torsions:
REMARK  status: ('A' for Active; 'I' for Inactive)
REMARK    1  A    between atoms: C_3  and  C_6
REMARK    2  A    between atoms: N_4  and  C_12
REMARK                            x       y       z     vdW  Elec       q    Type
REMARK                         _______ _______ _______ _____ _____    ______ ____
ROOT
ATOM      1  C   UNL     1       6.121   2.812   1.556  0.00  0.00    +0.017 C 
ATOM      2  C   UNL     1       7.277   1.873   1.123  0.00  0.00    +0.025 C 
ATOM      3  C   UNL     1       7.121   0.669   2.077  0.00  0.00    +0.088 C 
ATOM      4  N   UNL     1       6.375   1.141   3.257  0.00  0.00    -0.298 NA
ATOM      5  C   UNL     1       6.086   2.581   3.087  0.00  0.00    +0.085 C 
ATOM      6  C   UNL     1       5.137   0.373   3.440  0.00  0.00    +0.105 C 
ENDROOT
BRANCH   3   7
ATOM      7  C   UNL     1       8.479   0.167   2.494  0.00  0.00    -0.012 A 
ATOM      8  C   UNL     1       9.459   1.055   2.897  0.00  0.00    +0.115 A 
ATOM      9  N   UNL     1      10.651   0.623   3.264  0.00  0.00    -0.263 NA
ATOM     10  C   UNL     1      10.954  -0.659   3.262  0.00  0.00    +0.111 A 
ATOM     11  C   UNL     1      10.025  -1.606   2.873  0.00  0.00    +0.020 A 
ATOM     12  C   UNL     1       8.760  -1.191   2.485  0.00  0.00    +0.008 A 
ENDBRANCH   3   7
TORSDOF 1
ENDMDL
MODEL 7
REMARK VINA RESULT:    -3.776      1.460      4.558
REMARK INTER + INTRA:          -4.231
REMARK INTER:                  -4.023
REMARK INTRA:                  -0.208
REMARK UNBOUND:                -0.234
REMARK  Name = Nicotine.pdb
REMARK  2 active torsions:
REMARK  status: ('A' for Active; 'I' for Inactive)
REMARK    1  A    between atoms: C_3  and  C_6
REMARK    2  A    between atoms: N_4  and  C_12
REMARK                            x       y       z     vdW  Elec       q    Type
REMARK                         _______ _______ _______ _____ _____    ______ ____
ROOT
ATOM      1  C   UNL     1       8.381  -2.181   4.593  0.00  0.00    +0.017 C 
ATOM      2  C   UNL     1       7.568  -1.026   3.950  0.00  0.00    +0.025 C 
ATOM      3  C   UNL     1       8.325  -0.760   2.632  0.00  0.00    +0.088 C 
ATOM      4  N   UNL     1       9.697  -1.273   2.805  0.00  0.00    -0.298 NA
ATOM      5  C   UNL     1       9.827  -1.817   4.173  0.00  0.00    +0.085 C 
ATOM      6  C   UNL     1      10.008  -2.296   1.798  0.00  0.00    +0.105 C 
ENDROOT
BRANCH   3   7
ATOM      7  C   UNL     1       8.361   0.719   2.351  0.00  0.00    -0.012 A 
ATOM      8  C   UNL     1       7.227   1.375   1.910  0.00  0.00    +0.115 A 
ATOM      9  N   UNL     1       7.250   2.670   1.662  0.00  0.00    -0.263 NA
ATOM     10  C   UNL     1       8.345   3.387   1.821  0.00  0.00    +0.111 A 
ATOM     11  C   UNL     1       9.517   2.800   2.259  0.00  0.00    +0.020 A 
ATOM     12  C   UNL     1       9.530   1.442   2.535  0.00  0.00    +0.008 A 
ENDBRANCH   3   7
TORSDOF 1
ENDMDL
MODEL 8
REMARK VINA RESULT:    -3.758      1.507      2.542
REMARK INTER + INTRA:          -4.212
REMARK INTER:                  -3.959
REMARK INTRA:                  -0.253
REMARK UNBOUND:                -0.234
REMARK  Name = Nicotine.pdb
REMARK  2 active torsions:
REMARK  status: ('A' for Active; 'I' for Inactive)
REMARK    1  A    between atoms: C_3  and  C_6
REMARK    2  A    between atoms: N_4  and  C_12
REMARK                            x       y       z     vdW  Elec       q    Type
REMARK                         _______ _______ _______ _____ _____    ______ ____
ROOT
ATOM      1  C   UNL     1       5.872   3.407   0.360  0.00  0.00    +0.017 C 
ATOM      2  C   UNL     1       7.165   2.559   0.230  0.00  0.00    +0.025 C 
ATOM      3  C   UNL     1       7.073   1.599   1.435  0.00  0.00    +0.088 C 
ATOM      4  N   UNL     1       6.176   2.224   2.424  0.00  0.00    -0.298 NA
ATOM      5  C   UNL     1       5.733   3.532   1.898  0.00  0.00    +0.085 C 
ATOM      6  C   UNL     1       5.027   1.357   2.716  0.00  0.00    +0.105 C 
ENDROOT
BRANCH   3   7
ATOM      7  C   UNL     1       8.440   1.396   2.035  0.00  0.00    -0.012 A 
ATOM      8  C   UNL     1       8.794   0.173   2.571  0.00  0.00    +0.115 A 
ATOM      9  N   UNL     1       9.988  -0.013   3.098  0.00  0.00    -0.263 NA
ATOM     10  C   UNL     1      10.886   0.952   3.137  0.00  0.00    +0.111 A 
ATOM     11  C   UNL     1      10.604   2.202   2.620  0.00  0.00    +0.020 A 
ATOM     12  C   UNL     1       9.360   2.433   2.053  0.00  0.00    +0.008 A 
ENDBRANCH   3   7
TORSDOF 1
ENDMDL
MODEL 9
REMARK VINA RESULT:    -3.703      1.334      1.623
REMARK INTER + INTRA:          -4.154
REMARK INTER:                  -3.899
REMARK INTRA:                  -0.255
REMARK UNBOUND:                -0.234
REMARK  Name = Nicotine.pdb
REMARK  2 active torsions:
REMARK  status: ('A' for Active; 'I' for Inactive)
REMARK    1  A    between atoms: C_3  and  C_6
REMARK    2  A    between atoms: N_4  and  C_12
REMARK                            x       y       z     vdW  Elec       q    Type
REMARK                         _______ _______ _______ _____ _____    ______ ____
ROOT
ATOM      1  C   UNL     1       5.124   0.820   2.889  0.00  0.00    +0.017 C 
ATOM      2  C   UNL     1       6.139  -0.127   3.582  0.00  0.00    +0.025 C 
ATOM      3  C   UNL     1       7.379   0.772   3.774  0.00  0.00    +0.088 C 
ATOM      4  N   UNL     1       7.280   1.867   2.792  0.00  0.00    -0.298 NA
ATOM      5  C   UNL     1       6.055   1.670   1.988  0.00  0.00    +0.085 C 
ATOM      6  C   UNL     1       7.269   3.175   3.459  0.00  0.00    +0.105 C 
ENDROOT
BRANCH   3   7
ATOM      7  C   UNL     1       8.633  -0.026   3.531  0.00  0.00    -0.012 A 
ATOM      8  C   UNL     1       9.813   0.317   4.164  0.00  0.00    +0.115 A 
ATOM      9  N   UNL     1      10.916  -0.376   3.957  0.00  0.00    -0.263 NA
ATOM     10  C   UNL     1      10.940  -1.414   3.145  0.00  0.00    +0.111 A 
ATOM     11  C   UNL     1       9.798  -1.817   2.477  0.00  0.00    +0.020 A 
ATOM     12  C   UNL     1       8.618  -1.116   2.674  0.00  0.00    +0.008 A 
ENDBRANCH   3   7
TORSDOF 1
ENDMDL
MODEL 10
REMARK VINA RESULT:    -3.413      5.406      7.526
REMARK INTER + INTRA:          -3.847
REMARK INTER:                  -3.596
REMARK INTRA:                  -0.251
REMARK UNBOUND:                -0.234
REMARK  Name = Nicotine.pdb
REMARK  2 active torsions:
REMARK  status: ('A' for Active; 'I' for Inactive)
REMARK    1  A    between atoms: C_3  and  C_6
REMARK    2  A    between atoms: N_4  and  C_12
REMARK                            x       y       z     vdW  Elec       q    Type
REMARK                         _______ _______ _______ _____ _____    ______ ____
ROOT
ATOM      1  C   UNL     1       8.171   1.381  -5.729  0.00  0.00    +0.017 C 
ATOM      2  C   UNL     1       7.159   1.600  -4.574  0.00  0.00    +0.025 C 
ATOM      3  C   UNL     1       6.934   3.127  -4.593  0.00  0.00    +0.088 C 
ATOM      4  N   UNL     1       8.104   3.732  -5.256  0.00  0.00    -0.298 NA
ATOM      5  C   UNL     1       9.047   2.654  -5.623  0.00  0.00    +0.085 C 
ATOM      6  C   UNL     1       7.699   4.503  -6.439  0.00  0.00    +0.105 C 
ENDROOT
BRANCH   3   7
ATOM      7  C   UNL     1       6.817   3.646  -3.183  0.00  0.00    -0.012 A 
ATOM      8  C   UNL     1       6.417   4.948  -2.949  0.00  0.00    +0.115 A 
ATOM      9  N   UNL     1       6.312   5.410  -1.718  0.00  0.00    -0.263 NA
ATOM     10  C   UNL     1       6.582   4.657  -0.670  0.00  0.00    +0.111 A 
ATOM     11  C   UNL     1       6.988   3.345  -0.826  0.00  0.00    +0.020 A 
ATOM     12  C   UNL     1       7.105   2.823  -2.105  0.00  0.00    +0.008 A 
ENDBRANCH   3   7
TORSDOF 1
ENDMDL
