MODEL 1
REMARK VINA RESULT:    -1.053      0.000      0.000
REMARK INTER + INTRA:          -1.309
REMARK INTER:                  -1.115
REMARK INTRA:                  -0.194
REMARK UNBOUND:                -0.194
REMARK  Name = Nicotine.pdb
REMARK  2 active torsions:
REMARK  status: ('A' for Active; 'I' for Inactive)
REMARK    1  A    between atoms: C_3  and  C_6
REMARK    2  A    between atoms: N_4  and  C_12
REMARK                            x       y       z     vdW  Elec       q    Type
REMARK                         _______ _______ _______ _____ _____    ______ ____
ROOT
ATOM      1  C   UNL     1      -1.977   6.649  -4.501  0.00  0.00    +0.017 C 
ATOM      2  C   UNL     1      -1.012   5.472  -4.200  0.00  0.00    +0.025 C 
ATOM      3  C   UNL     1      -0.216   5.332  -5.515  0.00  0.00    +0.088 C 
ATOM      4  N   UNL     1      -1.030   5.934  -6.585  0.00  0.00    -0.298 NA
ATOM      5  C   UNL     1      -2.299   6.415  -5.998  0.00  0.00    +0.085 C 
ATOM      6  C   UNL     1      -0.307   7.028  -7.246  0.00  0.00    +0.105 C 
ENDROOT
BRANCH   3   7
ATOM      7  C   UNL     1       0.029   3.875  -5.813  0.00  0.00    -0.012 A 
ATOM      8  C   UNL     1      -0.298   2.907  -4.883  0.00  0.00    +0.115 A 
ATOM      9  N   UNL     1      -0.088   1.630  -5.135  0.00  0.00    -0.263 NA
ATOM     10  C   UNL     1       0.440   1.226  -6.274  0.00  0.00    +0.111 A 
ATOM     11  C   UNL     1       0.792   2.137  -7.253  0.00  0.00    +0.020 A 
ATOM     12  C   UNL     1       0.580   3.488  -7.025  0.00  0.00    +0.008 A 
ENDBRANCH   3   7
TORSDOF 1
ENDMDL
MODEL 2
REMARK VINA RESULT:    -0.574      1.513      4.597
REMARK INTER + INTRA:          -0.802
REMARK INTER:                  -0.618
REMARK INTRA:                  -0.184
REMARK UNBOUND:                -0.194
REMARK  Name = Nicotine.pdb
REMARK  2 active torsions:
REMARK  status: ('A' for Active; 'I' for Inactive)
REMARK    1  A    between atoms: C_3  and  C_6
REMARK    2  A    between atoms: N_4  and  C_12
REMARK                            x       y       z     vdW  Elec       q    Type
REMARK                         _______ _______ _______ _____ _____    ______ ____
ROOT
ATOM      1  C   UNL     1       0.812   2.666  -6.601  0.00  0.00    +0.017 C 
ATOM      2  C   UNL     1       0.011   3.821  -7.256  0.00  0.00    +0.025 C 
ATOM      3  C   UNL     1       0.085   4.940  -6.196  0.00  0.00    +0.088 C 
ATOM      4  N   UNL     1       0.363   4.296  -4.899  0.00  0.00    -0.298 NA
ATOM      5  C   UNL     1       0.439   2.834  -5.106  0.00  0.00    +0.085 C 
ATOM      6  C   UNL     1       1.607   4.810  -4.312  0.00  0.00    +0.105 C 
ENDROOT
BRANCH   3   7
ATOM      7  C   UNL     1      -1.229   5.675  -6.133  0.00  0.00    -0.012 A 
ATOM      8  C   UNL     1      -2.087   5.668  -7.217  0.00  0.00    +0.115 A 
ATOM      9  N   UNL     1      -3.239   6.308  -7.170  0.00  0.00    -0.263 NA
ATOM     10  C   UNL     1      -3.617   6.976  -6.098  0.00  0.00    +0.111 A 
ATOM     11  C   UNL     1      -2.812   7.028  -4.975  0.00  0.00    +0.020 A 
ATOM     12  C   UNL     1      -1.596   6.362  -4.986  0.00  0.00    +0.008 A 
ENDBRANCH   3   7
TORSDOF 1
ENDMDL
