MODEL 1
REMARK VINA RESULT:    -4.236      0.000      0.000
REMARK INTER + INTRA:          -4.736
REMARK INTER:                  -4.483
REMARK INTRA:                  -0.253
REMARK UNBOUND:                -0.253
REMARK  Name = Nicotine.pdb
REMARK  2 active torsions:
REMARK  status: ('A' for Active; 'I' for Inactive)
REMARK    1  A    between atoms: C_3  and  C_6
REMARK    2  A    between atoms: N_4  and  C_12
REMARK                            x       y       z     vdW  Elec       q    Type
REMARK                         _______ _______ _______ _____ _____    ______ ____
ROOT
ATOM      1  C   UNL     1       9.612   2.270  -2.419  0.00  0.00    +0.017 C 
ATOM      2  C   UNL     1       8.346   1.424  -2.715  0.00  0.00    +0.025 C 
ATOM      3  C   UNL     1       8.609   0.892  -4.139  0.00  0.00    +0.088 C 
ATOM      4  N   UNL     1       9.586   1.796  -4.770  0.00  0.00    -0.298 NA
ATOM      5  C   UNL     1       9.918   2.873  -3.812  0.00  0.00    +0.085 C 
ATOM      6  C   UNL     1      10.793   1.066  -5.180  0.00  0.00    +0.105 C 
ENDROOT
BRANCH   3   7
ATOM      7  C   UNL     1       7.326   0.888  -4.931  0.00  0.00    -0.012 A 
ATOM      8  C   UNL     1       7.256   0.232  -6.145  0.00  0.00    +0.115 A 
ATOM      9  N   UNL     1       6.137   0.224  -6.843  0.00  0.00    -0.263 NA
ATOM     10  C   UNL     1       5.050   0.836  -6.418  0.00  0.00    +0.111 A 
ATOM     11  C   UNL     1       5.045   1.513  -5.213  0.00  0.00    +0.020 A 
ATOM     12  C   UNL     1       6.201   1.539  -4.448  0.00  0.00    +0.008 A 
ENDBRANCH   3   7
TORSDOF 1
ENDMDL
MODEL 2
REMARK VINA RESULT:    -4.206      1.648      4.544
REMARK INTER + INTRA:          -4.705
REMARK INTER:                  -4.483
REMARK INTRA:                  -0.221
REMARK UNBOUND:                -0.253
REMARK  Name = Nicotine.pdb
REMARK  2 active torsions:
REMARK  status: ('A' for Active; 'I' for Inactive)
REMARK    1  A    between atoms: C_3  and  C_6
REMARK    2  A    between atoms: N_4  and  C_12
REMARK                            x       y       z     vdW  Elec       q    Type
REMARK                         _______ _______ _______ _____ _____    ______ ____
ROOT
ATOM      1  C   UNL     1       7.483  -0.471  -6.130  0.00  0.00    +0.017 C 
ATOM      2  C   UNL     1       8.237  -0.110  -4.823  0.00  0.00    +0.025 C 
ATOM      3  C   UNL     1       7.338   0.975  -4.192  0.00  0.00    +0.088 C 
ATOM      4  N   UNL     1       6.531   1.559  -5.278  0.00  0.00    -0.298 NA
ATOM      5  C   UNL     1       6.907   0.905  -6.549  0.00  0.00    +0.085 C 
ATOM      6  C   UNL     1       5.095   1.404  -5.010  0.00  0.00    +0.105 C 
ENDROOT
BRANCH   3   7
ATOM      7  C   UNL     1       8.192   2.040  -3.555  0.00  0.00    -0.012 A 
ATOM      8  C   UNL     1       7.954   3.376  -3.817  0.00  0.00    +0.115 A 
ATOM      9  N   UNL     1       8.696   4.315  -3.263  0.00  0.00    -0.263 NA
ATOM     10  C   UNL     1       9.687   4.022  -2.444  0.00  0.00    +0.111 A 
ATOM     11  C   UNL     1       9.984   2.708  -2.135  0.00  0.00    +0.020 A 
ATOM     12  C   UNL     1       9.222   1.694  -2.694  0.00  0.00    +0.008 A 
ENDBRANCH   3   7
TORSDOF 1
ENDMDL
MODEL 3
REMARK VINA RESULT:    -3.991      1.745      4.655
REMARK INTER + INTRA:          -4.478
REMARK INTER:                  -4.224
REMARK INTRA:                  -0.253
REMARK UNBOUND:                -0.253
REMARK  Name = Nicotine.pdb
REMARK  2 active torsions:
REMARK  status: ('A' for Active; 'I' for Inactive)
REMARK    1  A    between atoms: C_3  and  C_6
REMARK    2  A    between atoms: N_4  and  C_12
REMARK                            x       y       z     vdW  Elec       q    Type
REMARK                         _______ _______ _______ _____ _____    ______ ____
ROOT
ATOM      1  C   UNL     1       5.267   1.377  -4.883  0.00  0.00    +0.017 C 
ATOM      2  C   UNL     1       5.996   2.184  -3.777  0.00  0.00    +0.025 C 
ATOM      3  C   UNL     1       7.076   2.956  -4.565  0.00  0.00    +0.088 C 
ATOM      4  N   UNL     1       7.304   2.224  -5.824  0.00  0.00    -0.298 NA
ATOM      5  C   UNL     1       6.436   1.027  -5.837  0.00  0.00    +0.085 C 
ATOM      6  C   UNL     1       7.039   3.081  -6.987  0.00  0.00    +0.105 C 
ENDROOT
BRANCH   3   7
ATOM      7  C   UNL     1       8.351   3.013  -3.765  0.00  0.00    -0.012 A 
ATOM      8  C   UNL     1       9.177   4.118  -3.844  0.00  0.00    +0.115 A 
ATOM      9  N   UNL     1      10.295   4.176  -3.147  0.00  0.00    -0.263 NA
ATOM     10  C   UNL     1      10.669   3.192  -2.353  0.00  0.00    +0.111 A 
ATOM     11  C   UNL     1       9.894   2.055  -2.222  0.00  0.00    +0.020 A 
ATOM     12  C   UNL     1       8.709   1.960  -2.936  0.00  0.00    +0.008 A 
ENDBRANCH   3   7
TORSDOF 1
ENDMDL
MODEL 4
REMARK VINA RESULT:    -3.782      3.151      4.286
REMARK INTER + INTRA:          -4.257
REMARK INTER:                  -4.059
REMARK INTRA:                  -0.198
REMARK UNBOUND:                -0.253
REMARK  Name = Nicotine.pdb
REMARK  2 active torsions:
REMARK  status: ('A' for Active; 'I' for Inactive)
REMARK    1  A    between atoms: C_3  and  C_6
REMARK    2  A    between atoms: N_4  and  C_12
REMARK                            x       y       z     vdW  Elec       q    Type
REMARK                         _______ _______ _______ _____ _____    ______ ____
ROOT
ATOM      1  C   UNL     1       8.881   6.785  -1.758  0.00  0.00    +0.017 C 
ATOM      2  C   UNL     1       9.388   5.366  -2.130  0.00  0.00    +0.025 C 
ATOM      3  C   UNL     1       8.664   5.077  -3.462  0.00  0.00    +0.088 C 
ATOM      4  N   UNL     1       7.474   5.946  -3.510  0.00  0.00    -0.298 NA
ATOM      5  C   UNL     1       7.417   6.736  -2.262  0.00  0.00    +0.085 C 
ATOM      6  C   UNL     1       7.509   6.822  -4.688  0.00  0.00    +0.105 C 
ENDROOT
BRANCH   3   7
ATOM      7  C   UNL     1       8.246   3.630  -3.514  0.00  0.00    -0.012 A 
ATOM      8  C   UNL     1       9.118   2.636  -3.110  0.00  0.00    +0.115 A 
ATOM      9  N   UNL     1       8.760   1.367  -3.153  0.00  0.00    -0.263 NA
ATOM     10  C   UNL     1       7.569   0.997  -3.579  0.00  0.00    +0.111 A 
ATOM     11  C   UNL     1       6.644   1.935  -3.999  0.00  0.00    +0.020 A 
ATOM     12  C   UNL     1       6.982   3.279  -3.963  0.00  0.00    +0.008 A 
ENDBRANCH   3   7
TORSDOF 1
ENDMDL
MODEL 5
REMARK VINA RESULT:    -3.649      2.664      4.384
REMARK INTER + INTRA:          -4.115
REMARK INTER:                  -3.900
REMARK INTRA:                  -0.215
REMARK UNBOUND:                -0.253
REMARK  Name = Nicotine.pdb
REMARK  2 active torsions:
REMARK  status: ('A' for Active; 'I' for Inactive)
REMARK    1  A    between atoms: C_3  and  C_6
REMARK    2  A    between atoms: N_4  and  C_12
REMARK                            x       y       z     vdW  Elec       q    Type
REMARK                         _______ _______ _______ _____ _____    ______ ____
ROOT
ATOM      1  C   UNL     1       7.925   0.284  -4.277  0.00  0.00    +0.017 C 
ATOM      2  C   UNL     1       7.951   1.527  -3.349  0.00  0.00    +0.025 C 
ATOM      3  C   UNL     1       6.711   2.325  -3.802  0.00  0.00    +0.088 C 
ATOM      4  N   UNL     1       6.393   1.896  -5.176  0.00  0.00    -0.298 NA
ATOM      5  C   UNL     1       7.392   0.892  -5.599  0.00  0.00    +0.085 C 
ATOM      6  C   UNL     1       5.032   1.351  -5.257  0.00  0.00    +0.105 C 
ENDROOT
BRANCH   3   7
ATOM      7  C   UNL     1       7.015   3.801  -3.782  0.00  0.00    -0.012 A 
ATOM      8  C   UNL     1       8.324   4.245  -3.807  0.00  0.00    +0.115 A 
ATOM      9  N   UNL     1       8.599   5.535  -3.790  0.00  0.00    -0.263 NA
ATOM     10  C   UNL     1       7.647   6.446  -3.748  0.00  0.00    +0.111 A 
ATOM     11  C   UNL     1       6.315   6.077  -3.722  0.00  0.00    +0.020 A 
ATOM     12  C   UNL     1       5.987   4.730  -3.744  0.00  0.00    +0.008 A 
ENDBRANCH   3   7
TORSDOF 1
ENDMDL
MODEL 6
REMARK VINA RESULT:    -3.626      2.996      4.782
REMARK INTER + INTRA:          -4.091
REMARK INTER:                  -3.878
REMARK INTRA:                  -0.213
REMARK UNBOUND:                -0.253
REMARK  Name = Nicotine.pdb
REMARK  2 active torsions:
REMARK  status: ('A' for Active; 'I' for Inactive)
REMARK    1  A    between atoms: C_3  and  C_6
REMARK    2  A    between atoms: N_4  and  C_12
REMARK                            x       y       z     vdW  Elec       q    Type
REMARK                         _______ _______ _______ _____ _____    ______ ____
ROOT
ATOM      1  C   UNL     1       7.218   1.023  -3.948  0.00  0.00    +0.017 C 
ATOM      2  C   UNL     1       6.709   2.485  -3.849  0.00  0.00    +0.025 C 
ATOM      3  C   UNL     1       7.938   3.311  -4.283  0.00  0.00    +0.088 C 
ATOM      4  N   UNL     1       9.128   2.468  -4.068  0.00  0.00    -0.298 NA
ATOM      5  C   UNL     1       8.693   1.175  -3.500  0.00  0.00    +0.085 C 
ATOM      6  C   UNL     1       9.868   2.272  -5.321  0.00  0.00    +0.105 C 
ENDROOT
BRANCH   3   7
ATOM      7  C   UNL     1       8.036   4.562  -3.448  0.00  0.00    -0.012 A 
ATOM      8  C   UNL     1       7.006   5.483  -3.445  0.00  0.00    +0.115 A 
ATOM      9  N   UNL     1       7.084   6.580  -2.717  0.00  0.00    -0.263 NA
ATOM     10  C   UNL     1       8.137   6.842  -1.969  0.00  0.00    +0.111 A 
ATOM     11  C   UNL     1       9.207   5.967  -1.921  0.00  0.00    +0.020 A 
ATOM     12  C   UNL     1       9.158   4.800  -2.669  0.00  0.00    +0.008 A 
ENDBRANCH   3   7
TORSDOF 1
ENDMDL
MODEL 7
REMARK VINA RESULT:    -3.579      3.106      4.936
REMARK INTER + INTRA:          -4.041
REMARK INTER:                  -3.828
REMARK INTRA:                  -0.213
REMARK UNBOUND:                -0.253
REMARK  Name = Nicotine.pdb
REMARK  2 active torsions:
REMARK  status: ('A' for Active; 'I' for Inactive)
REMARK    1  A    between atoms: C_3  and  C_6
REMARK    2  A    between atoms: N_4  and  C_12
REMARK                            x       y       z     vdW  Elec       q    Type
REMARK                         _______ _______ _______ _____ _____    ______ ____
ROOT
ATOM      1  C   UNL     1       5.328   5.373  -6.243  0.00  0.00    +0.017 C 
ATOM      2  C   UNL     1       5.614   3.939  -5.723  0.00  0.00    +0.025 C 
ATOM      3  C   UNL     1       5.982   4.174  -4.242  0.00  0.00    +0.088 C 
ATOM      4  N   UNL     1       6.425   5.575  -4.119  0.00  0.00    -0.298 NA
ATOM      5  C   UNL     1       6.371   6.205  -5.456  0.00  0.00    +0.085 C 
ATOM      6  C   UNL     1       5.593   6.308  -3.157  0.00  0.00    +0.105 C 
ENDROOT
BRANCH   3   7
ATOM      7  C   UNL     1       7.097   3.245  -3.838  0.00  0.00    -0.012 A 
ATOM      8  C   UNL     1       8.353   3.745  -3.547  0.00  0.00    +0.115 A 
ATOM      9  N   UNL     1       9.334   2.939  -3.192  0.00  0.00    -0.263 NA
ATOM     10  C   UNL     1       9.161   1.635  -3.101  0.00  0.00    +0.111 A 
ATOM     11  C   UNL     1       7.933   1.063  -3.376  0.00  0.00    +0.020 A 
ATOM     12  C   UNL     1       6.876   1.880  -3.747  0.00  0.00    +0.008 A 
ENDBRANCH   3   7
TORSDOF 1
ENDMDL
MODEL 8
REMARK VINA RESULT:    -3.572      1.548      2.044
REMARK INTER + INTRA:          -4.034
REMARK INTER:                  -3.822
REMARK INTRA:                  -0.212
REMARK UNBOUND:                -0.253
REMARK  Name = Nicotine.pdb
REMARK  2 active torsions:
REMARK  status: ('A' for Active; 'I' for Inactive)
REMARK    1  A    between atoms: C_3  and  C_6
REMARK    2  A    between atoms: N_4  and  C_12
REMARK                            x       y       z     vdW  Elec       q    Type
REMARK                         _______ _______ _______ _____ _____    ______ ____
ROOT
ATOM      1  C   UNL     1       9.905   5.172  -3.338  0.00  0.00    +0.017 C 
ATOM      2  C   UNL     1       8.465   4.596  -3.373  0.00  0.00    +0.025 C 
ATOM      3  C   UNL     1       8.696   3.075  -3.241  0.00  0.00    +0.088 C 
ATOM      4  N   UNL     1      10.077   2.804  -3.679  0.00  0.00    -0.298 NA
ATOM      5  C   UNL     1      10.698   4.079  -4.097  0.00  0.00    +0.085 C 
ATOM      6  C   UNL     1      10.854   2.166  -2.609  0.00  0.00    +0.105 C 
ENDROOT
BRANCH   3   7
ATOM      7  C   UNL     1       7.723   2.331  -4.119  0.00  0.00    -0.012 A 
ATOM      8  C   UNL     1       8.167   1.657  -5.240  0.00  0.00    +0.115 A 
ATOM      9  N   UNL     1       7.322   1.003  -6.013  0.00  0.00    -0.263 NA
ATOM     10  C   UNL     1       6.031   0.965  -5.752  0.00  0.00    +0.111 A 
ATOM     11  C   UNL     1       5.513   1.616  -4.647  0.00  0.00    +0.020 A 
ATOM     12  C   UNL     1       6.372   2.309  -3.809  0.00  0.00    +0.008 A 
ENDBRANCH   3   7
TORSDOF 1
ENDMDL
MODEL 9
REMARK VINA RESULT:    -3.556      3.127      3.951
REMARK INTER + INTRA:          -4.017
REMARK INTER:                  -3.781
REMARK INTRA:                  -0.237
REMARK UNBOUND:                -0.253
REMARK  Name = Nicotine.pdb
REMARK  2 active torsions:
REMARK  status: ('A' for Active; 'I' for Inactive)
REMARK    1  A    between atoms: C_3  and  C_6
REMARK    2  A    between atoms: N_4  and  C_12
REMARK                            x       y       z     vdW  Elec       q    Type
REMARK                         _______ _______ _______ _____ _____    ______ ____
ROOT
ATOM      1  C   UNL     1       7.969   0.976  -3.142  0.00  0.00    +0.017 C 
ATOM      2  C   UNL     1       6.978   1.975  -3.796  0.00  0.00    +0.025 C 
ATOM      3  C   UNL     1       7.913   2.992  -4.483  0.00  0.00    +0.088 C 
ATOM      4  N   UNL     1       9.219   2.913  -3.803  0.00  0.00    -0.298 NA
ATOM      5  C   UNL     1       9.125   1.915  -2.716  0.00  0.00    +0.085 C 
ATOM      6  C   UNL     1      10.285   2.562  -4.750  0.00  0.00    +0.105 C 
ENDROOT
BRANCH   3   7
ATOM      7  C   UNL     1       7.347   4.382  -4.347  0.00  0.00    -0.012 A 
ATOM      8  C   UNL     1       8.037   5.470  -4.848  0.00  0.00    +0.115 A 
ATOM      9  N   UNL     1       7.548   6.689  -4.734  0.00  0.00    -0.263 NA
ATOM     10  C   UNL     1       6.392   6.920  -4.143  0.00  0.00    +0.111 A 
ATOM     11  C   UNL     1       5.646   5.882  -3.618  0.00  0.00    +0.020 A 
ATOM     12  C   UNL     1       6.125   4.585  -3.724  0.00  0.00    +0.008 A 
ENDBRANCH   3   7
TORSDOF 1
ENDMDL
MODEL 10
REMARK VINA RESULT:    -3.383      3.100      4.087
REMARK INTER + INTRA:          -3.834
REMARK INTER:                  -3.597
REMARK INTRA:                  -0.237
REMARK UNBOUND:                -0.253
REMARK  Name = Nicotine.pdb
REMARK  2 active torsions:
REMARK  status: ('A' for Active; 'I' for Inactive)
REMARK    1  A    between atoms: C_3  and  C_6
REMARK    2  A    between atoms: N_4  and  C_12
REMARK                            x       y       z     vdW  Elec       q    Type
REMARK                         _______ _______ _______ _____ _____    ______ ____
ROOT
ATOM      1  C   UNL     1       6.391   6.866  -4.434  0.00  0.00    +0.017 C 
ATOM      2  C   UNL     1       6.058   5.501  -3.774  0.00  0.00    +0.025 C 
ATOM      3  C   UNL     1       7.452   4.924  -3.450  0.00  0.00    +0.088 C 
ATOM      4  N   UNL     1       8.419   5.588  -4.342  0.00  0.00    -0.298 NA
ATOM      5  C   UNL     1       7.685   6.528  -5.216  0.00  0.00    +0.085 C 
ATOM      6  C   UNL     1       9.455   6.287  -3.570  0.00  0.00    +0.105 C 
ENDROOT
BRANCH   3   7
ATOM      7  C   UNL     1       7.462   3.437  -3.698  0.00  0.00    -0.012 A 
ATOM      8  C   UNL     1       8.622   2.707  -3.525  0.00  0.00    +0.115 A 
ATOM      9  N   UNL     1       8.639   1.406  -3.740  0.00  0.00    -0.263 NA
ATOM     10  C   UNL     1       7.560   0.753  -4.125  0.00  0.00    +0.111 A 
ATOM     11  C   UNL     1       6.362   1.417  -4.317  0.00  0.00    +0.020 A 
ATOM     12  C   UNL     1       6.305   2.784  -4.096  0.00  0.00    +0.008 A 
ENDBRANCH   3   7
TORSDOF 1
ENDMDL
