MODEL 1
REMARK VINA RESULT:    -4.171      0.000      0.000
REMARK INTER + INTRA:          -4.611
REMARK INTER:                  -4.414
REMARK INTRA:                  -0.196
REMARK UNBOUND:                -0.196
REMARK  Name = Nicotine.pdb
REMARK  2 active torsions:
REMARK  status: ('A' for Active; 'I' for Inactive)
REMARK    1  A    between atoms: C_3  and  C_6
REMARK    2  A    between atoms: N_4  and  C_12
REMARK                            x       y       z     vdW  Elec       q    Type
REMARK                         _______ _______ _______ _____ _____    ______ ____
ROOT
ATOM      1  C   UNL     1       8.435  -2.882  -7.256  0.00  0.00    +0.017 C 
ATOM      2  C   UNL     1       8.756  -4.155  -6.430  0.00  0.00    +0.025 C 
ATOM      3  C   UNL     1       8.225  -3.799  -5.024  0.00  0.00    +0.088 C 
ATOM      4  N   UNL     1       8.170  -2.329  -4.937  0.00  0.00    -0.298 NA
ATOM      5  C   UNL     1       8.665  -1.763  -6.210  0.00  0.00    +0.085 C 
ATOM      6  C   UNL     1       6.805  -1.868  -4.651  0.00  0.00    +0.105 C 
ENDROOT
BRANCH   3   7
ATOM      7  C   UNL     1       9.156  -4.343  -3.972  0.00  0.00    -0.012 A 
ATOM      8  C   UNL     1       9.685  -5.614  -4.096  0.00  0.00    +0.115 A 
ATOM      9  N   UNL     1      10.501  -6.097  -3.179  0.00  0.00    -0.263 NA
ATOM     10  C   UNL     1      10.842  -5.396  -2.116  0.00  0.00    +0.111 A 
ATOM     11  C   UNL     1      10.353  -4.117  -1.925  0.00  0.00    +0.020 A 
ATOM     12  C   UNL     1       9.497  -3.574  -2.870  0.00  0.00    +0.008 A 
ENDBRANCH   3   7
TORSDOF 1
ENDMDL
MODEL 2
REMARK VINA RESULT:    -3.272      1.691      4.258
REMARK INTER + INTRA:          -3.660
REMARK INTER:                  -3.445
REMARK INTRA:                  -0.215
REMARK UNBOUND:                -0.196
REMARK  Name = Nicotine.pdb
REMARK  2 active torsions:
REMARK  status: ('A' for Active; 'I' for Inactive)
REMARK    1  A    between atoms: C_3  and  C_6
REMARK    2  A    between atoms: N_4  and  C_12
REMARK                            x       y       z     vdW  Elec       q    Type
REMARK                         _______ _______ _______ _____ _____    ______ ____
ROOT
ATOM      1  C   UNL     1      10.310  -4.350  -1.916  0.00  0.00    +0.017 C 
ATOM      2  C   UNL     1      10.053  -5.220  -3.175  0.00  0.00    +0.025 C 
ATOM      3  C   UNL     1      10.112  -4.191  -4.325  0.00  0.00    +0.088 C 
ATOM      4  N   UNL     1       9.837  -2.866  -3.740  0.00  0.00    -0.298 NA
ATOM      5  C   UNL     1       9.587  -3.033  -2.293  0.00  0.00    +0.085 C 
ATOM      6  C   UNL     1      10.954  -1.943  -3.980  0.00  0.00    +0.105 C 
ENDROOT
BRANCH   3   7
ATOM      7  C   UNL     1       9.071  -4.522  -5.362  0.00  0.00    -0.012 A 
ATOM      8  C   UNL     1       8.465  -3.515  -6.090  0.00  0.00    +0.115 A 
ATOM      9  N   UNL     1       7.553  -3.796  -7.000  0.00  0.00    -0.263 NA
ATOM     10  C   UNL     1       7.182  -5.036  -7.251  0.00  0.00    +0.111 A 
ATOM     11  C   UNL     1       7.744  -6.095  -6.563  0.00  0.00    +0.020 A 
ATOM     12  C   UNL     1       8.711  -5.839  -5.603  0.00  0.00    +0.008 A 
ENDBRANCH   3   7
TORSDOF 1
ENDMDL
MODEL 3
REMARK VINA RESULT:    -3.149      1.293      4.423
REMARK INTER + INTRA:          -3.529
REMARK INTER:                  -3.314
REMARK INTRA:                  -0.215
REMARK UNBOUND:                -0.196
REMARK  Name = Nicotine.pdb
REMARK  2 active torsions:
REMARK  status: ('A' for Active; 'I' for Inactive)
REMARK    1  A    between atoms: C_3  and  C_6
REMARK    2  A    between atoms: N_4  and  C_12
REMARK                            x       y       z     vdW  Elec       q    Type
REMARK                         _______ _______ _______ _____ _____    ______ ____
ROOT
ATOM      1  C   UNL     1      10.926  -3.856  -1.656  0.00  0.00    +0.017 C 
ATOM      2  C   UNL     1      10.098  -2.883  -2.536  0.00  0.00    +0.025 C 
ATOM      3  C   UNL     1       9.064  -3.813  -3.204  0.00  0.00    +0.088 C 
ATOM      4  N   UNL     1       9.618  -5.178  -3.172  0.00  0.00    -0.298 NA
ATOM      5  C   UNL     1      10.954  -5.129  -2.540  0.00  0.00    +0.085 C 
ATOM      6  C   UNL     1       8.726  -6.093  -2.449  0.00  0.00    +0.105 C 
ENDROOT
BRANCH   3   7
ATOM      7  C   UNL     1       8.835  -3.385  -4.631  0.00  0.00    -0.012 A 
ATOM      8  C   UNL     1       8.487  -4.314  -5.592  0.00  0.00    +0.115 A 
ATOM      9  N   UNL     1       8.285  -3.947  -6.843  0.00  0.00    -0.263 NA
ATOM     10  C   UNL     1       8.406  -2.691  -7.225  0.00  0.00    +0.111 A 
ATOM     11  C   UNL     1       8.750  -1.706  -6.319  0.00  0.00    +0.020 A 
ATOM     12  C   UNL     1       8.965  -2.053  -4.994  0.00  0.00    +0.008 A 
ENDBRANCH   3   7
TORSDOF 1
ENDMDL
MODEL 4
REMARK VINA RESULT:    -2.520      1.559      4.357
REMARK INTER + INTRA:          -2.863
REMARK INTER:                  -2.636
REMARK INTRA:                  -0.227
REMARK UNBOUND:                -0.196
REMARK  Name = Nicotine.pdb
REMARK  2 active torsions:
REMARK  status: ('A' for Active; 'I' for Inactive)
REMARK    1  A    between atoms: C_3  and  C_6
REMARK    2  A    between atoms: N_4  and  C_12
REMARK                            x       y       z     vdW  Elec       q    Type
REMARK                         _______ _______ _______ _____ _____    ______ ____
ROOT
ATOM      1  C   UNL     1       9.079  -5.994  -5.396  0.00  0.00    +0.017 C 
ATOM      2  C   UNL     1       8.603  -4.655  -6.018  0.00  0.00    +0.025 C 
ATOM      3  C   UNL     1       9.241  -3.596  -5.093  0.00  0.00    +0.088 C 
ATOM      4  N   UNL     1       9.523  -4.254  -3.805  0.00  0.00    -0.298 NA
ATOM      5  C   UNL     1       9.066  -5.658  -3.883  0.00  0.00    +0.085 C 
ATOM      6  C   UNL     1      10.953  -4.183  -3.478  0.00  0.00    +0.105 C 
ENDROOT
BRANCH   3   7
ATOM      7  C   UNL     1       8.284  -2.452  -4.888  0.00  0.00    -0.012 A 
ATOM      8  C   UNL     1       8.680  -1.153  -5.148  0.00  0.00    +0.115 A 
ATOM      9  N   UNL     1       7.848  -0.146  -4.971  0.00  0.00    -0.263 NA
ATOM     10  C   UNL     1       6.615  -0.332  -4.541  0.00  0.00    +0.111 A 
ATOM     11  C   UNL     1       6.148  -1.602  -4.260  0.00  0.00    +0.020 A 
ATOM     12  C   UNL     1       6.993  -2.687  -4.440  0.00  0.00    +0.008 A 
ENDBRANCH   3   7
TORSDOF 1
ENDMDL
MODEL 5
REMARK VINA RESULT:    -2.507      1.434      2.262
REMARK INTER + INTRA:          -2.850
REMARK INTER:                  -2.598
REMARK INTRA:                  -0.252
REMARK UNBOUND:                -0.196
REMARK  Name = Nicotine.pdb
REMARK  2 active torsions:
REMARK  status: ('A' for Active; 'I' for Inactive)
REMARK    1  A    between atoms: C_3  and  C_6
REMARK    2  A    between atoms: N_4  and  C_12
REMARK                            x       y       z     vdW  Elec       q    Type
REMARK                         _______ _______ _______ _____ _____    ______ ____
ROOT
ATOM      1  C   UNL     1       6.822  -0.306  -4.673  0.00  0.00    +0.017 C 
ATOM      2  C   UNL     1       8.300  -0.679  -4.382  0.00  0.00    +0.025 C 
ATOM      3  C   UNL     1       8.445  -2.064  -5.047  0.00  0.00    +0.088 C 
ATOM      4  N   UNL     1       7.092  -2.639  -5.161  0.00  0.00    -0.298 NA
ATOM      5  C   UNL     1       6.125  -1.686  -4.575  0.00  0.00    +0.085 C 
ATOM      6  C   UNL     1       6.761  -2.933  -6.561  0.00  0.00    +0.105 C 
ENDROOT
BRANCH   3   7
ATOM      7  C   UNL     1       9.311  -2.954  -4.194  0.00  0.00    -0.012 A 
ATOM      8  C   UNL     1      10.183  -3.852  -4.781  0.00  0.00    +0.115 A 
ATOM      9  N   UNL     1      10.944  -4.635  -4.042  0.00  0.00    -0.263 NA
ATOM     10  C   UNL     1      10.907  -4.594  -2.724  0.00  0.00    +0.111 A 
ATOM     11  C   UNL     1      10.061  -3.721  -2.067  0.00  0.00    +0.020 A 
ATOM     12  C   UNL     1       9.249  -2.879  -2.811  0.00  0.00    +0.008 A 
ENDBRANCH   3   7
TORSDOF 1
ENDMDL
MODEL 6
REMARK VINA RESULT:    -2.159      1.779      4.564
REMARK INTER + INTRA:          -2.481
REMARK INTER:                  -2.285
REMARK INTRA:                  -0.196
REMARK UNBOUND:                -0.196
REMARK  Name = Nicotine.pdb
REMARK  2 active torsions:
REMARK  status: ('A' for Active; 'I' for Inactive)
REMARK    1  A    between atoms: C_3  and  C_6
REMARK    2  A    between atoms: N_4  and  C_12
REMARK                            x       y       z     vdW  Elec       q    Type
REMARK                         _______ _______ _______ _____ _____    ______ ____
ROOT
ATOM      1  C   UNL     1      10.760  -4.806  -2.162  0.00  0.00    +0.017 C 
ATOM      2  C   UNL     1       9.626  -3.758  -2.011  0.00  0.00    +0.025 C 
ATOM      3  C   UNL     1       8.743  -4.020  -3.250  0.00  0.00    +0.088 C 
ATOM      4  N   UNL     1       9.587  -4.697  -4.252  0.00  0.00    -0.298 NA
ATOM      5  C   UNL     1      10.951  -4.841  -3.699  0.00  0.00    +0.085 C 
ATOM      6  C   UNL     1       9.025  -6.004  -4.617  0.00  0.00    +0.105 C 
ENDROOT
BRANCH   3   7
ATOM      7  C   UNL     1       8.236  -2.714  -3.803  0.00  0.00    -0.012 A 
ATOM      8  C   UNL     1       9.105  -1.661  -4.018  0.00  0.00    +0.115 A 
ATOM      9  N   UNL     1       8.669  -0.514  -4.502  0.00  0.00    -0.263 NA
ATOM     10  C   UNL     1       7.398  -0.326  -4.798  0.00  0.00    +0.111 A 
ATOM     11  C   UNL     1       6.471  -1.333  -4.611  0.00  0.00    +0.020 A 
ATOM     12  C   UNL     1       6.893  -2.555  -4.109  0.00  0.00    +0.008 A 
ENDBRANCH   3   7
TORSDOF 1
ENDMDL
