MODEL 1
REMARK VINA RESULT:     0.000      0.000      0.000
REMARK INTER + INTRA:          -0.256
REMARK INTER:                   0.000
REMARK INTRA:                  -0.256
REMARK UNBOUND:                -0.256
REMARK  Name = Nicotine.pdb
REMARK  2 active torsions:
REMARK  status: ('A' for Active; 'I' for Inactive)
REMARK    1  A    between atoms: C_3  and  C_6
REMARK    2  A    between atoms: N_4  and  C_12
REMARK                            x       y       z     vdW  Elec       q    Type
REMARK                         _______ _______ _______ _____ _____    ______ ____
ROOT
ATOM      1  C   UNL     1       3.417   1.916  -0.790  0.00  0.00    +0.017 C 
ATOM      2  C   UNL     1       4.700   2.786  -0.746  0.00  0.00    +0.025 C 
ATOM      3  C   UNL     1       4.593   3.628  -2.035  0.00  0.00    +0.088 C 
ATOM      4  N   UNL     1       3.700   2.904  -2.958  0.00  0.00    -0.298 NA
ATOM      5  C   UNL     1       3.274   1.645  -2.309  0.00  0.00    +0.085 C 
ATOM      6  C   UNL     1       2.541   3.727  -3.325  0.00  0.00    +0.105 C 
ENDROOT
BRANCH   3   7
ATOM      7  C   UNL     1       5.956   3.788  -2.658  0.00  0.00    -0.012 A 
ATOM      8  C   UNL     1       6.206   4.826  -3.536  0.00  0.00    +0.115 A 
ATOM      9  N   UNL     1       7.395   4.973  -4.085  0.00  0.00    -0.263 NA
ATOM     10  C   UNL     1       8.387   4.145  -3.824  0.00  0.00    +0.111 A 
ATOM     11  C   UNL     1       8.212   3.084  -2.955  0.00  0.00    +0.020 A 
ATOM     12  C   UNL     1       6.976   2.900  -2.354  0.00  0.00    +0.008 A 
ENDBRANCH   3   7
TORSDOF 1
ENDMDL
MODEL 2
REMARK VINA RESULT:     0.000      2.156      2.287
REMARK INTER + INTRA:          -0.256
REMARK INTER:                   0.000
REMARK INTRA:                  -0.256
REMARK UNBOUND:                -0.256
REMARK  Name = Nicotine.pdb
REMARK  2 active torsions:
REMARK  status: ('A' for Active; 'I' for Inactive)
REMARK    1  A    between atoms: C_3  and  C_6
REMARK    2  A    between atoms: N_4  and  C_12
REMARK                            x       y       z     vdW  Elec       q    Type
REMARK                         _______ _______ _______ _____ _____    ______ ____
ROOT
ATOM      1  C   UNL     1       3.958   1.192  -2.110  0.00  0.00    +0.017 C 
ATOM      2  C   UNL     1       5.033   2.218  -2.553  0.00  0.00    +0.025 C 
ATOM      3  C   UNL     1       4.292   3.062  -3.612  0.00  0.00    +0.088 C 
ATOM      4  N   UNL     1       3.174   2.245  -4.117  0.00  0.00    -0.298 NA
ATOM      5  C   UNL     1       3.206   0.931  -3.439  0.00  0.00    +0.085 C 
ATOM      6  C   UNL     1       1.888   2.919  -3.898  0.00  0.00    +0.105 C 
ENDROOT
BRANCH   3   7
ATOM      7  C   UNL     1       5.229   3.405  -4.742  0.00  0.00    -0.012 A 
ATOM      8  C   UNL     1       4.963   4.481  -5.567  0.00  0.00    +0.115 A 
ATOM      9  N   UNL     1       5.778   4.789  -6.558  0.00  0.00    -0.263 NA
ATOM     10  C   UNL     1       6.869   4.089  -6.800  0.00  0.00    +0.111 A 
ATOM     11  C   UNL     1       7.200   2.999  -6.017  0.00  0.00    +0.020 A 
ATOM     12  C   UNL     1       6.370   2.649  -4.963  0.00  0.00    +0.008 A 
ENDBRANCH   3   7
TORSDOF 1
ENDMDL
MODEL 3
REMARK VINA RESULT:     0.000      5.282      6.797
REMARK INTER + INTRA:          -0.256
REMARK INTER:                   0.000
REMARK INTRA:                  -0.256
REMARK UNBOUND:                -0.256
REMARK  Name = Nicotine.pdb
REMARK  2 active torsions:
REMARK  status: ('A' for Active; 'I' for Inactive)
REMARK    1  A    between atoms: C_3  and  C_6
REMARK    2  A    between atoms: N_4  and  C_12
REMARK                            x       y       z     vdW  Elec       q    Type
REMARK                         _______ _______ _______ _____ _____    ______ ____
ROOT
ATOM      1  C   UNL     1       1.645  -2.791   1.252  0.00  0.00    +0.017 C 
ATOM      2  C   UNL     1       2.666  -2.772   0.084  0.00  0.00    +0.025 C 
ATOM      3  C   UNL     1       4.019  -2.966   0.803  0.00  0.00    +0.088 C 
ATOM      4  N   UNL     1       3.834  -2.546   2.204  0.00  0.00    -0.298 NA
ATOM      5  C   UNL     1       2.441  -2.080   2.375  0.00  0.00    +0.085 C 
ATOM      6  C   UNL     1       4.139  -3.646   3.128  0.00  0.00    +0.105 C 
ENDROOT
BRANCH   3   7
ATOM      7  C   UNL     1       5.075  -2.114   0.146  0.00  0.00    -0.012 A 
ATOM      8  C   UNL     1       6.414  -2.421   0.297  0.00  0.00    +0.115 A 
ATOM      9  N   UNL     1       7.344  -1.682  -0.274  0.00  0.00    -0.263 NA
ATOM     10  C   UNL     1       7.039  -0.628  -1.005  0.00  0.00    +0.111 A 
ATOM     11  C   UNL     1       5.721  -0.259  -1.201  0.00  0.00    +0.020 A 
ATOM     12  C   UNL     1       4.716  -1.017  -0.621  0.00  0.00    +0.008 A 
ENDBRANCH   3   7
TORSDOF 1
ENDMDL
MODEL 4
REMARK VINA RESULT:     0.000      2.505      3.324
REMARK INTER + INTRA:          -0.256
REMARK INTER:                   0.000
REMARK INTRA:                  -0.256
REMARK UNBOUND:                -0.256
REMARK  Name = Nicotine.pdb
REMARK  2 active torsions:
REMARK  status: ('A' for Active; 'I' for Inactive)
REMARK    1  A    between atoms: C_3  and  C_6
REMARK    2  A    between atoms: N_4  and  C_12
REMARK                            x       y       z     vdW  Elec       q    Type
REMARK                         _______ _______ _______ _____ _____    ______ ____
ROOT
ATOM      1  C   UNL     1       4.567   2.020  -3.596  0.00  0.00    +0.017 C 
ATOM      2  C   UNL     1       4.502   2.269  -2.066  0.00  0.00    +0.025 C 
ATOM      3  C   UNL     1       4.138   3.766  -1.973  0.00  0.00    +0.088 C 
ATOM      4  N   UNL     1       4.538   4.393  -3.246  0.00  0.00    -0.298 NA
ATOM      5  C   UNL     1       5.153   3.360  -4.107  0.00  0.00    +0.085 C 
ATOM      6  C   UNL     1       3.387   5.016  -3.912  0.00  0.00    +0.105 C 
ENDROOT
BRANCH   3   7
ATOM      7  C   UNL     1       4.882   4.405  -0.830  0.00  0.00    -0.012 A 
ATOM      8  C   UNL     1       4.422   5.580  -0.265  0.00  0.00    +0.115 A 
ATOM      9  N   UNL     1       5.067   6.145   0.736  0.00  0.00    -0.263 NA
ATOM     10  C   UNL     1       6.167   5.619   1.237  0.00  0.00    +0.111 A 
ATOM     11  C   UNL     1       6.687   4.445   0.724  0.00  0.00    +0.020 A 
ATOM     12  C   UNL     1       6.033   3.819  -0.326  0.00  0.00    +0.008 A 
ENDBRANCH   3   7
TORSDOF 1
ENDMDL
MODEL 5
REMARK VINA RESULT:     0.000      5.064      8.355
REMARK INTER + INTRA:          -0.256
REMARK INTER:                   0.000
REMARK INTRA:                  -0.256
REMARK UNBOUND:                -0.256
REMARK  Name = Nicotine.pdb
REMARK  2 active torsions:
REMARK  status: ('A' for Active; 'I' for Inactive)
REMARK    1  A    between atoms: C_3  and  C_6
REMARK    2  A    between atoms: N_4  and  C_12
REMARK                            x       y       z     vdW  Elec       q    Type
REMARK                         _______ _______ _______ _____ _____    ______ ____
ROOT
ATOM      1  C   UNL     1       1.873   1.523  -2.214  0.00  0.00    +0.017 C 
ATOM      2  C   UNL     1       0.381   1.843  -1.934  0.00  0.00    +0.025 C 
ATOM      3  C   UNL     1       0.179   1.326  -0.494  0.00  0.00    +0.088 C 
ATOM      4  N   UNL     1       1.230   0.325  -0.237  0.00  0.00    -0.298 NA
ATOM      5  C   UNL     1       2.053   0.183  -1.458  0.00  0.00    +0.085 C 
ATOM      6  C   UNL     1       2.057   0.712   0.913  0.00  0.00    +0.105 C 
ENDROOT
BRANCH   3   7
ATOM      7  C   UNL     1      -1.180   0.688  -0.364  0.00  0.00    -0.012 A 
ATOM      8  C   UNL     1      -1.772   0.551   0.878  0.00  0.00    +0.115 A 
ATOM      9  N   UNL     1      -2.961  -0.006   1.001  0.00  0.00    -0.263 NA
ATOM     10  C   UNL     1      -3.629  -0.451  -0.045  0.00  0.00    +0.111 A 
ATOM     11  C   UNL     1      -3.101  -0.347  -1.319  0.00  0.00    +0.020 A 
ATOM     12  C   UNL     1      -1.856   0.238  -1.487  0.00  0.00    +0.008 A 
ENDBRANCH   3   7
TORSDOF 1
ENDMDL
MODEL 6
REMARK VINA RESULT:     0.000      7.800      8.372
REMARK INTER + INTRA:          -0.256
REMARK INTER:                   0.000
REMARK INTRA:                  -0.256
REMARK UNBOUND:                -0.256
REMARK  Name = Nicotine.pdb
REMARK  2 active torsions:
REMARK  status: ('A' for Active; 'I' for Inactive)
REMARK    1  A    between atoms: C_3  and  C_6
REMARK    2  A    between atoms: N_4  and  C_12
REMARK                            x       y       z     vdW  Elec       q    Type
REMARK                         _______ _______ _______ _____ _____    ______ ____
ROOT
ATOM      1  C   UNL     1       2.065  -4.457   0.678  0.00  0.00    +0.017 C 
ATOM      2  C   UNL     1       3.347  -3.639   0.986  0.00  0.00    +0.025 C 
ATOM      3  C   UNL     1       4.225  -3.889  -0.259  0.00  0.00    +0.088 C 
ATOM      4  N   UNL     1       3.755  -5.139  -0.882  0.00  0.00    -0.298 NA
ATOM      5  C   UNL     1       2.647  -5.684  -0.067  0.00  0.00    +0.085 C 
ATOM      6  C   UNL     1       3.326  -4.909  -2.267  0.00  0.00    +0.105 C 
ENDROOT
BRANCH   3   7
ATOM      7  C   UNL     1       5.668  -4.030   0.152  0.00  0.00    -0.012 A 
ATOM      8  C   UNL     1       6.680  -3.821  -0.766  0.00  0.00    +0.115 A 
ATOM      9  N   UNL     1       7.945  -3.942  -0.415  0.00  0.00    -0.263 NA
ATOM     10  C   UNL     1       8.295  -4.266   0.814  0.00  0.00    +0.111 A 
ATOM     11  C   UNL     1       7.339  -4.490   1.786  0.00  0.00    +0.020 A 
ATOM     12  C   UNL     1       5.998  -4.366   1.456  0.00  0.00    +0.008 A 
ENDBRANCH   3   7
TORSDOF 1
ENDMDL
MODEL 7
REMARK VINA RESULT:     0.000      8.475      9.976
REMARK INTER + INTRA:          -0.256
REMARK INTER:                   0.000
REMARK INTRA:                  -0.256
REMARK UNBOUND:                -0.256
REMARK  Name = Nicotine.pdb
REMARK  2 active torsions:
REMARK  status: ('A' for Active; 'I' for Inactive)
REMARK    1  A    between atoms: C_3  and  C_6
REMARK    2  A    between atoms: N_4  and  C_12
REMARK                            x       y       z     vdW  Elec       q    Type
REMARK                         _______ _______ _______ _____ _____    ______ ____
ROOT
ATOM      1  C   UNL     1      -4.038  -1.651   2.826  0.00  0.00    +0.017 C 
ATOM      2  C   UNL     1      -3.292  -2.718   1.982  0.00  0.00    +0.025 C 
ATOM      3  C   UNL     1      -1.807  -2.402   2.259  0.00  0.00    +0.088 C 
ATOM      4  N   UNL     1      -1.733  -0.999   2.702  0.00  0.00    -0.298 NA
ATOM      5  C   UNL     1      -3.097  -0.428   2.688  0.00  0.00    +0.085 C 
ATOM      6  C   UNL     1      -1.135  -0.899   4.040  0.00  0.00    +0.105 C 
ENDROOT
BRANCH   3   7
ATOM      7  C   UNL     1      -1.000  -2.586   0.999  0.00  0.00    -0.012 A 
ATOM      8  C   UNL     1       0.364  -2.797   1.067  0.00  0.00    +0.115 A 
ATOM      9  N   UNL     1       1.077  -2.959  -0.031  0.00  0.00    -0.263 NA
ATOM     10  C   UNL     1       0.524  -2.926  -1.227  0.00  0.00    +0.111 A 
ATOM     11  C   UNL     1      -0.835  -2.721  -1.374  0.00  0.00    +0.020 A 
ATOM     12  C   UNL     1      -1.618  -2.552  -0.242  0.00  0.00    +0.008 A 
ENDBRANCH   3   7
TORSDOF 1
ENDMDL
MODEL 8
REMARK VINA RESULT:     0.000      6.856      7.573
REMARK INTER + INTRA:          -0.256
REMARK INTER:                   0.000
REMARK INTRA:                  -0.256
REMARK UNBOUND:                -0.256
REMARK  Name = Nicotine.pdb
REMARK  2 active torsions:
REMARK  status: ('A' for Active; 'I' for Inactive)
REMARK    1  A    between atoms: C_3  and  C_6
REMARK    2  A    between atoms: N_4  and  C_12
REMARK                            x       y       z     vdW  Elec       q    Type
REMARK                         _______ _______ _______ _____ _____    ______ ____
ROOT
ATOM      1  C   UNL     1      -0.365  -2.758   1.602  0.00  0.00    +0.017 C 
ATOM      2  C   UNL     1      -0.152  -1.653   2.669  0.00  0.00    +0.025 C 
ATOM      3  C   UNL     1      -0.042  -0.368   1.821  0.00  0.00    +0.088 C 
ATOM      4  N   UNL     1       0.354  -0.775   0.461  0.00  0.00    -0.298 NA
ATOM      5  C   UNL     1       0.518  -2.244   0.438  0.00  0.00    +0.085 C 
ATOM      6  C   UNL     1      -0.639  -0.340  -0.530  0.00  0.00    +0.105 C 
ENDROOT
BRANCH   3   7
ATOM      7  C   UNL     1       1.001   0.547   2.408  0.00  0.00    -0.012 A 
ATOM      8  C   UNL     1       0.987   1.899   2.122  0.00  0.00    +0.115 A 
ATOM      9  N   UNL     1       1.896   2.706   2.632  0.00  0.00    -0.263 NA
ATOM     10  C   UNL     1       2.848   2.262   3.429  0.00  0.00    +0.111 A 
ATOM     11  C   UNL     1       2.926   0.923   3.761  0.00  0.00    +0.020 A 
ATOM     12  C   UNL     1       1.984   0.044   3.248  0.00  0.00    +0.008 A 
ENDBRANCH   3   7
TORSDOF 1
ENDMDL
MODEL 9
REMARK VINA RESULT:     0.000      5.496      6.843
REMARK INTER + INTRA:          -0.256
REMARK INTER:                   0.000
REMARK INTRA:                  -0.256
REMARK UNBOUND:                -0.256
REMARK  Name = Nicotine.pdb
REMARK  2 active torsions:
REMARK  status: ('A' for Active; 'I' for Inactive)
REMARK    1  A    between atoms: C_3  and  C_6
REMARK    2  A    between atoms: N_4  and  C_12
REMARK                            x       y       z     vdW  Elec       q    Type
REMARK                         _______ _______ _______ _____ _____    ______ ____
ROOT
ATOM      1  C   UNL     1       3.402   6.204   1.139  0.00  0.00    +0.017 C 
ATOM      2  C   UNL     1       3.820   4.716   1.272  0.00  0.00    +0.025 C 
ATOM      3  C   UNL     1       3.536   4.407   2.758  0.00  0.00    +0.088 C 
ATOM      4  N   UNL     1       3.537   5.693   3.479  0.00  0.00    -0.298 NA
ATOM      5  C   UNL     1       3.832   6.774   2.514  0.00  0.00    +0.085 C 
ATOM      6  C   UNL     1       2.250   5.922   4.149  0.00  0.00    +0.105 C 
ENDROOT
BRANCH   3   7
ATOM      7  C   UNL     1       4.612   3.508   3.309  0.00  0.00    -0.012 A 
ATOM      8  C   UNL     1       4.376   2.747   4.438  0.00  0.00    +0.115 A 
ATOM      9  N   UNL     1       5.313   1.957   4.927  0.00  0.00    -0.263 NA
ATOM     10  C   UNL     1       6.502   1.862   4.366  0.00  0.00    +0.111 A 
ATOM     11  C   UNL     1       6.811   2.593   3.234  0.00  0.00    +0.020 A 
ATOM     12  C   UNL     1       5.850   3.430   2.688  0.00  0.00    +0.008 A 
ENDBRANCH   3   7
TORSDOF 1
ENDMDL
MODEL 10
REMARK VINA RESULT:     0.000      8.325      9.297
REMARK INTER + INTRA:          -0.256
REMARK INTER:                   0.000
REMARK INTRA:                  -0.256
REMARK UNBOUND:                -0.256
REMARK  Name = Nicotine.pdb
REMARK  2 active torsions:
REMARK  status: ('A' for Active; 'I' for Inactive)
REMARK    1  A    between atoms: C_3  and  C_6
REMARK    2  A    between atoms: N_4  and  C_12
REMARK                            x       y       z     vdW  Elec       q    Type
REMARK                         _______ _______ _______ _____ _____    ______ ____
ROOT
ATOM      1  C   UNL     1      -1.251   0.694   4.686  0.00  0.00    +0.017 C 
ATOM      2  C   UNL     1       0.037  -0.007   4.181  0.00  0.00    +0.025 C 
ATOM      3  C   UNL     1      -0.243  -0.207   2.676  0.00  0.00    +0.088 C 
ATOM      4  N   UNL     1      -1.706  -0.174   2.496  0.00  0.00    -0.298 NA
ATOM      5  C   UNL     1      -2.339   0.011   3.819  0.00  0.00    +0.085 C 
ATOM      6  C   UNL     1      -2.099   0.896   1.570  0.00  0.00    +0.105 C 
ENDROOT
BRANCH   3   7
ATOM      7  C   UNL     1       0.300  -1.538   2.225  0.00  0.00    -0.012 A 
ATOM      8  C   UNL     1       0.572  -1.766   0.890  0.00  0.00    +0.115 A 
ATOM      9  N   UNL     1       1.048  -2.928   0.487  0.00  0.00    -0.263 NA
ATOM     10  C   UNL     1       1.282  -3.912   1.333  0.00  0.00    +0.111 A 
ATOM     11  C   UNL     1       1.034  -3.757   2.684  0.00  0.00    +0.020 A 
ATOM     12  C   UNL     1       0.539  -2.547   3.145  0.00  0.00    +0.008 A 
ENDBRANCH   3   7
TORSDOF 1
ENDMDL
