MODEL 1
REMARK VINA RESULT:     2.830      0.000      0.000
REMARK INTER + INTRA:           2.798
REMARK INTER:                   2.996
REMARK INTRA:                  -0.198
REMARK UNBOUND:                -0.198
REMARK  Name = Nicotine.pdb
REMARK  2 active torsions:
REMARK  status: ('A' for Active; 'I' for Inactive)
REMARK    1  A    between atoms: C_3  and  C_6
REMARK    2  A    between atoms: N_4  and  C_12
REMARK                            x       y       z     vdW  Elec       q    Type
REMARK                         _______ _______ _______ _____ _____    ______ ____
ROOT
ATOM      1  C   UNL     1      -0.754   3.568   0.406  0.00  0.00    +0.017 C 
ATOM      2  C   UNL     1       0.770   3.278   0.372  0.00  0.00    +0.025 C 
ATOM      3  C   UNL     1       0.876   2.086  -0.602  0.00  0.00    +0.088 C 
ATOM      4  N   UNL     1      -0.442   1.427  -0.630  0.00  0.00    -0.298 NA
ATOM      5  C   UNL     1      -1.345   2.140   0.298  0.00  0.00    +0.085 C 
ATOM      6  C   UNL     1      -0.994   1.408  -1.991  0.00  0.00    +0.105 C 
ENDROOT
BRANCH   3   7
ATOM      7  C   UNL     1       1.924   1.119  -0.117  0.00  0.00    -0.012 A 
ATOM      8  C   UNL     1       3.136   1.015  -0.773  0.00  0.00    +0.115 A 
ATOM      9  N   UNL     1       4.059   0.170  -0.355  0.00  0.00    -0.263 NA
ATOM     10  C   UNL     1       3.867  -0.602   0.696  0.00  0.00    +0.111 A 
ATOM     11  C   UNL     1       2.680  -0.553   1.403  0.00  0.00    +0.020 A 
ATOM     12  C   UNL     1       1.688   0.326   0.996  0.00  0.00    +0.008 A 
ENDBRANCH   3   7
TORSDOF 1
ENDMDL
MODEL 2
REMARK VINA RESULT:     2.999      2.993      4.381
REMARK INTER + INTRA:           2.976
REMARK INTER:                   3.218
REMARK INTRA:                  -0.242
REMARK UNBOUND:                -0.198
REMARK  Name = Nicotine.pdb
REMARK  2 active torsions:
REMARK  status: ('A' for Active; 'I' for Inactive)
REMARK    1  A    between atoms: C_3  and  C_6
REMARK    2  A    between atoms: N_4  and  C_12
REMARK                            x       y       z     vdW  Elec       q    Type
REMARK                         _______ _______ _______ _____ _____    ______ ____
ROOT
ATOM      1  C   UNL     1      -1.122   2.832   0.276  0.00  0.00    +0.017 C 
ATOM      2  C   UNL     1      -0.534   4.222  -0.083  0.00  0.00    +0.025 C 
ATOM      3  C   UNL     1       0.927   3.895  -0.458  0.00  0.00    +0.088 C 
ATOM      4  N   UNL     1       1.264   2.610   0.181  0.00  0.00    -0.298 NA
ATOM      5  C   UNL     1       0.091   2.144   0.950  0.00  0.00    +0.085 C 
ATOM      6  C   UNL     1       1.667   1.614  -0.820  0.00  0.00    +0.105 C 
ENDROOT
BRANCH   3   7
ATOM      7  C   UNL     1       1.842   4.978   0.051  0.00  0.00    -0.012 A 
ATOM      8  C   UNL     1       2.836   5.491  -0.760  0.00  0.00    +0.115 A 
ATOM      9  N   UNL     1       3.642   6.440  -0.322  0.00  0.00    -0.263 NA
ATOM     10  C   UNL     1       3.533   6.933   0.896  0.00  0.00    +0.111 A 
ATOM     11  C   UNL     1       2.562   6.469   1.764  0.00  0.00    +0.020 A 
ATOM     12  C   UNL     1       1.694   5.476   1.337  0.00  0.00    +0.008 A 
ENDBRANCH   3   7
TORSDOF 1
ENDMDL
MODEL 3
REMARK VINA RESULT:     3.556      1.362      4.655
REMARK INTER + INTRA:           3.565
REMARK INTER:                   3.773
REMARK INTRA:                  -0.208
REMARK UNBOUND:                -0.198
REMARK  Name = Nicotine.pdb
REMARK  2 active torsions:
REMARK  status: ('A' for Active; 'I' for Inactive)
REMARK    1  A    between atoms: C_3  and  C_6
REMARK    2  A    between atoms: N_4  and  C_12
REMARK                            x       y       z     vdW  Elec       q    Type
REMARK                         _______ _______ _______ _____ _____    ______ ____
ROOT
ATOM      1  C   UNL     1       5.413  -0.507   1.715  0.00  0.00    +0.017 C 
ATOM      2  C   UNL     1       3.953  -0.151   2.099  0.00  0.00    +0.025 C 
ATOM      3  C   UNL     1       3.149  -0.598   0.859  0.00  0.00    +0.088 C 
ATOM      4  N   UNL     1       4.086  -0.634  -0.278  0.00  0.00    -0.298 NA
ATOM      5  C   UNL     1       5.419  -0.207   0.195  0.00  0.00    +0.085 C 
ATOM      6  C   UNL     1       4.142  -1.977  -0.872  0.00  0.00    +0.105 C 
ENDROOT
BRANCH   3   7
ATOM      7  C   UNL     1       2.043   0.386   0.583  0.00  0.00    -0.012 A 
ATOM      8  C   UNL     1       2.117   1.234  -0.506  0.00  0.00    +0.115 A 
ATOM      9  N   UNL     1       1.152   2.098  -0.754  0.00  0.00    -0.263 NA
ATOM     10  C   UNL     1       0.088   2.190   0.018  0.00  0.00    +0.111 A 
ATOM     11  C   UNL     1      -0.056   1.375   1.125  0.00  0.00    +0.020 A 
ATOM     12  C   UNL     1       0.935   0.450   1.415  0.00  0.00    +0.008 A 
ENDBRANCH   3   7
TORSDOF 1
ENDMDL
MODEL 4
REMARK VINA RESULT:     3.689      1.053      1.791
REMARK INTER + INTRA:           3.707
REMARK INTER:                   3.929
REMARK INTRA:                  -0.222
REMARK UNBOUND:                -0.198
REMARK  Name = Nicotine.pdb
REMARK  2 active torsions:
REMARK  status: ('A' for Active; 'I' for Inactive)
REMARK    1  A    between atoms: C_3  and  C_6
REMARK    2  A    between atoms: N_4  and  C_12
REMARK                            x       y       z     vdW  Elec       q    Type
REMARK                         _______ _______ _______ _____ _____    ______ ____
ROOT
ATOM      1  C   UNL     1      -1.283   1.494   0.602  0.00  0.00    +0.017 C 
ATOM      2  C   UNL     1      -0.126   0.700   1.264  0.00  0.00    +0.025 C 
ATOM      3  C   UNL     1       1.114   1.558   0.939  0.00  0.00    +0.088 C 
ATOM      4  N   UNL     1       0.781   2.379  -0.239  0.00  0.00    -0.298 NA
ATOM      5  C   UNL     1      -0.595   2.049  -0.669  0.00  0.00    +0.085 C 
ATOM      6  C   UNL     1       0.909   3.811   0.062  0.00  0.00    +0.105 C 
ENDROOT
BRANCH   3   7
ATOM      7  C   UNL     1       2.288   0.666   0.628  0.00  0.00    -0.012 A 
ATOM      8  C   UNL     1       3.024   0.856  -0.527  0.00  0.00    +0.115 A 
ATOM      9  N   UNL     1       4.052   0.079  -0.807  0.00  0.00    -0.263 NA
ATOM     10  C   UNL     1       4.419  -0.901  -0.005  0.00  0.00    +0.111 A 
ATOM     11  C   UNL     1       3.732  -1.150   1.169  0.00  0.00    +0.020 A 
ATOM     12  C   UNL     1       2.648  -0.351   1.498  0.00  0.00    +0.008 A 
ENDBRANCH   3   7
TORSDOF 1
ENDMDL
MODEL 5
REMARK VINA RESULT:     3.827      1.426      2.354
REMARK INTER + INTRA:           3.852
REMARK INTER:                   4.097
REMARK INTRA:                  -0.245
REMARK UNBOUND:                -0.198
REMARK  Name = Nicotine.pdb
REMARK  2 active torsions:
REMARK  status: ('A' for Active; 'I' for Inactive)
REMARK    1  A    between atoms: C_3  and  C_6
REMARK    2  A    between atoms: N_4  and  C_12
REMARK                            x       y       z     vdW  Elec       q    Type
REMARK                         _______ _______ _______ _____ _____    ______ ____
ROOT
ATOM      1  C   UNL     1      -0.037   2.535  -0.809  0.00  0.00    +0.017 C 
ATOM      2  C   UNL     1       0.999   1.428  -1.134  0.00  0.00    +0.025 C 
ATOM      3  C   UNL     1       1.134   0.674   0.206  0.00  0.00    +0.088 C 
ATOM      4  N   UNL     1       0.701   1.596   1.271  0.00  0.00    -0.298 NA
ATOM      5  C   UNL     1       0.331   2.887   0.654  0.00  0.00    +0.085 C 
ATOM      6  C   UNL     1      -0.423   1.033   2.031  0.00  0.00    +0.105 C 
ENDROOT
BRANCH   3   7
ATOM      7  C   UNL     1       2.569   0.272   0.426  0.00  0.00    -0.012 A 
ATOM      8  C   UNL     1       2.921  -0.496   1.520  0.00  0.00    +0.115 A 
ATOM      9  N   UNL     1       4.175  -0.852   1.719  0.00  0.00    -0.263 NA
ATOM     10  C   UNL     1       5.137  -0.494   0.893  0.00  0.00    +0.111 A 
ATOM     11  C   UNL     1       4.862   0.275  -0.223  0.00  0.00    +0.020 A 
ATOM     12  C   UNL     1       3.554   0.663  -0.469  0.00  0.00    +0.008 A 
ENDBRANCH   3   7
TORSDOF 1
ENDMDL
MODEL 6
REMARK VINA RESULT:     3.986      1.524      5.091
REMARK INTER + INTRA:           4.021
REMARK INTER:                   4.199
REMARK INTRA:                  -0.178
REMARK UNBOUND:                -0.198
REMARK  Name = Nicotine.pdb
REMARK  2 active torsions:
REMARK  status: ('A' for Active; 'I' for Inactive)
REMARK    1  A    between atoms: C_3  and  C_6
REMARK    2  A    between atoms: N_4  and  C_12
REMARK                            x       y       z     vdW  Elec       q    Type
REMARK                         _______ _______ _______ _____ _____    ______ ____
ROOT
ATOM      1  C   UNL     1       4.769  -2.257   0.095  0.00  0.00    +0.017 C 
ATOM      2  C   UNL     1       3.541  -1.558  -0.546  0.00  0.00    +0.025 C 
ATOM      3  C   UNL     1       3.785  -0.068  -0.227  0.00  0.00    +0.088 C 
ATOM      4  N   UNL     1       4.691  -0.011   0.934  0.00  0.00    -0.298 NA
ATOM      5  C   UNL     1       4.995  -1.394   1.361  0.00  0.00    +0.085 C 
ATOM      6  C   UNL     1       5.920   0.723   0.609  0.00  0.00    +0.105 C 
ENDROOT
BRANCH   3   7
ATOM      7  C   UNL     1       2.479   0.606   0.106  0.00  0.00    -0.012 A 
ATOM      8  C   UNL     1       1.726   0.177   1.182  0.00  0.00    +0.115 A 
ATOM      9  N   UNL     1       0.582   0.761   1.481  0.00  0.00    -0.263 NA
ATOM     10  C   UNL     1       0.113   1.769   0.772  0.00  0.00    +0.111 A 
ATOM     11  C   UNL     1       0.811   2.253  -0.318  0.00  0.00    +0.020 A 
ATOM     12  C   UNL     1       2.021   1.668  -0.659  0.00  0.00    +0.008 A 
ENDBRANCH   3   7
TORSDOF 1
ENDMDL
MODEL 7
REMARK VINA RESULT:     4.289      2.897      4.893
REMARK INTER + INTRA:           4.341
REMARK INTER:                   4.536
REMARK INTRA:                  -0.194
REMARK UNBOUND:                -0.198
REMARK  Name = Nicotine.pdb
REMARK  2 active torsions:
REMARK  status: ('A' for Active; 'I' for Inactive)
REMARK    1  A    between atoms: C_3  and  C_6
REMARK    2  A    between atoms: N_4  and  C_12
REMARK                            x       y       z     vdW  Elec       q    Type
REMARK                         _______ _______ _______ _____ _____    ______ ____
ROOT
ATOM      1  C   UNL     1       2.637   6.689  -1.644  0.00  0.00    +0.017 C 
ATOM      2  C   UNL     1       1.265   5.972  -1.538  0.00  0.00    +0.025 C 
ATOM      3  C   UNL     1       1.202   5.562  -0.051  0.00  0.00    +0.088 C 
ATOM      4  N   UNL     1       2.588   5.521   0.450  0.00  0.00    -0.298 NA
ATOM      5  C   UNL     1       3.501   5.860  -0.663  0.00  0.00    +0.085 C 
ATOM      6  C   UNL     1       2.769   6.443   1.579  0.00  0.00    +0.105 C 
ENDROOT
BRANCH   3   7
ATOM      7  C   UNL     1       0.568   4.202   0.080  0.00  0.00    -0.012 A 
ATOM      8  C   UNL     1      -0.797   4.082   0.260  0.00  0.00    +0.115 A 
ATOM      9  N   UNL     1      -1.361   2.896   0.376  0.00  0.00    -0.263 NA
ATOM     10  C   UNL     1      -0.653   1.785   0.326  0.00  0.00    +0.111 A 
ATOM     11  C   UNL     1       0.717   1.826   0.147  0.00  0.00    +0.020 A 
ATOM     12  C   UNL     1       1.344   3.055   0.017  0.00  0.00    +0.008 A 
ENDBRANCH   3   7
TORSDOF 1
ENDMDL
MODEL 8
REMARK VINA RESULT:     5.653      2.749      4.205
REMARK INTER + INTRA:           5.785
REMARK INTER:                   5.974
REMARK INTRA:                  -0.188
REMARK UNBOUND:                -0.198
REMARK  Name = Nicotine.pdb
REMARK  2 active torsions:
REMARK  status: ('A' for Active; 'I' for Inactive)
REMARK    1  A    between atoms: C_3  and  C_6
REMARK    2  A    between atoms: N_4  and  C_12
REMARK                            x       y       z     vdW  Elec       q    Type
REMARK                         _______ _______ _______ _____ _____    ______ ____
ROOT
ATOM      1  C   UNL     1       3.593   6.211  -0.022  0.00  0.00    +0.017 C 
ATOM      2  C   UNL     1       3.118   4.861  -0.621  0.00  0.00    +0.025 C 
ATOM      3  C   UNL     1       1.582   4.945  -0.492  0.00  0.00    +0.088 C 
ATOM      4  N   UNL     1       1.286   5.925   0.568  0.00  0.00    -0.298 NA
ATOM      5  C   UNL     1       2.564   6.428   1.115  0.00  0.00    +0.085 C 
ATOM      6  C   UNL     1       0.463   7.027   0.053  0.00  0.00    +0.105 C 
ENDROOT
BRANCH   3   7
ATOM      7  C   UNL     1       1.024   3.597  -0.117  0.00  0.00    -0.012 A 
ATOM      8  C   UNL     1       1.808   2.463  -0.218  0.00  0.00    +0.115 A 
ATOM      9  N   UNL     1       1.327   1.279   0.108  0.00  0.00    -0.263 NA
ATOM     10  C   UNL     1       0.091   1.128   0.541  0.00  0.00    +0.111 A 
ATOM     11  C   UNL     1      -0.752   2.217   0.669  0.00  0.00    +0.020 A 
ATOM     12  C   UNL     1      -0.280   3.478   0.340  0.00  0.00    +0.008 A 
ENDBRANCH   3   7
TORSDOF 1
ENDMDL
