MODEL 1
REMARK VINA RESULT:    -4.237      0.000      0.000
REMARK INTER + INTRA:          -4.678
REMARK INTER:                  -4.485
REMARK INTRA:                  -0.194
REMARK UNBOUND:                -0.194
REMARK  Name = Nicotine.pdb
REMARK  2 active torsions:
REMARK  status: ('A' for Active; 'I' for Inactive)
REMARK    1  A    between atoms: C_3  and  C_6
REMARK    2  A    between atoms: N_4  and  C_12
REMARK                            x       y       z     vdW  Elec       q    Type
REMARK                         _______ _______ _______ _____ _____    ______ ____
ROOT
ATOM      1  C   UNL     1       5.430  -1.415  -0.159  0.00  0.00    +0.017 C 
ATOM      2  C   UNL     1       4.278  -0.403  -0.400  0.00  0.00    +0.025 C 
ATOM      3  C   UNL     1       3.040  -1.152   0.136  0.00  0.00    +0.088 C 
ATOM      4  N   UNL     1       3.358  -2.591   0.117  0.00  0.00    -0.298 NA
ATOM      5  C   UNL     1       4.721  -2.765  -0.429  0.00  0.00    +0.085 C 
ATOM      6  C   UNL     1       3.250  -3.173   1.460  0.00  0.00    +0.105 C 
ENDROOT
BRANCH   3   7
ATOM      7  C   UNL     1       1.851  -0.876  -0.747  0.00  0.00    -0.012 A 
ATOM      8  C   UNL     1       1.933   0.066  -1.755  0.00  0.00    +0.115 A 
ATOM      9  N   UNL     1       0.898   0.314  -2.533  0.00  0.00    -0.263 NA
ATOM     10  C   UNL     1      -0.249  -0.320  -2.384  0.00  0.00    +0.111 A 
ATOM     11  C   UNL     1      -0.406  -1.275  -1.397  0.00  0.00    +0.020 A 
ATOM     12  C   UNL     1       0.663  -1.566  -0.563  0.00  0.00    +0.008 A 
ENDBRANCH   3   7
TORSDOF 1
ENDMDL
MODEL 2
REMARK VINA RESULT:    -4.163      4.079      6.296
REMARK INTER + INTRA:          -4.600
REMARK INTER:                  -4.387
REMARK INTRA:                  -0.212
REMARK UNBOUND:                -0.194
REMARK  Name = Nicotine.pdb
REMARK  2 active torsions:
REMARK  status: ('A' for Active; 'I' for Inactive)
REMARK    1  A    between atoms: C_3  and  C_6
REMARK    2  A    between atoms: N_4  and  C_12
REMARK                            x       y       z     vdW  Elec       q    Type
REMARK                         _______ _______ _______ _____ _____    ______ ____
ROOT
ATOM      1  C   UNL     1       2.358   5.956  -1.497  0.00  0.00    +0.017 C 
ATOM      2  C   UNL     1       3.364   5.097  -0.687  0.00  0.00    +0.025 C 
ATOM      3  C   UNL     1       3.917   4.120  -1.746  0.00  0.00    +0.088 C 
ATOM      4  N   UNL     1       2.926   4.048  -2.835  0.00  0.00    -0.298 NA
ATOM      5  C   UNL     1       1.779   4.913  -2.485  0.00  0.00    +0.085 C 
ATOM      6  C   UNL     1       3.520   4.452  -4.115  0.00  0.00    +0.105 C 
ENDROOT
BRANCH   3   7
ATOM      7  C   UNL     1       4.109   2.756  -1.135  0.00  0.00    -0.012 A 
ATOM      8  C   UNL     1       4.917   2.594  -0.025  0.00  0.00    +0.115 A 
ATOM      9  N   UNL     1       5.090   1.404   0.516  0.00  0.00    -0.263 NA
ATOM     10  C   UNL     1       4.506   0.329   0.026  0.00  0.00    +0.111 A 
ATOM     11  C   UNL     1       3.683   0.413  -1.081  0.00  0.00    +0.020 A 
ATOM     12  C   UNL     1       3.473   1.648  -1.674  0.00  0.00    +0.008 A 
ENDBRANCH   3   7
TORSDOF 1
ENDMDL
MODEL 3
REMARK VINA RESULT:    -4.108      6.766      7.623
REMARK INTER + INTRA:          -4.541
REMARK INTER:                  -4.327
REMARK INTRA:                  -0.214
REMARK UNBOUND:                -0.194
REMARK  Name = Nicotine.pdb
REMARK  2 active torsions:
REMARK  status: ('A' for Active; 'I' for Inactive)
REMARK    1  A    between atoms: C_3  and  C_6
REMARK    2  A    between atoms: N_4  and  C_12
REMARK                            x       y       z     vdW  Elec       q    Type
REMARK                         _______ _______ _______ _____ _____    ______ ____
ROOT
ATOM      1  C   UNL     1      -2.307   0.161   6.216  0.00  0.00    +0.017 C 
ATOM      2  C   UNL     1      -3.251   0.625   5.075  0.00  0.00    +0.025 C 
ATOM      3  C   UNL     1      -3.880  -0.697   4.586  0.00  0.00    +0.088 C 
ATOM      4  N   UNL     1      -2.971  -1.787   4.984  0.00  0.00    -0.298 NA
ATOM      5  C   UNL     1      -1.802  -1.198   5.671  0.00  0.00    +0.085 C 
ATOM      6  C   UNL     1      -3.657  -2.756   5.848  0.00  0.00    +0.105 C 
ENDROOT
BRANCH   3   7
ATOM      7  C   UNL     1      -4.027  -0.672   3.087  0.00  0.00    -0.012 A 
ATOM      8  C   UNL     1      -4.829   0.275   2.479  0.00  0.00    +0.115 A 
ATOM      9  N   UNL     1      -4.963   0.304   1.167  0.00  0.00    -0.263 NA
ATOM     10  C   UNL     1      -4.343  -0.560   0.388  0.00  0.00    +0.111 A 
ATOM     11  C   UNL     1      -3.523  -1.535   0.924  0.00  0.00    +0.020 A 
ATOM     12  C   UNL     1      -3.354  -1.593   2.299  0.00  0.00    +0.008 A 
ENDBRANCH   3   7
TORSDOF 1
ENDMDL
MODEL 4
REMARK VINA RESULT:    -4.037      1.468      4.490
REMARK INTER + INTRA:          -4.467
REMARK INTER:                  -4.269
REMARK INTRA:                  -0.199
REMARK UNBOUND:                -0.194
REMARK  Name = Nicotine.pdb
REMARK  2 active torsions:
REMARK  status: ('A' for Active; 'I' for Inactive)
REMARK    1  A    between atoms: C_3  and  C_6
REMARK    2  A    between atoms: N_4  and  C_12
REMARK                            x       y       z     vdW  Elec       q    Type
REMARK                         _______ _______ _______ _____ _____    ______ ____
ROOT
ATOM      1  C   UNL     1       2.620   2.506  -1.540  0.00  0.00    +0.017 C 
ATOM      2  C   UNL     1       3.723   1.416  -1.585  0.00  0.00    +0.025 C 
ATOM      3  C   UNL     1       2.913   0.105  -1.670  0.00  0.00    +0.088 C 
ATOM      4  N   UNL     1       1.567   0.388  -1.140  0.00  0.00    -0.298 NA
ATOM      5  C   UNL     1       1.518   1.802  -0.710  0.00  0.00    +0.085 C 
ATOM      6  C   UNL     1       0.535   0.107  -2.146  0.00  0.00    +0.105 C 
ENDROOT
BRANCH   3   7
ATOM      7  C   UNL     1       3.577  -0.963  -0.841  0.00  0.00    -0.012 A 
ATOM      8  C   UNL     1       3.065  -1.308   0.396  0.00  0.00    +0.115 A 
ATOM      9  N   UNL     1       3.641  -2.242   1.128  0.00  0.00    -0.263 NA
ATOM     10  C   UNL     1       4.718  -2.880   0.715  0.00  0.00    +0.111 A 
ATOM     11  C   UNL     1       5.287  -2.589  -0.511  0.00  0.00    +0.020 A 
ATOM     12  C   UNL     1       4.706  -1.617  -1.311  0.00  0.00    +0.008 A 
ENDBRANCH   3   7
TORSDOF 1
ENDMDL
MODEL 5
REMARK VINA RESULT:    -4.013      5.990      7.748
REMARK INTER + INTRA:          -4.442
REMARK INTER:                  -4.250
REMARK INTRA:                  -0.191
REMARK UNBOUND:                -0.194
REMARK  Name = Nicotine.pdb
REMARK  2 active torsions:
REMARK  status: ('A' for Active; 'I' for Inactive)
REMARK    1  A    between atoms: C_3  and  C_6
REMARK    2  A    between atoms: N_4  and  C_12
REMARK                            x       y       z     vdW  Elec       q    Type
REMARK                         _______ _______ _______ _____ _____    ______ ____
ROOT
ATOM      1  C   UNL     1      -4.196  -1.464  -1.928  0.00  0.00    +0.017 C 
ATOM      2  C   UNL     1      -4.803  -1.660  -0.514  0.00  0.00    +0.025 C 
ATOM      3  C   UNL     1      -4.573  -0.288   0.155  0.00  0.00    +0.088 C 
ATOM      4  N   UNL     1      -3.467   0.369  -0.564  0.00  0.00    -0.298 NA
ATOM      5  C   UNL     1      -2.988  -0.542  -1.626  0.00  0.00    +0.085 C 
ATOM      6  C   UNL     1      -3.895   1.656  -1.127  0.00  0.00    +0.105 C 
ENDROOT
BRANCH   3   7
ATOM      7  C   UNL     1      -4.203  -0.480   1.603  0.00  0.00    -0.012 A 
ATOM      8  C   UNL     1      -3.173  -1.331   1.955  0.00  0.00    +0.115 A 
ATOM      9  N   UNL     1      -2.842  -1.504   3.220  0.00  0.00    -0.263 NA
ATOM     10  C   UNL     1      -3.475  -0.879   4.193  0.00  0.00    +0.111 A 
ATOM     11  C   UNL     1      -4.515  -0.012   3.918  0.00  0.00    +0.020 A 
ATOM     12  C   UNL     1      -4.887   0.200   2.599  0.00  0.00    +0.008 A 
ENDBRANCH   3   7
TORSDOF 1
ENDMDL
MODEL 6
REMARK VINA RESULT:    -3.914      3.001      5.139
REMARK INTER + INTRA:          -4.337
REMARK INTER:                  -4.102
REMARK INTRA:                  -0.234
REMARK UNBOUND:                -0.194
REMARK  Name = Nicotine.pdb
REMARK  2 active torsions:
REMARK  status: ('A' for Active; 'I' for Inactive)
REMARK    1  A    between atoms: C_3  and  C_6
REMARK    2  A    between atoms: N_4  and  C_12
REMARK                            x       y       z     vdW  Elec       q    Type
REMARK                         _______ _______ _______ _____ _____    ______ ____
ROOT
ATOM      1  C   UNL     1       3.145   3.487  -2.277  0.00  0.00    +0.017 C 
ATOM      2  C   UNL     1       2.863   2.016  -1.873  0.00  0.00    +0.025 C 
ATOM      3  C   UNL     1       3.617   1.873  -0.533  0.00  0.00    +0.088 C 
ATOM      4  N   UNL     1       4.657   2.917  -0.504  0.00  0.00    -0.298 NA
ATOM      5  C   UNL     1       4.597   3.678  -1.770  0.00  0.00    +0.085 C 
ATOM      6  C   UNL     1       4.481   3.804   0.653  0.00  0.00    +0.105 C 
ENDROOT
BRANCH   3   7
ATOM      7  C   UNL     1       4.254   0.510  -0.446  0.00  0.00    -0.012 A 
ATOM      8  C   UNL     1       5.052   0.180   0.633  0.00  0.00    +0.115 A 
ATOM      9  N   UNL     1       5.613  -1.011   0.717  0.00  0.00    -0.263 NA
ATOM     10  C   UNL     1       5.438  -1.927  -0.215  0.00  0.00    +0.111 A 
ATOM     11  C   UNL     1       4.652  -1.669  -1.322  0.00  0.00    +0.020 A 
ATOM     12  C   UNL     1       4.042  -0.430  -1.443  0.00  0.00    +0.008 A 
ENDBRANCH   3   7
TORSDOF 1
ENDMDL
MODEL 7
REMARK VINA RESULT:    -3.824      3.374      4.812
REMARK INTER + INTRA:          -4.241
REMARK INTER:                  -4.041
REMARK INTRA:                  -0.200
REMARK UNBOUND:                -0.194
REMARK  Name = Nicotine.pdb
REMARK  2 active torsions:
REMARK  status: ('A' for Active; 'I' for Inactive)
REMARK    1  A    between atoms: C_3  and  C_6
REMARK    2  A    between atoms: N_4  and  C_12
REMARK                            x       y       z     vdW  Elec       q    Type
REMARK                         _______ _______ _______ _____ _____    ______ ____
ROOT
ATOM      1  C   UNL     1       0.753  -1.719  -0.314  0.00  0.00    +0.017 C 
ATOM      2  C   UNL     1      -0.314  -1.030  -1.205  0.00  0.00    +0.025 C 
ATOM      3  C   UNL     1      -1.451  -0.719  -0.209  0.00  0.00    +0.088 C 
ATOM      4  N   UNL     1      -1.295  -1.638   0.933  0.00  0.00    -0.298 NA
ATOM      5  C   UNL     1      -0.134  -2.516   0.675  0.00  0.00    +0.085 C 
ATOM      6  C   UNL     1      -1.126  -0.895   2.189  0.00  0.00    +0.105 C 
ENDROOT
BRANCH   3   7
ATOM      7  C   UNL     1      -2.787  -0.941  -0.869  0.00  0.00    -0.012 A 
ATOM      8  C   UNL     1      -3.030  -0.450  -2.137  0.00  0.00    +0.115 A 
ATOM      9  N   UNL     1      -4.197  -0.640  -2.722  0.00  0.00    -0.263 NA
ATOM     10  C   UNL     1      -5.171  -1.301  -2.128  0.00  0.00    +0.111 A 
ATOM     11  C   UNL     1      -5.001  -1.822  -0.859  0.00  0.00    +0.020 A 
ATOM     12  C   UNL     1      -3.786  -1.646  -0.214  0.00  0.00    +0.008 A 
ENDBRANCH   3   7
TORSDOF 1
ENDMDL
MODEL 8
REMARK VINA RESULT:    -3.813      3.403      5.247
REMARK INTER + INTRA:          -4.230
REMARK INTER:                  -4.052
REMARK INTRA:                  -0.177
REMARK UNBOUND:                -0.194
REMARK  Name = Nicotine.pdb
REMARK  2 active torsions:
REMARK  status: ('A' for Active; 'I' for Inactive)
REMARK    1  A    between atoms: C_3  and  C_6
REMARK    2  A    between atoms: N_4  and  C_12
REMARK                            x       y       z     vdW  Elec       q    Type
REMARK                         _______ _______ _______ _____ _____    ______ ____
ROOT
ATOM      1  C   UNL     1       3.880   5.187  -0.727  0.00  0.00    +0.017 C 
ATOM      2  C   UNL     1       4.131   3.693  -0.390  0.00  0.00    +0.025 C 
ATOM      3  C   UNL     1       3.827   2.980  -1.725  0.00  0.00    +0.088 C 
ATOM      4  N   UNL     1       2.956   3.873  -2.509  0.00  0.00    -0.298 NA
ATOM      5  C   UNL     1       2.688   5.089  -1.712  0.00  0.00    +0.085 C 
ATOM      6  C   UNL     1       3.573   4.213  -3.798  0.00  0.00    +0.105 C 
ENDROOT
BRANCH   3   7
ATOM      7  C   UNL     1       3.121   1.676  -1.460  0.00  0.00    -0.012 A 
ATOM      8  C   UNL     1       1.742   1.629  -1.389  0.00  0.00    +0.115 A 
ATOM      9  N   UNL     1       1.116   0.492  -1.158  0.00  0.00    -0.263 NA
ATOM     10  C   UNL     1       1.773  -0.638  -0.986  0.00  0.00    +0.111 A 
ATOM     11  C   UNL     1       3.154  -0.670  -1.045  0.00  0.00    +0.020 A 
ATOM     12  C   UNL     1       3.846   0.506  -1.291  0.00  0.00    +0.008 A 
ENDBRANCH   3   7
TORSDOF 1
ENDMDL
MODEL 9
REMARK VINA RESULT:    -3.698      3.062      4.234
REMARK INTER + INTRA:          -4.108
REMARK INTER:                  -3.855
REMARK INTRA:                  -0.253
REMARK UNBOUND:                -0.194
REMARK  Name = Nicotine.pdb
REMARK  2 active torsions:
REMARK  status: ('A' for Active; 'I' for Inactive)
REMARK    1  A    between atoms: C_3  and  C_6
REMARK    2  A    between atoms: N_4  and  C_12
REMARK                            x       y       z     vdW  Elec       q    Type
REMARK                         _______ _______ _______ _____ _____    ______ ____
ROOT
ATOM      1  C   UNL     1       4.057  -0.127   0.429  0.00  0.00    +0.017 C 
ATOM      2  C   UNL     1       3.948   1.415   0.300  0.00  0.00    +0.025 C 
ATOM      3  C   UNL     1       2.586   1.609  -0.400  0.00  0.00    +0.088 C 
ATOM      4  N   UNL     1       2.270   0.350  -1.098  0.00  0.00    -0.298 NA
ATOM      5  C   UNL     1       3.382  -0.600  -0.883  0.00  0.00    +0.085 C 
ATOM      6  C   UNL     1       0.998  -0.211  -0.623  0.00  0.00    +0.105 C 
ENDROOT
BRANCH   3   7
ATOM      7  C   UNL     1       2.676   2.739  -1.393  0.00  0.00    -0.012 A 
ATOM      8  C   UNL     1       1.586   3.557  -1.623  0.00  0.00    +0.115 A 
ATOM      9  N   UNL     1       1.656   4.548  -2.490  0.00  0.00    -0.263 NA
ATOM     10  C   UNL     1       2.758   4.797  -3.169  0.00  0.00    +0.111 A 
ATOM     11  C   UNL     1       3.889   4.022  -2.992  0.00  0.00    +0.020 A 
ATOM     12  C   UNL     1       3.854   2.975  -2.085  0.00  0.00    +0.008 A 
ENDBRANCH   3   7
TORSDOF 1
ENDMDL
MODEL 10
REMARK VINA RESULT:    -3.665      5.163      6.982
REMARK INTER + INTRA:          -4.073
REMARK INTER:                  -3.862
REMARK INTRA:                  -0.211
REMARK UNBOUND:                -0.194
REMARK  Name = Nicotine.pdb
REMARK  2 active torsions:
REMARK  status: ('A' for Active; 'I' for Inactive)
REMARK    1  A    between atoms: C_3  and  C_6
REMARK    2  A    between atoms: N_4  and  C_12
REMARK                            x       y       z     vdW  Elec       q    Type
REMARK                         _______ _______ _______ _____ _____    ______ ____
ROOT
ATOM      1  C   UNL     1      -2.683  -0.382  -2.782  0.00  0.00    +0.017 C 
ATOM      2  C   UNL     1      -2.014  -0.825  -1.455  0.00  0.00    +0.025 C 
ATOM      3  C   UNL     1      -3.141  -1.599  -0.739  0.00  0.00    +0.088 C 
ATOM      4  N   UNL     1      -4.419  -1.136  -1.309  0.00  0.00    -0.298 NA
ATOM      5  C   UNL     1      -4.135  -0.097  -2.321  0.00  0.00    +0.085 C 
ATOM      6  C   UNL     1      -5.171  -2.252  -1.897  0.00  0.00    +0.105 C 
ENDROOT
BRANCH   3   7
ATOM      7  C   UNL     1      -3.103  -1.311   0.739  0.00  0.00    -0.012 A 
ATOM      8  C   UNL     1      -1.950  -1.542   1.466  0.00  0.00    +0.115 A 
ATOM      9  N   UNL     1      -1.908  -1.292   2.761  0.00  0.00    -0.263 NA
ATOM     10  C   UNL     1      -2.953  -0.817   3.409  0.00  0.00    +0.111 A 
ATOM     11  C   UNL     1      -4.140  -0.562   2.749  0.00  0.00    +0.020 A 
ATOM     12  C   UNL     1      -4.220  -0.807   1.386  0.00  0.00    +0.008 A 
ENDBRANCH   3   7
TORSDOF 1
ENDMDL
