MODEL 1
REMARK VINA RESULT:     9.735      0.000      0.000
REMARK INTER + INTRA:          10.110
REMARK INTER:                  10.304
REMARK INTRA:                  -0.193
REMARK UNBOUND:                -0.193
REMARK  Name = Nicotine.pdb
REMARK  2 active torsions:
REMARK  status: ('A' for Active; 'I' for Inactive)
REMARK    1  A    between atoms: C_3  and  C_6
REMARK    2  A    between atoms: N_4  and  C_12
REMARK                            x       y       z     vdW  Elec       q    Type
REMARK                         _______ _______ _______ _____ _____    ______ ____
ROOT
ATOM      1  C   UNL     1      -1.972   5.266   5.619  0.00  0.00    +0.017 C 
ATOM      2  C   UNL     1      -1.998   5.707   4.132  0.00  0.00    +0.025 C 
ATOM      3  C   UNL     1      -3.361   6.421   4.005  0.00  0.00    +0.088 C 
ATOM      4  N   UNL     1      -4.219   5.921   5.094  0.00  0.00    -0.298 NA
ATOM      5  C   UNL     1      -3.460   4.915   5.868  0.00  0.00    +0.085 C 
ATOM      6  C   UNL     1      -4.670   7.020   5.957  0.00  0.00    +0.105 C 
ENDROOT
BRANCH   3   7
ATOM      7  C   UNL     1      -3.984   6.103   2.671  0.00  0.00    -0.012 A 
ATOM      8  C   UNL     1      -3.944   7.026   1.643  0.00  0.00    +0.115 A 
ATOM      9  N   UNL     1      -4.487   6.756   0.472  0.00  0.00    -0.263 NA
ATOM     10  C   UNL     1      -5.086   5.606   0.235  0.00  0.00    +0.111 A 
ATOM     11  C   UNL     1      -5.165   4.634   1.215  0.00  0.00    +0.020 A 
ATOM     12  C   UNL     1      -4.601   4.880   2.457  0.00  0.00    +0.008 A 
ENDBRANCH   3   7
TORSDOF 1
ENDMDL
MODEL 2
REMARK VINA RESULT:    11.759      0.945      1.447
REMARK INTER + INTRA:          12.253
REMARK INTER:                  12.438
REMARK INTRA:                  -0.185
REMARK UNBOUND:                -0.193
REMARK  Name = Nicotine.pdb
REMARK  2 active torsions:
REMARK  status: ('A' for Active; 'I' for Inactive)
REMARK    1  A    between atoms: C_3  and  C_6
REMARK    2  A    between atoms: N_4  and  C_12
REMARK                            x       y       z     vdW  Elec       q    Type
REMARK                         _______ _______ _______ _____ _____    ______ ____
ROOT
ATOM      1  C   UNL     1      -1.780   5.888   5.579  0.00  0.00    +0.017 C 
ATOM      2  C   UNL     1      -2.127   6.447   4.174  0.00  0.00    +0.025 C 
ATOM      3  C   UNL     1      -3.670   6.483   4.185  0.00  0.00    +0.088 C 
ATOM      4  N   UNL     1      -4.121   5.521   5.207  0.00  0.00    -0.298 NA
ATOM      5  C   UNL     1      -2.932   4.878   5.806  0.00  0.00    +0.085 C 
ATOM      6  C   UNL     1      -4.934   6.185   6.234  0.00  0.00    +0.105 C 
ENDROOT
BRANCH   3   7
ATOM      7  C   UNL     1      -4.202   6.084   2.833  0.00  0.00    -0.012 A 
ATOM      8  C   UNL     1      -4.575   4.776   2.587  0.00  0.00    +0.115 A 
ATOM      9  N   UNL     1      -5.042   4.419   1.407  0.00  0.00    -0.263 NA
ATOM     10  C   UNL     1      -5.170   5.285   0.421  0.00  0.00    +0.111 A 
ATOM     11  C   UNL     1      -4.818   6.610   0.593  0.00  0.00    +0.020 A 
ATOM     12  C   UNL     1      -4.328   7.024   1.822  0.00  0.00    +0.008 A 
ENDBRANCH   3   7
TORSDOF 1
ENDMDL
