MODEL 1
REMARK VINA RESULT:    -4.172      0.000      0.000
REMARK INTER + INTRA:          -4.638
REMARK INTER:                  -4.416
REMARK INTRA:                  -0.222
REMARK UNBOUND:                -0.222
REMARK  Name = Nicotine.pdb
REMARK  2 active torsions:
REMARK  status: ('A' for Active; 'I' for Inactive)
REMARK    1  A    between atoms: C_3  and  C_6
REMARK    2  A    between atoms: N_4  and  C_12
REMARK                            x       y       z     vdW  Elec       q    Type
REMARK                         _______ _______ _______ _____ _____    ______ ____
ROOT
ATOM      1  C   UNL     1       1.559   3.569  -0.267  0.00  0.00    +0.017 C 
ATOM      2  C   UNL     1       1.355   2.949  -1.675  0.00  0.00    +0.025 C 
ATOM      3  C   UNL     1       0.062   2.124  -1.507  0.00  0.00    +0.088 C 
ATOM      4  N   UNL     1      -0.091   1.839  -0.069  0.00  0.00    -0.298 NA
ATOM      5  C   UNL     1       1.057   2.427   0.652  0.00  0.00    +0.085 C 
ATOM      6  C   UNL     1      -1.362   2.370   0.441  0.00  0.00    +0.105 C 
ENDROOT
BRANCH   3   7
ATOM      7  C   UNL     1       0.173   0.834  -2.278  0.00  0.00    -0.012 A 
ATOM      8  C   UNL     1       0.101  -0.381  -1.622  0.00  0.00    +0.115 A 
ATOM      9  N   UNL     1       0.198  -1.514  -2.288  0.00  0.00    -0.263 NA
ATOM     10  C   UNL     1       0.366  -1.537  -3.596  0.00  0.00    +0.111 A 
ATOM     11  C   UNL     1       0.447  -0.362  -4.320  0.00  0.00    +0.020 A 
ATOM     12  C   UNL     1       0.344   0.849  -3.653  0.00  0.00    +0.008 A 
ENDBRANCH   3   7
TORSDOF 1
ENDMDL
MODEL 2
REMARK VINA RESULT:    -4.127      2.005      4.329
REMARK INTER + INTRA:          -4.590
REMARK INTER:                  -4.368
REMARK INTRA:                  -0.222
REMARK UNBOUND:                -0.222
REMARK  Name = Nicotine.pdb
REMARK  2 active torsions:
REMARK  status: ('A' for Active; 'I' for Inactive)
REMARK    1  A    between atoms: C_3  and  C_6
REMARK    2  A    between atoms: N_4  and  C_12
REMARK                            x       y       z     vdW  Elec       q    Type
REMARK                         _______ _______ _______ _____ _____    ______ ____
ROOT
ATOM      1  C   UNL     1      -1.712  -3.352  -1.235  0.00  0.00    +0.017 C 
ATOM      2  C   UNL     1      -1.507  -2.335  -2.389  0.00  0.00    +0.025 C 
ATOM      3  C   UNL     1      -0.192  -1.628  -2.000  0.00  0.00    +0.088 C 
ATOM      4  N   UNL     1      -0.017  -1.800  -0.546  0.00  0.00    -0.298 NA
ATOM      5  C   UNL     1      -1.172  -2.557  -0.019  0.00  0.00    +0.085 C 
ATOM      6  C   UNL     1       1.245  -2.488  -0.246  0.00  0.00    +0.105 C 
ENDROOT
BRANCH   3   7
ATOM      7  C   UNL     1      -0.279  -0.162  -2.336  0.00  0.00    -0.012 A 
ATOM      8  C   UNL     1      -0.179   0.791  -1.341  0.00  0.00    +0.115 A 
ATOM      9  N   UNL     1      -0.254   2.077  -1.627  0.00  0.00    -0.263 NA
ATOM     10  C   UNL     1      -0.427   2.502  -2.862  0.00  0.00    +0.111 A 
ATOM     11  C   UNL     1      -0.535   1.608  -3.911  0.00  0.00    +0.020 A 
ATOM     12  C   UNL     1      -0.456   0.249  -3.649  0.00  0.00    +0.008 A 
ENDBRANCH   3   7
TORSDOF 1
ENDMDL
MODEL 3
REMARK VINA RESULT:    -4.125      1.525      4.378
REMARK INTER + INTRA:          -4.588
REMARK INTER:                  -4.332
REMARK INTRA:                  -0.256
REMARK UNBOUND:                -0.222
REMARK  Name = Nicotine.pdb
REMARK  2 active torsions:
REMARK  status: ('A' for Active; 'I' for Inactive)
REMARK    1  A    between atoms: C_3  and  C_6
REMARK    2  A    between atoms: N_4  and  C_12
REMARK                            x       y       z     vdW  Elec       q    Type
REMARK                         _______ _______ _______ _____ _____    ______ ____
ROOT
ATOM      1  C   UNL     1      -0.081   0.637  -4.203  0.00  0.00    +0.017 C 
ATOM      2  C   UNL     1       0.429   1.484  -3.008  0.00  0.00    +0.025 C 
ATOM      3  C   UNL     1       0.522   0.450  -1.865  0.00  0.00    +0.088 C 
ATOM      4  N   UNL     1      -0.376  -0.666  -2.211  0.00  0.00    -0.298 NA
ATOM      5  C   UNL     1      -1.037  -0.358  -3.498  0.00  0.00    +0.085 C 
ATOM      6  C   UNL     1       0.363  -1.933  -2.289  0.00  0.00    +0.105 C 
ENDROOT
BRANCH   3   7
ATOM      7  C   UNL     1       0.085   1.079  -0.568  0.00  0.00    -0.012 A 
ATOM      8  C   UNL     1       0.557   0.595   0.638  0.00  0.00    +0.115 A 
ATOM      9  N   UNL     1       0.179   1.139   1.778  0.00  0.00    -0.263 NA
ATOM     10  C   UNL     1      -0.657   2.158   1.816  0.00  0.00    +0.111 A 
ATOM     11  C   UNL     1      -1.171   2.696   0.651  0.00  0.00    +0.020 A 
ATOM     12  C   UNL     1      -0.792   2.153  -0.568  0.00  0.00    +0.008 A 
ENDBRANCH   3   7
TORSDOF 1
ENDMDL
MODEL 4
REMARK VINA RESULT:    -4.106      1.103      1.952
REMARK INTER + INTRA:          -4.568
REMARK INTER:                  -4.348
REMARK INTRA:                  -0.219
REMARK UNBOUND:                -0.222
REMARK  Name = Nicotine.pdb
REMARK  2 active torsions:
REMARK  status: ('A' for Active; 'I' for Inactive)
REMARK    1  A    between atoms: C_3  and  C_6
REMARK    2  A    between atoms: N_4  and  C_12
REMARK                            x       y       z     vdW  Elec       q    Type
REMARK                         _______ _______ _______ _____ _____    ______ ____
ROOT
ATOM      1  C   UNL     1      -1.040   2.577   0.787  0.00  0.00    +0.017 C 
ATOM      2  C   UNL     1      -1.388   1.303  -0.029  0.00  0.00    +0.025 C 
ATOM      3  C   UNL     1      -0.037   0.560  -0.102  0.00  0.00    +0.088 C 
ATOM      4  N   UNL     1       1.024   1.559   0.113  0.00  0.00    -0.298 NA
ATOM      5  C   UNL     1       0.394   2.885   0.290  0.00  0.00    +0.085 C 
ATOM      6  C   UNL     1       1.851   1.209   1.275  0.00  0.00    +0.105 C 
ENDROOT
BRANCH   3   7
ATOM      7  C   UNL     1       0.124  -0.077  -1.458  0.00  0.00    -0.012 A 
ATOM      8  C   UNL     1       0.308  -1.442  -1.572  0.00  0.00    +0.115 A 
ATOM      9  N   UNL     1       0.449  -2.008  -2.755  0.00  0.00    -0.263 NA
ATOM     10  C   UNL     1       0.422  -1.302  -3.868  0.00  0.00    +0.111 A 
ATOM     11  C   UNL     1       0.241   0.068  -3.833  0.00  0.00    +0.020 A 
ATOM     12  C   UNL     1       0.083   0.697  -2.608  0.00  0.00    +0.008 A 
ENDBRANCH   3   7
TORSDOF 1
ENDMDL
MODEL 5
REMARK VINA RESULT:    -4.099      2.064      3.764
REMARK INTER + INTRA:          -4.561
REMARK INTER:                  -4.305
REMARK INTRA:                  -0.255
REMARK UNBOUND:                -0.222
REMARK  Name = Nicotine.pdb
REMARK  2 active torsions:
REMARK  status: ('A' for Active; 'I' for Inactive)
REMARK    1  A    between atoms: C_3  and  C_6
REMARK    2  A    between atoms: N_4  and  C_12
REMARK                            x       y       z     vdW  Elec       q    Type
REMARK                         _______ _______ _______ _____ _____    ______ ____
ROOT
ATOM      1  C   UNL     1       0.272   0.290  -4.434  0.00  0.00    +0.017 C 
ATOM      2  C   UNL     1      -0.272  -0.808  -3.483  0.00  0.00    +0.025 C 
ATOM      3  C   UNL     1      -0.467  -0.050  -2.153  0.00  0.00    +0.088 C 
ATOM      4  N   UNL     1       0.408   1.136  -2.194  0.00  0.00    -0.298 NA
ATOM      5  C   UNL     1       1.149   1.130  -3.473  0.00  0.00    +0.085 C 
ATOM      6  C   UNL     1      -0.372   2.371  -2.042  0.00  0.00    +0.105 C 
ENDROOT
BRANCH   3   7
ATOM      7  C   UNL     1      -0.079  -0.935  -0.997  0.00  0.00    -0.012 A 
ATOM      8  C   UNL     1      -0.657  -0.755   0.246  0.00  0.00    +0.115 A 
ATOM      9  N   UNL     1      -0.323  -1.525   1.263  0.00  0.00    -0.263 NA
ATOM     10  C   UNL     1       0.567  -2.490   1.139  0.00  0.00    +0.111 A 
ATOM     11  C   UNL     1       1.186  -2.730  -0.073  0.00  0.00    +0.020 A 
ATOM     12  C   UNL     1       0.857  -1.944  -1.167  0.00  0.00    +0.008 A 
ENDBRANCH   3   7
TORSDOF 1
ENDMDL
MODEL 6
REMARK VINA RESULT:    -4.041      2.202      3.840
REMARK INTER + INTRA:          -4.500
REMARK INTER:                  -4.258
REMARK INTRA:                  -0.241
REMARK UNBOUND:                -0.222
REMARK  Name = Nicotine.pdb
REMARK  2 active torsions:
REMARK  status: ('A' for Active; 'I' for Inactive)
REMARK    1  A    between atoms: C_3  and  C_6
REMARK    2  A    between atoms: N_4  and  C_12
REMARK                            x       y       z     vdW  Elec       q    Type
REMARK                         _______ _______ _______ _____ _____    ______ ____
ROOT
ATOM      1  C   UNL     1       0.966  -3.228   0.159  0.00  0.00    +0.017 C 
ATOM      2  C   UNL     1       1.436  -1.936  -0.561  0.00  0.00    +0.025 C 
ATOM      3  C   UNL     1       0.247  -0.973  -0.356  0.00  0.00    +0.088 C 
ATOM      4  N   UNL     1      -0.945  -1.800  -0.093  0.00  0.00    -0.298 NA
ATOM      5  C   UNL     1      -0.552  -3.224  -0.150  0.00  0.00    +0.085 C 
ATOM      6  C   UNL     1      -1.538  -1.469   1.209  0.00  0.00    +0.105 C 
ENDROOT
BRANCH   3   7
ATOM      7  C   UNL     1       0.036  -0.148  -1.599  0.00  0.00    -0.012 A 
ATOM      8  C   UNL     1      -0.177   1.214  -1.506  0.00  0.00    +0.115 A 
ATOM      9  N   UNL     1      -0.362   1.944  -2.589  0.00  0.00    -0.263 NA
ATOM     10  C   UNL     1      -0.354   1.410  -3.794  0.00  0.00    +0.111 A 
ATOM     11  C   UNL     1      -0.147   0.054  -3.965  0.00  0.00    +0.020 A 
ATOM     12  C   UNL     1       0.057  -0.744  -2.850  0.00  0.00    +0.008 A 
ENDBRANCH   3   7
TORSDOF 1
ENDMDL
MODEL 7
REMARK VINA RESULT:    -3.856      1.718      2.320
REMARK INTER + INTRA:          -4.304
REMARK INTER:                  -4.092
REMARK INTRA:                  -0.212
REMARK UNBOUND:                -0.222
REMARK  Name = Nicotine.pdb
REMARK  2 active torsions:
REMARK  status: ('A' for Active; 'I' for Inactive)
REMARK    1  A    between atoms: C_3  and  C_6
REMARK    2  A    between atoms: N_4  and  C_12
REMARK                            x       y       z     vdW  Elec       q    Type
REMARK                         _______ _______ _______ _____ _____    ______ ____
ROOT
ATOM      1  C   UNL     1       0.584  -0.503   1.927  0.00  0.00    +0.017 C 
ATOM      2  C   UNL     1       1.367  -0.488   0.588  0.00  0.00    +0.025 C 
ATOM      3  C   UNL     1       0.524   0.456  -0.296  0.00  0.00    +0.088 C 
ATOM      4  N   UNL     1      -0.839   0.478   0.264  0.00  0.00    -0.298 NA
ATOM      5  C   UNL     1      -0.882  -0.425   1.434  0.00  0.00    +0.085 C 
ATOM      6  C   UNL     1      -1.233   1.843   0.637  0.00  0.00    +0.105 C 
ENDROOT
BRANCH   3   7
ATOM      7  C   UNL     1       0.491  -0.061  -1.711  0.00  0.00    -0.012 A 
ATOM      8  C   UNL     1       0.472  -1.421  -1.958  0.00  0.00    +0.115 A 
ATOM      9  N   UNL     1       0.442  -1.882  -3.193  0.00  0.00    -0.263 NA
ATOM     10  C   UNL     1       0.429  -1.073  -4.234  0.00  0.00    +0.111 A 
ATOM     11  C   UNL     1       0.446   0.299  -4.065  0.00  0.00    +0.020 A 
ATOM     12  C   UNL     1       0.472   0.820  -2.781  0.00  0.00    +0.008 A 
ENDBRANCH   3   7
TORSDOF 1
ENDMDL
MODEL 8
REMARK VINA RESULT:    -3.817      3.273      4.918
REMARK INTER + INTRA:          -4.262
REMARK INTER:                  -4.006
REMARK INTRA:                  -0.256
REMARK UNBOUND:                -0.222
REMARK  Name = Nicotine.pdb
REMARK  2 active torsions:
REMARK  status: ('A' for Active; 'I' for Inactive)
REMARK    1  A    between atoms: C_3  and  C_6
REMARK    2  A    between atoms: N_4  and  C_12
REMARK                            x       y       z     vdW  Elec       q    Type
REMARK                         _______ _______ _______ _____ _____    ______ ____
ROOT
ATOM      1  C   UNL     1       0.483   0.781  -1.297  0.00  0.00    +0.017 C 
ATOM      2  C   UNL     1       1.322  -0.054  -0.294  0.00  0.00    +0.025 C 
ATOM      3  C   UNL     1       1.091  -1.504  -0.770  0.00  0.00    +0.088 C 
ATOM      4  N   UNL     1      -0.166  -1.516  -1.540  0.00  0.00    -0.298 NA
ATOM      5  C   UNL     1      -0.732  -0.150  -1.539  0.00  0.00    +0.085 C 
ATOM      6  C   UNL     1       0.060  -1.991  -2.911  0.00  0.00    +0.105 C 
ENDROOT
BRANCH   3   7
ATOM      7  C   UNL     1       0.974  -2.421   0.419  0.00  0.00    -0.012 A 
ATOM      8  C   UNL     1       1.220  -3.775   0.284  0.00  0.00    +0.115 A 
ATOM      9  N   UNL     1       1.121  -4.585   1.320  0.00  0.00    -0.263 NA
ATOM     10  C   UNL     1       0.785  -4.143   2.516  0.00  0.00    +0.111 A 
ATOM     11  C   UNL     1       0.524  -2.802   2.727  0.00  0.00    +0.020 A 
ATOM     12  C   UNL     1       0.624  -1.919   1.663  0.00  0.00    +0.008 A 
ENDBRANCH   3   7
TORSDOF 1
ENDMDL
MODEL 9
REMARK VINA RESULT:    -3.767      1.845      2.497
REMARK INTER + INTRA:          -4.209
REMARK INTER:                  -3.961
REMARK INTRA:                  -0.248
REMARK UNBOUND:                -0.222
REMARK  Name = Nicotine.pdb
REMARK  2 active torsions:
REMARK  status: ('A' for Active; 'I' for Inactive)
REMARK    1  A    between atoms: C_3  and  C_6
REMARK    2  A    between atoms: N_4  and  C_12
REMARK                            x       y       z     vdW  Elec       q    Type
REMARK                         _______ _______ _______ _____ _____    ______ ____
ROOT
ATOM      1  C   UNL     1       1.133  -0.142   1.351  0.00  0.00    +0.017 C 
ATOM      2  C   UNL     1       1.532  -0.007  -0.143  0.00  0.00    +0.025 C 
ATOM      3  C   UNL     1       0.849   1.311  -0.566  0.00  0.00    +0.088 C 
ATOM      4  N   UNL     1      -0.257   1.553   0.378  0.00  0.00    -0.298 NA
ATOM      5  C   UNL     1      -0.304   0.435   1.344  0.00  0.00    +0.085 C 
ATOM      6  C   UNL     1      -0.092   2.839   1.066  0.00  0.00    +0.105 C 
ENDROOT
BRANCH   3   7
ATOM      7  C   UNL     1       0.311   1.183  -1.967  0.00  0.00    -0.012 A 
ATOM      8  C   UNL     1      -0.232   2.279  -2.611  0.00  0.00    +0.115 A 
ATOM      9  N   UNL     1      -0.705   2.175  -3.838  0.00  0.00    -0.263 NA
ATOM     10  C   UNL     1      -0.681   1.032  -4.495  0.00  0.00    +0.111 A 
ATOM     11  C   UNL     1      -0.153  -0.106  -3.916  0.00  0.00    +0.020 A 
ATOM     12  C   UNL     1       0.359  -0.034  -2.630  0.00  0.00    +0.008 A 
ENDBRANCH   3   7
TORSDOF 1
ENDMDL
MODEL 10
REMARK VINA RESULT:    -3.763      2.197      5.485
REMARK INTER + INTRA:          -4.205
REMARK INTER:                  -3.952
REMARK INTRA:                  -0.253
REMARK UNBOUND:                -0.222
REMARK  Name = Nicotine.pdb
REMARK  2 active torsions:
REMARK  status: ('A' for Active; 'I' for Inactive)
REMARK    1  A    between atoms: C_3  and  C_6
REMARK    2  A    between atoms: N_4  and  C_12
REMARK                            x       y       z     vdW  Elec       q    Type
REMARK                         _______ _______ _______ _____ _____    ______ ____
ROOT
ATOM      1  C   UNL     1      -1.253  -0.394  -0.970  0.00  0.00    +0.017 C 
ATOM      2  C   UNL     1      -1.850   0.356   0.250  0.00  0.00    +0.025 C 
ATOM      3  C   UNL     1      -1.312   1.792   0.072  0.00  0.00    +0.088 C 
ATOM      4  N   UNL     1      -0.110   1.706  -0.776  0.00  0.00    -0.298 NA
ATOM      5  C   UNL     1       0.133   0.286  -1.107  0.00  0.00    +0.085 C 
ATOM      6  C   UNL     1      -0.265   2.513  -1.994  0.00  0.00    +0.105 C 
ENDROOT
BRANCH   3   7
ATOM      7  C   UNL     1      -0.954   2.375   1.414  0.00  0.00    -0.012 A 
ATOM      8  C   UNL     1      -1.123   3.725   1.657  0.00  0.00    +0.115 A 
ATOM      9  N   UNL     1      -0.813   4.244   2.829  0.00  0.00    -0.263 NA
ATOM     10  C   UNL     1      -0.332   3.504   3.809  0.00  0.00    +0.111 A 
ATOM     11  C   UNL     1      -0.136   2.146   3.640  0.00  0.00    +0.020 A 
ATOM     12  C   UNL     1      -0.457   1.565   2.423  0.00  0.00    +0.008 A 
ENDBRANCH   3   7
TORSDOF 1
ENDMDL
