MODEL 1
REMARK VINA RESULT:     5.440      0.000      0.000
REMARK INTER + INTRA:           5.537
REMARK INTER:                   5.758
REMARK INTRA:                  -0.221
REMARK UNBOUND:                -0.221
REMARK  Name = Nicotine.pdb
REMARK  2 active torsions:
REMARK  status: ('A' for Active; 'I' for Inactive)
REMARK    1  A    between atoms: C_3  and  C_6
REMARK    2  A    between atoms: N_4  and  C_12
REMARK                            x       y       z     vdW  Elec       q    Type
REMARK                         _______ _______ _______ _____ _____    ______ ____
ROOT
ATOM      1  C   UNL     1       9.512   7.027  -6.769  0.00  0.00    +0.017 C 
ATOM      2  C   UNL     1      10.166   6.854  -5.373  0.00  0.00    +0.025 C 
ATOM      3  C   UNL     1       9.196   5.893  -4.652  0.00  0.00    +0.088 C 
ATOM      4  N   UNL     1       7.891   6.001  -5.330  0.00  0.00    -0.298 NA
ATOM      5  C   UNL     1       8.004   6.999  -6.415  0.00  0.00    +0.085 C 
ATOM      6  C   UNL     1       7.461   4.698  -5.854  0.00  0.00    +0.105 C 
ENDROOT
BRANCH   3   7
ATOM      7  C   UNL     1       9.059   6.293  -3.206  0.00  0.00    -0.012 A 
ATOM      8  C   UNL     1       7.830   6.673  -2.699  0.00  0.00    +0.115 A 
ATOM      9  N   UNL     1       7.701   7.025  -1.435  0.00  0.00    -0.263 NA
ATOM     10  C   UNL     1       8.728   7.028  -0.608  0.00  0.00    +0.111 A 
ATOM     11  C   UNL     1       9.988   6.659  -1.043  0.00  0.00    +0.020 A 
ATOM     12  C   UNL     1      10.161   6.278  -2.365  0.00  0.00    +0.008 A 
ENDBRANCH   3   7
TORSDOF 1
ENDMDL
MODEL 2
REMARK VINA RESULT:     5.910      1.374      4.641
REMARK INTER + INTRA:           6.034
REMARK INTER:                   6.257
REMARK INTRA:                  -0.222
REMARK UNBOUND:                -0.221
REMARK  Name = Nicotine.pdb
REMARK  2 active torsions:
REMARK  status: ('A' for Active; 'I' for Inactive)
REMARK    1  A    between atoms: C_3  and  C_6
REMARK    2  A    between atoms: N_4  and  C_12
REMARK                            x       y       z     vdW  Elec       q    Type
REMARK                         _______ _______ _______ _____ _____    ______ ____
ROOT
ATOM      1  C   UNL     1       8.691   6.923  -0.985  0.00  0.00    +0.017 C 
ATOM      2  C   UNL     1       7.973   6.705  -2.343  0.00  0.00    +0.025 C 
ATOM      3  C   UNL     1       8.978   5.838  -3.132  0.00  0.00    +0.088 C 
ATOM      4  N   UNL     1      10.306   6.052  -2.530  0.00  0.00    -0.298 NA
ATOM      5  C   UNL     1      10.172   7.028  -1.428  0.00  0.00    +0.085 C 
ATOM      6  C   UNL     1      10.877   4.788  -2.049  0.00  0.00    +0.105 C 
ENDROOT
BRANCH   3   7
ATOM      7  C   UNL     1       8.994   6.260  -4.578  0.00  0.00    -0.012 A 
ATOM      8  C   UNL     1      10.188   6.566  -5.204  0.00  0.00    +0.115 A 
ATOM      9  N   UNL     1      10.211   6.936  -6.469  0.00  0.00    -0.263 NA
ATOM     10  C   UNL     1       9.107   7.028  -7.185  0.00  0.00    +0.111 A 
ATOM     11  C   UNL     1       7.876   6.737  -6.627  0.00  0.00    +0.020 A 
ATOM     12  C   UNL     1       7.813   6.340  -5.300  0.00  0.00    +0.008 A 
ENDBRANCH   3   7
TORSDOF 1
ENDMDL
MODEL 3
REMARK VINA RESULT:     6.604      1.221      4.439
REMARK INTER + INTRA:           6.769
REMARK INTER:                   6.981
REMARK INTRA:                  -0.212
REMARK UNBOUND:                -0.221
REMARK  Name = Nicotine.pdb
REMARK  2 active torsions:
REMARK  status: ('A' for Active; 'I' for Inactive)
REMARK    1  A    between atoms: C_3  and  C_6
REMARK    2  A    between atoms: N_4  and  C_12
REMARK                            x       y       z     vdW  Elec       q    Type
REMARK                         _______ _______ _______ _____ _____    ______ ____
ROOT
ATOM      1  C   UNL     1       8.607   6.949  -1.019  0.00  0.00    +0.017 C 
ATOM      2  C   UNL     1       7.897   6.739  -2.382  0.00  0.00    +0.025 C 
ATOM      3  C   UNL     1       8.894   5.853  -3.160  0.00  0.00    +0.088 C 
ATOM      4  N   UNL     1      10.221   6.047  -2.548  0.00  0.00    -0.298 NA
ATOM      5  C   UNL     1      10.093   7.028  -1.449  0.00  0.00    +0.085 C 
ATOM      6  C   UNL     1      10.766   4.775  -2.058  0.00  0.00    +0.105 C 
ENDROOT
BRANCH   3   7
ATOM      7  C   UNL     1       8.930   6.270  -4.607  0.00  0.00    -0.012 A 
ATOM      8  C   UNL     1       7.771   6.279  -5.361  0.00  0.00    +0.115 A 
ATOM      9  N   UNL     1       7.794   6.642  -6.629  0.00  0.00    -0.263 NA
ATOM     10  C   UNL     1       8.911   7.009  -7.224  0.00  0.00    +0.111 A 
ATOM     11  C   UNL     1      10.109   7.026  -6.534  0.00  0.00    +0.020 A 
ATOM     12  C   UNL     1      10.123   6.655  -5.199  0.00  0.00    +0.008 A 
ENDBRANCH   3   7
TORSDOF 1
ENDMDL
