MODEL 1
REMARK VINA RESULT:    -2.439      0.000      0.000
REMARK INTER + INTRA:          -2.834
REMARK INTER:                  -2.581
REMARK INTRA:                  -0.253
REMARK UNBOUND:                -0.253
REMARK  Name = Nicotine.pdb
REMARK  2 active torsions:
REMARK  status: ('A' for Active; 'I' for Inactive)
REMARK    1  A    between atoms: C_3  and  C_6
REMARK    2  A    between atoms: N_4  and  C_12
REMARK                            x       y       z     vdW  Elec       q    Type
REMARK                         _______ _______ _______ _____ _____    ______ ____
ROOT
ATOM      1  C   UNL     1      -4.956  -4.682   5.189  0.00  0.00    +0.017 C 
ATOM      2  C   UNL     1      -4.513  -4.298   3.753  0.00  0.00    +0.025 C 
ATOM      3  C   UNL     1      -3.318  -3.353   4.000  0.00  0.00    +0.088 C 
ATOM      4  N   UNL     1      -3.461  -2.815   5.365  0.00  0.00    -0.298 NA
ATOM      5  C   UNL     1      -4.698  -3.363   5.960  0.00  0.00    +0.085 C 
ATOM      6  C   UNL     1      -2.290  -3.145   6.187  0.00  0.00    +0.105 C 
ENDROOT
BRANCH   3   7
ATOM      7  C   UNL     1      -3.339  -2.227   2.999  0.00  0.00    -0.012 A 
ATOM      8  C   UNL     1      -2.250  -1.386   2.870  0.00  0.00    +0.115 A 
ATOM      9  N   UNL     1      -2.261  -0.398   1.996  0.00  0.00    -0.263 NA
ATOM     10  C   UNL     1      -3.300  -0.173   1.216  0.00  0.00    +0.111 A 
ATOM     11  C   UNL     1      -4.425  -0.974   1.288  0.00  0.00    +0.020 A 
ATOM     12  C   UNL     1      -4.448  -2.025   2.192  0.00  0.00    +0.008 A 
ENDBRANCH   3   7
TORSDOF 1
ENDMDL
MODEL 2
REMARK VINA RESULT:    -2.426      1.410      4.632
REMARK INTER + INTRA:          -2.821
REMARK INTER:                  -2.606
REMARK INTRA:                  -0.215
REMARK UNBOUND:                -0.253
REMARK  Name = Nicotine.pdb
REMARK  2 active torsions:
REMARK  status: ('A' for Active; 'I' for Inactive)
REMARK    1  A    between atoms: C_3  and  C_6
REMARK    2  A    between atoms: N_4  and  C_12
REMARK                            x       y       z     vdW  Elec       q    Type
REMARK                         _______ _______ _______ _____ _____    ______ ____
ROOT
ATOM      1  C   UNL     1      -1.795   0.481   3.440  0.00  0.00    +0.017 C 
ATOM      2  C   UNL     1      -1.772  -0.750   4.384  0.00  0.00    +0.025 C 
ATOM      3  C   UNL     1      -2.206  -1.906   3.457  0.00  0.00    +0.088 C 
ATOM      4  N   UNL     1      -2.944  -1.308   2.329  0.00  0.00    -0.298 NA
ATOM      5  C   UNL     1      -3.006   0.156   2.530  0.00  0.00    +0.085 C 
ATOM      6  C   UNL     1      -2.305  -1.637   1.048  0.00  0.00    +0.105 C 
ENDROOT
BRANCH   3   7
ATOM      7  C   UNL     1      -3.100  -2.858   4.208  0.00  0.00    -0.012 A 
ATOM      8  C   UNL     1      -4.072  -3.578   3.541  0.00  0.00    +0.115 A 
ATOM      9  N   UNL     1      -4.859  -4.414   4.191  0.00  0.00    -0.263 NA
ATOM     10  C   UNL     1      -4.752  -4.595   5.493  0.00  0.00    +0.111 A 
ATOM     11  C   UNL     1      -3.803  -3.909   6.227  0.00  0.00    +0.020 A 
ATOM     12  C   UNL     1      -2.955  -3.026   5.577  0.00  0.00    +0.008 A 
ENDBRANCH   3   7
TORSDOF 1
ENDMDL
MODEL 3
REMARK VINA RESULT:    -2.424      1.587      4.432
REMARK INTER + INTRA:          -2.818
REMARK INTER:                  -2.609
REMARK INTRA:                  -0.209
REMARK UNBOUND:                -0.253
REMARK  Name = Nicotine.pdb
REMARK  2 active torsions:
REMARK  status: ('A' for Active; 'I' for Inactive)
REMARK    1  A    between atoms: C_3  and  C_6
REMARK    2  A    between atoms: N_4  and  C_12
REMARK                            x       y       z     vdW  Elec       q    Type
REMARK                         _______ _______ _______ _____ _____    ______ ____
ROOT
ATOM      1  C   UNL     1      -0.837   0.047   5.010  0.00  0.00    +0.017 C 
ATOM      2  C   UNL     1      -1.063  -1.469   5.251  0.00  0.00    +0.025 C 
ATOM      3  C   UNL     1      -1.948  -1.882   4.056  0.00  0.00    +0.088 C 
ATOM      4  N   UNL     1      -2.613  -0.663   3.562  0.00  0.00    -0.298 NA
ATOM      5  C   UNL     1      -2.200   0.475   4.411  0.00  0.00    +0.085 C 
ATOM      6  C   UNL     1      -2.283  -0.416   2.153  0.00  0.00    +0.105 C 
ENDROOT
BRANCH   3   7
ATOM      7  C   UNL     1      -2.980  -2.884   4.505  0.00  0.00    -0.012 A 
ATOM      8  C   UNL     1      -3.104  -3.209   5.842  0.00  0.00    +0.115 A 
ATOM      9  N   UNL     1      -4.004  -4.086   6.243  0.00  0.00    -0.263 NA
ATOM     10  C   UNL     1      -4.816  -4.683   5.394  0.00  0.00    +0.111 A 
ATOM     11  C   UNL     1      -4.751  -4.408   4.040  0.00  0.00    +0.020 A 
ATOM     12  C   UNL     1      -3.820  -3.488   3.582  0.00  0.00    +0.008 A 
ENDBRANCH   3   7
TORSDOF 1
ENDMDL
MODEL 4
REMARK VINA RESULT:    -2.339      1.255      4.479
REMARK INTER + INTRA:          -2.729
REMARK INTER:                  -2.537
REMARK INTRA:                  -0.192
REMARK UNBOUND:                -0.253
REMARK  Name = Nicotine.pdb
REMARK  2 active torsions:
REMARK  status: ('A' for Active; 'I' for Inactive)
REMARK    1  A    between atoms: C_3  and  C_6
REMARK    2  A    between atoms: N_4  and  C_12
REMARK                            x       y       z     vdW  Elec       q    Type
REMARK                         _______ _______ _______ _____ _____    ______ ____
ROOT
ATOM      1  C   UNL     1      -2.276   0.594   3.350  0.00  0.00    +0.017 C 
ATOM      2  C   UNL     1      -2.182  -0.582   4.357  0.00  0.00    +0.025 C 
ATOM      3  C   UNL     1      -2.448  -1.819   3.472  0.00  0.00    +0.088 C 
ATOM      4  N   UNL     1      -3.178  -1.353   2.279  0.00  0.00    -0.298 NA
ATOM      5  C   UNL     1      -3.396   0.104   2.399  0.00  0.00    +0.085 C 
ATOM      6  C   UNL     1      -2.441  -1.676   1.050  0.00  0.00    +0.105 C 
ENDROOT
BRANCH   3   7
ATOM      7  C   UNL     1      -3.283  -2.820   4.227  0.00  0.00    -0.012 A 
ATOM      8  C   UNL     1      -3.064  -3.039   5.573  0.00  0.00    +0.115 A 
ATOM      9  N   UNL     1      -3.790  -3.914   6.242  0.00  0.00    -0.263 NA
ATOM     10  C   UNL     1      -4.747  -4.610   5.659  0.00  0.00    +0.111 A 
ATOM     11  C   UNL     1      -5.024  -4.444   4.315  0.00  0.00    +0.020 A 
ATOM     12  C   UNL     1      -4.285  -3.529   3.581  0.00  0.00    +0.008 A 
ENDBRANCH   3   7
TORSDOF 1
ENDMDL
MODEL 5
REMARK VINA RESULT:    -2.256      1.168      4.323
REMARK INTER + INTRA:          -2.641
REMARK INTER:                  -2.387
REMARK INTRA:                  -0.254
REMARK UNBOUND:                -0.253
REMARK  Name = Nicotine.pdb
REMARK  2 active torsions:
REMARK  status: ('A' for Active; 'I' for Inactive)
REMARK    1  A    between atoms: C_3  and  C_6
REMARK    2  A    between atoms: N_4  and  C_12
REMARK                            x       y       z     vdW  Elec       q    Type
REMARK                         _______ _______ _______ _____ _____    ______ ____
ROOT
ATOM      1  C   UNL     1      -3.789  -1.479   0.422  0.00  0.00    +0.017 C 
ATOM      2  C   UNL     1      -4.737  -1.914   1.570  0.00  0.00    +0.025 C 
ATOM      3  C   UNL     1      -3.974  -1.470   2.837  0.00  0.00    +0.088 C 
ATOM      4  N   UNL     1      -2.551  -1.357   2.472  0.00  0.00    -0.298 NA
ATOM      5  C   UNL     1      -2.397  -1.734   1.051  0.00  0.00    +0.085 C 
ATOM      6  C   UNL     1      -2.051   0.003   2.714  0.00  0.00    +0.105 C 
ENDROOT
BRANCH   3   7
ATOM      7  C   UNL     1      -4.146  -2.497   3.925  0.00  0.00    -0.012 A 
ATOM      8  C   UNL     1      -3.785  -2.204   5.226  0.00  0.00    +0.115 A 
ATOM      9  N   UNL     1      -3.932  -3.097   6.185  0.00  0.00    -0.263 NA
ATOM     10  C   UNL     1      -4.425  -4.296   5.946  0.00  0.00    +0.111 A 
ATOM     11  C   UNL     1      -4.810  -4.661   4.669  0.00  0.00    +0.020 A 
ATOM     12  C   UNL     1      -4.675  -3.746   3.636  0.00  0.00    +0.008 A 
ENDBRANCH   3   7
TORSDOF 1
ENDMDL
MODEL 6
REMARK VINA RESULT:    -2.248      1.610      4.370
REMARK INTER + INTRA:          -2.633
REMARK INTER:                  -2.412
REMARK INTRA:                  -0.221
REMARK UNBOUND:                -0.253
REMARK  Name = Nicotine.pdb
REMARK  2 active torsions:
REMARK  status: ('A' for Active; 'I' for Inactive)
REMARK    1  A    between atoms: C_3  and  C_6
REMARK    2  A    between atoms: N_4  and  C_12
REMARK                            x       y       z     vdW  Elec       q    Type
REMARK                         _______ _______ _______ _____ _____    ______ ____
ROOT
ATOM      1  C   UNL     1      -4.003  -1.825   0.796  0.00  0.00    +0.017 C 
ATOM      2  C   UNL     1      -4.199  -2.213   2.285  0.00  0.00    +0.025 C 
ATOM      3  C   UNL     1      -3.253  -1.242   3.023  0.00  0.00    +0.088 C 
ATOM      4  N   UNL     1      -2.237  -0.799   2.052  0.00  0.00    -0.298 NA
ATOM      5  C   UNL     1      -2.496  -1.469   0.760  0.00  0.00    +0.085 C 
ATOM      6  C   UNL     1      -2.253   0.662   1.901  0.00  0.00    +0.105 C 
ENDROOT
BRANCH   3   7
ATOM      7  C   UNL     1      -2.589  -1.950   4.176  0.00  0.00    -0.012 A 
ATOM      8  C   UNL     1      -1.219  -1.877   4.345  0.00  0.00    +0.115 A 
ATOM      9  N   UNL     1      -0.630  -2.494   5.351  0.00  0.00    -0.263 NA
ATOM     10  C   UNL     1      -1.316  -3.199   6.229  0.00  0.00    +0.111 A 
ATOM     11  C   UNL     1      -2.690  -3.316   6.125  0.00  0.00    +0.020 A 
ATOM     12  C   UNL     1      -3.344  -2.677   5.083  0.00  0.00    +0.008 A 
ENDBRANCH   3   7
TORSDOF 1
ENDMDL
MODEL 7
REMARK VINA RESULT:    -2.026      1.984      3.771
REMARK INTER + INTRA:          -2.397
REMARK INTER:                  -2.158
REMARK INTRA:                  -0.240
REMARK UNBOUND:                -0.253
REMARK  Name = Nicotine.pdb
REMARK  2 active torsions:
REMARK  status: ('A' for Active; 'I' for Inactive)
REMARK    1  A    between atoms: C_3  and  C_6
REMARK    2  A    between atoms: N_4  and  C_12
REMARK                            x       y       z     vdW  Elec       q    Type
REMARK                         _______ _______ _______ _____ _____    ______ ____
ROOT
ATOM      1  C   UNL     1      -4.192  -1.827   0.950  0.00  0.00    +0.017 C 
ATOM      2  C   UNL     1      -2.781  -1.591   1.550  0.00  0.00    +0.025 C 
ATOM      3  C   UNL     1      -2.847  -2.342   2.897  0.00  0.00    +0.088 C 
ATOM      4  N   UNL     1      -4.270  -2.460   3.262  0.00  0.00    -0.298 NA
ATOM      5  C   UNL     1      -5.081  -1.797   2.219  0.00  0.00    +0.085 C 
ATOM      6  C   UNL     1      -4.660  -3.867   3.417  0.00  0.00    +0.105 C 
ENDROOT
BRANCH   3   7
ATOM      7  C   UNL     1      -2.108  -1.563   3.954  0.00  0.00    -0.012 A 
ATOM      8  C   UNL     1      -1.219  -2.201   4.799  0.00  0.00    +0.115 A 
ATOM      9  N   UNL     1      -0.568  -1.527   5.727  0.00  0.00    -0.263 NA
ATOM     10  C   UNL     1      -0.736  -0.229   5.887  0.00  0.00    +0.111 A 
ATOM     11  C   UNL     1      -1.608   0.476   5.080  0.00  0.00    +0.020 A 
ATOM     12  C   UNL     1      -2.306  -0.198   4.089  0.00  0.00    +0.008 A 
ENDBRANCH   3   7
TORSDOF 1
ENDMDL
MODEL 8
REMARK VINA RESULT:    -2.003      1.464      4.815
REMARK INTER + INTRA:          -2.373
REMARK INTER:                  -2.150
REMARK INTRA:                  -0.223
REMARK UNBOUND:                -0.253
REMARK  Name = Nicotine.pdb
REMARK  2 active torsions:
REMARK  status: ('A' for Active; 'I' for Inactive)
REMARK    1  A    between atoms: C_3  and  C_6
REMARK    2  A    between atoms: N_4  and  C_12
REMARK                            x       y       z     vdW  Elec       q    Type
REMARK                         _______ _______ _______ _____ _____    ______ ____
ROOT
ATOM      1  C   UNL     1      -2.902  -0.503  -1.286  0.00  0.00    +0.017 C 
ATOM      2  C   UNL     1      -3.912  -1.322  -0.440  0.00  0.00    +0.025 C 
ATOM      3  C   UNL     1      -3.715  -0.754   0.981  0.00  0.00    +0.088 C 
ATOM      4  N   UNL     1      -2.374  -0.143   1.026  0.00  0.00    -0.298 NA
ATOM      5  C   UNL     1      -1.728  -0.330  -0.291  0.00  0.00    +0.085 C 
ATOM      6  C   UNL     1      -2.455   1.281   1.376  0.00  0.00    +0.105 C 
ENDROOT
BRANCH   3   7
ATOM      7  C   UNL     1      -3.807  -1.865   1.995  0.00  0.00    -0.012 A 
ATOM      8  C   UNL     1      -2.748  -2.127   2.843  0.00  0.00    +0.115 A 
ATOM      9  N   UNL     1      -2.820  -3.098   3.733  0.00  0.00    -0.263 NA
ATOM     10  C   UNL     1      -3.895  -3.852   3.850  0.00  0.00    +0.111 A 
ATOM     11  C   UNL     1      -4.995  -3.648   3.037  0.00  0.00    +0.020 A 
ATOM     12  C   UNL     1      -4.957  -2.634   2.093  0.00  0.00    +0.008 A 
ENDBRANCH   3   7
TORSDOF 1
ENDMDL
MODEL 9
REMARK VINA RESULT:    -1.998      1.595      2.346
REMARK INTER + INTRA:          -2.368
REMARK INTER:                  -2.171
REMARK INTRA:                  -0.197
REMARK UNBOUND:                -0.253
REMARK  Name = Nicotine.pdb
REMARK  2 active torsions:
REMARK  status: ('A' for Active; 'I' for Inactive)
REMARK    1  A    between atoms: C_3  and  C_6
REMARK    2  A    between atoms: N_4  and  C_12
REMARK                            x       y       z     vdW  Elec       q    Type
REMARK                         _______ _______ _______ _____ _____    ______ ____
ROOT
ATOM      1  C   UNL     1      -3.230  -1.579   5.439  0.00  0.00    +0.017 C 
ATOM      2  C   UNL     1      -3.637  -0.906   4.102  0.00  0.00    +0.025 C 
ATOM      3  C   UNL     1      -4.143  -2.093   3.255  0.00  0.00    +0.088 C 
ATOM      4  N   UNL     1      -3.542  -3.316   3.815  0.00  0.00    -0.298 NA
ATOM      5  C   UNL     1      -2.671  -2.937   4.947  0.00  0.00    +0.085 C 
ATOM      6  C   UNL     1      -4.578  -4.266   4.241  0.00  0.00    +0.105 C 
ENDROOT
BRANCH   3   7
ATOM      7  C   UNL     1      -3.716  -1.919   1.821  0.00  0.00    -0.012 A 
ATOM      8  C   UNL     1      -2.408  -1.593   1.516  0.00  0.00    +0.115 A 
ATOM      9  N   UNL     1      -2.025  -1.440   0.263  0.00  0.00    -0.263 NA
ATOM     10  C   UNL     1      -2.865  -1.588  -0.741  0.00  0.00    +0.111 A 
ATOM     11  C   UNL     1      -4.190  -1.914  -0.514  0.00  0.00    +0.020 A 
ATOM     12  C   UNL     1      -4.627  -2.089   0.790  0.00  0.00    +0.008 A 
ENDBRANCH   3   7
TORSDOF 1
ENDMDL
MODEL 10
REMARK VINA RESULT:    -1.984      1.749      2.510
REMARK INTER + INTRA:          -2.353
REMARK INTER:                  -2.134
REMARK INTRA:                  -0.219
REMARK UNBOUND:                -0.253
REMARK  Name = Nicotine.pdb
REMARK  2 active torsions:
REMARK  status: ('A' for Active; 'I' for Inactive)
REMARK    1  A    between atoms: C_3  and  C_6
REMARK    2  A    between atoms: N_4  and  C_12
REMARK                            x       y       z     vdW  Elec       q    Type
REMARK                         _______ _______ _______ _____ _____    ______ ____
ROOT
ATOM      1  C   UNL     1      -1.679  -2.812   5.723  0.00  0.00    +0.017 C 
ATOM      2  C   UNL     1      -1.526  -2.161   4.322  0.00  0.00    +0.025 C 
ATOM      3  C   UNL     1      -2.905  -1.508   4.091  0.00  0.00    +0.088 C 
ATOM      4  N   UNL     1      -3.870  -2.206   4.959  0.00  0.00    -0.298 NA
ATOM      5  C   UNL     1      -3.158  -3.272   5.694  0.00  0.00    +0.085 C 
ATOM      6  C   UNL     1      -4.518  -1.269   5.886  0.00  0.00    +0.105 C 
ENDROOT
BRANCH   3   7
ATOM      7  C   UNL     1      -3.309  -1.660   2.647  0.00  0.00    -0.012 A 
ATOM      8  C   UNL     1      -4.594  -2.047   2.318  0.00  0.00    +0.115 A 
ATOM      9  N   UNL     1      -4.955  -2.182   1.057  0.00  0.00    -0.263 NA
ATOM     10  C   UNL     1      -4.114  -1.958   0.067  0.00  0.00    +0.111 A 
ATOM     11  C   UNL     1      -2.812  -1.568   0.319  0.00  0.00    +0.020 A 
ATOM     12  C   UNL     1      -2.398  -1.409   1.632  0.00  0.00    +0.008 A 
ENDBRANCH   3   7
TORSDOF 1
ENDMDL
