MODEL 1
REMARK VINA RESULT:    -4.008      0.000      0.000
REMARK INTER + INTRA:          -4.444
REMARK INTER:                  -4.242
REMARK INTRA:                  -0.202
REMARK UNBOUND:                -0.202
REMARK  Name = Nicotine.pdb
REMARK  2 active torsions:
REMARK  status: ('A' for Active; 'I' for Inactive)
REMARK    1  A    between atoms: C_3  and  C_6
REMARK    2  A    between atoms: N_4  and  C_12
REMARK                            x       y       z     vdW  Elec       q    Type
REMARK                         _______ _______ _______ _____ _____    ______ ____
ROOT
ATOM      1  C   UNL     1       4.549   6.148  -5.517  0.00  0.00    +0.017 C 
ATOM      2  C   UNL     1       3.507   5.083  -5.947  0.00  0.00    +0.025 C 
ATOM      3  C   UNL     1       3.565   4.057  -4.795  0.00  0.00    +0.088 C 
ATOM      4  N   UNL     1       4.872   4.216  -4.133  0.00  0.00    -0.298 NA
ATOM      5  C   UNL     1       5.631   5.272  -4.837  0.00  0.00    +0.085 C 
ATOM      6  C   UNL     1       4.706   4.545  -2.711  0.00  0.00    +0.105 C 
ENDROOT
BRANCH   3   7
ATOM      7  C   UNL     1       3.434   2.660  -5.346  0.00  0.00    -0.012 A 
ATOM      8  C   UNL     1       2.193   2.155  -5.682  0.00  0.00    +0.115 A 
ATOM      9  N   UNL     1       2.070   0.933  -6.165  0.00  0.00    -0.263 NA
ATOM     10  C   UNL     1       3.116   0.151  -6.344  0.00  0.00    +0.111 A 
ATOM     11  C   UNL     1       4.389   0.588  -6.031  0.00  0.00    +0.020 A 
ATOM     12  C   UNL     1       4.558   1.868  -5.526  0.00  0.00    +0.008 A 
ENDBRANCH   3   7
TORSDOF 1
ENDMDL
MODEL 2
REMARK VINA RESULT:    -3.949      1.373      4.351
REMARK INTER + INTRA:          -4.382
REMARK INTER:                  -4.167
REMARK INTRA:                  -0.215
REMARK UNBOUND:                -0.202
REMARK  Name = Nicotine.pdb
REMARK  2 active torsions:
REMARK  status: ('A' for Active; 'I' for Inactive)
REMARK    1  A    between atoms: C_3  and  C_6
REMARK    2  A    between atoms: N_4  and  C_12
REMARK                            x       y       z     vdW  Elec       q    Type
REMARK                         _______ _______ _______ _____ _____    ______ ____
ROOT
ATOM      1  C   UNL     1       0.915   3.300  -6.522  0.00  0.00    +0.017 C 
ATOM      2  C   UNL     1       2.133   4.240  -6.318  0.00  0.00    +0.025 C 
ATOM      3  C   UNL     1       3.283   3.256  -6.017  0.00  0.00    +0.088 C 
ATOM      4  N   UNL     1       2.674   2.007  -5.528  0.00  0.00    -0.298 NA
ATOM      5  C   UNL     1       1.206   2.182  -5.490  0.00  0.00    +0.085 C 
ATOM      6  C   UNL     1       3.047   0.870  -6.380  0.00  0.00    +0.105 C 
ENDROOT
BRANCH   3   7
ATOM      7  C   UNL     1       4.188   3.834  -4.960  0.00  0.00    -0.012 A 
ATOM      8  C   UNL     1       5.525   4.057  -5.230  0.00  0.00    +0.115 A 
ATOM      9  N   UNL     1       6.324   4.563  -4.310  0.00  0.00    -0.263 NA
ATOM     10  C   UNL     1       5.886   4.874  -3.107  0.00  0.00    +0.111 A 
ATOM     11  C   UNL     1       4.561   4.680  -2.764  0.00  0.00    +0.020 A 
ATOM     12  C   UNL     1       3.690   4.155  -3.706  0.00  0.00    +0.008 A 
ENDBRANCH   3   7
TORSDOF 1
ENDMDL
MODEL 3
REMARK VINA RESULT:    -3.927      3.223      5.449
REMARK INTER + INTRA:          -4.359
REMARK INTER:                  -4.117
REMARK INTRA:                  -0.242
REMARK UNBOUND:                -0.202
REMARK  Name = Nicotine.pdb
REMARK  2 active torsions:
REMARK  status: ('A' for Active; 'I' for Inactive)
REMARK    1  A    between atoms: C_3  and  C_6
REMARK    2  A    between atoms: N_4  and  C_12
REMARK                            x       y       z     vdW  Elec       q    Type
REMARK                         _______ _______ _______ _____ _____    ______ ____
ROOT
ATOM      1  C   UNL     1       7.936   5.910   0.619  0.00  0.00    +0.017 C 
ATOM      2  C   UNL     1       7.073   4.884  -0.162  0.00  0.00    +0.025 C 
ATOM      3  C   UNL     1       7.621   4.994  -1.601  0.00  0.00    +0.088 C 
ATOM      4  N   UNL     1       8.270   6.312  -1.722  0.00  0.00    -0.298 NA
ATOM      5  C   UNL     1       8.125   7.028  -0.437  0.00  0.00    +0.085 C 
ATOM      6  C   UNL     1       9.684   6.171  -2.091  0.00  0.00    +0.105 C 
ENDROOT
BRANCH   3   7
ATOM      7  C   UNL     1       6.490   4.885  -2.590  0.00  0.00    -0.012 A 
ATOM      8  C   UNL     1       6.743   4.913  -3.948  0.00  0.00    +0.115 A 
ATOM      9  N   UNL     1       5.759   4.818  -4.820  0.00  0.00    -0.263 NA
ATOM     10  C   UNL     1       4.504   4.693  -4.438  0.00  0.00    +0.111 A 
ATOM     11  C   UNL     1       4.173   4.657  -3.096  0.00  0.00    +0.020 A 
ATOM     12  C   UNL     1       5.182   4.749  -2.150  0.00  0.00    +0.008 A 
ENDBRANCH   3   7
TORSDOF 1
ENDMDL
MODEL 4
REMARK VINA RESULT:    -3.721      2.494      3.450
REMARK INTER + INTRA:          -4.140
REMARK INTER:                  -3.944
REMARK INTRA:                  -0.196
REMARK UNBOUND:                -0.202
REMARK  Name = Nicotine.pdb
REMARK  2 active torsions:
REMARK  status: ('A' for Active; 'I' for Inactive)
REMARK    1  A    between atoms: C_3  and  C_6
REMARK    2  A    between atoms: N_4  and  C_12
REMARK                            x       y       z     vdW  Elec       q    Type
REMARK                         _______ _______ _______ _____ _____    ______ ____
ROOT
ATOM      1  C   UNL     1      -0.224   3.253  -5.771  0.00  0.00    +0.017 C 
ATOM      2  C   UNL     1       0.833   2.271  -5.201  0.00  0.00    +0.025 C 
ATOM      3  C   UNL     1       2.157   2.808  -5.786  0.00  0.00    +0.088 C 
ATOM      4  N   UNL     1       1.817   3.597  -6.984  0.00  0.00    -0.298 NA
ATOM      5  C   UNL     1       0.352   3.551  -7.178  0.00  0.00    +0.085 C 
ATOM      6  C   UNL     1       2.288   4.982  -6.853  0.00  0.00    +0.105 C 
ENDROOT
BRANCH   3   7
ATOM      7  C   UNL     1       3.053   1.658  -6.166  0.00  0.00    -0.012 A 
ATOM      8  C   UNL     1       2.561   0.606  -6.915  0.00  0.00    +0.115 A 
ATOM      9  N   UNL     1       3.339  -0.405  -7.252  0.00  0.00    -0.263 NA
ATOM     10  C   UNL     1       4.606  -0.454  -6.891  0.00  0.00    +0.111 A 
ATOM     11  C   UNL     1       5.168   0.562  -6.141  0.00  0.00    +0.020 A 
ATOM     12  C   UNL     1       4.383   1.643  -5.773  0.00  0.00    +0.008 A 
ENDBRANCH   3   7
TORSDOF 1
ENDMDL
MODEL 5
REMARK VINA RESULT:    -3.718      2.921      5.390
REMARK INTER + INTRA:          -4.138
REMARK INTER:                  -3.924
REMARK INTRA:                  -0.214
REMARK UNBOUND:                -0.202
REMARK  Name = Nicotine.pdb
REMARK  2 active torsions:
REMARK  status: ('A' for Active; 'I' for Inactive)
REMARK    1  A    between atoms: C_3  and  C_6
REMARK    2  A    between atoms: N_4  and  C_12
REMARK                            x       y       z     vdW  Elec       q    Type
REMARK                         _______ _______ _______ _____ _____    ______ ____
ROOT
ATOM      1  C   UNL     1       3.570   4.267  -3.874  0.00  0.00    +0.017 C 
ATOM      2  C   UNL     1       4.581   4.357  -2.701  0.00  0.00    +0.025 C 
ATOM      3  C   UNL     1       5.576   5.434  -3.183  0.00  0.00    +0.088 C 
ATOM      4  N   UNL     1       5.479   5.493  -4.652  0.00  0.00    -0.298 NA
ATOM      5  C   UNL     1       4.491   4.487  -5.099  0.00  0.00    +0.085 C 
ATOM      6  C   UNL     1       5.101   6.838  -5.102  0.00  0.00    +0.105 C 
ENDROOT
BRANCH   3   7
ATOM      7  C   UNL     1       6.977   5.057  -2.775  0.00  0.00    -0.012 A 
ATOM      8  C   UNL     1       7.330   5.021  -1.439  0.00  0.00    +0.115 A 
ATOM      9  N   UNL     1       8.554   4.692  -1.074  0.00  0.00    -0.263 NA
ATOM     10  C   UNL     1       9.483   4.387  -1.958  0.00  0.00    +0.111 A 
ATOM     11  C   UNL     1       9.203   4.401  -3.312  0.00  0.00    +0.020 A 
ATOM     12  C   UNL     1       7.926   4.737  -3.734  0.00  0.00    +0.008 A 
ENDBRANCH   3   7
TORSDOF 1
ENDMDL
MODEL 6
REMARK VINA RESULT:    -3.686      2.088      2.935
REMARK INTER + INTRA:          -4.104
REMARK INTER:                  -3.885
REMARK INTRA:                  -0.219
REMARK UNBOUND:                -0.202
REMARK  Name = Nicotine.pdb
REMARK  2 active torsions:
REMARK  status: ('A' for Active; 'I' for Inactive)
REMARK    1  A    between atoms: C_3  and  C_6
REMARK    2  A    between atoms: N_4  and  C_12
REMARK                            x       y       z     vdW  Elec       q    Type
REMARK                         _______ _______ _______ _____ _____    ______ ____
ROOT
ATOM      1  C   UNL     1       5.139   5.143  -3.062  0.00  0.00    +0.017 C 
ATOM      2  C   UNL     1       3.835   4.306  -3.124  0.00  0.00    +0.025 C 
ATOM      3  C   UNL     1       3.920   3.632  -4.510  0.00  0.00    +0.088 C 
ATOM      4  N   UNL     1       4.830   4.447  -5.336  0.00  0.00    -0.298 NA
ATOM      5  C   UNL     1       5.288   5.601  -4.534  0.00  0.00    +0.085 C 
ATOM      6  C   UNL     1       5.968   3.649  -5.810  0.00  0.00    +0.105 C 
ENDROOT
BRANCH   3   7
ATOM      7  C   UNL     1       2.553   3.587  -5.143  0.00  0.00    -0.012 A 
ATOM      8  C   UNL     1       2.296   4.293  -6.303  0.00  0.00    +0.115 A 
ATOM      9  N   UNL     1       1.102   4.259  -6.863  0.00  0.00    -0.263 NA
ATOM     10  C   UNL     1       0.114   3.556  -6.346  0.00  0.00    +0.111 A 
ATOM     11  C   UNL     1       0.297   2.824  -5.188  0.00  0.00    +0.020 A 
ATOM     12  C   UNL     1       1.540   2.832  -4.573  0.00  0.00    +0.008 A 
ENDBRANCH   3   7
TORSDOF 1
ENDMDL
MODEL 7
REMARK VINA RESULT:    -3.657      1.889      2.761
REMARK INTER + INTRA:          -4.073
REMARK INTER:                  -3.849
REMARK INTRA:                  -0.224
REMARK UNBOUND:                -0.202
REMARK  Name = Nicotine.pdb
REMARK  2 active torsions:
REMARK  status: ('A' for Active; 'I' for Inactive)
REMARK    1  A    between atoms: C_3  and  C_6
REMARK    2  A    between atoms: N_4  and  C_12
REMARK                            x       y       z     vdW  Elec       q    Type
REMARK                         _______ _______ _______ _____ _____    ______ ____
ROOT
ATOM      1  C   UNL     1       3.470   4.052  -3.761  0.00  0.00    +0.017 C 
ATOM      2  C   UNL     1       4.592   3.306  -4.530  0.00  0.00    +0.025 C 
ATOM      3  C   UNL     1       3.938   3.007  -5.896  0.00  0.00    +0.088 C 
ATOM      4  N   UNL     1       2.477   3.043  -5.698  0.00  0.00    -0.298 NA
ATOM      5  C   UNL     1       2.202   3.323  -4.272  0.00  0.00    +0.085 C 
ATOM      6  C   UNL     1       1.852   4.050  -6.563  0.00  0.00    +0.105 C 
ENDROOT
BRANCH   3   7
ATOM      7  C   UNL     1       4.358   1.643  -6.378  0.00  0.00    -0.012 A 
ATOM      8  C   UNL     1       3.408   0.694  -6.706  0.00  0.00    +0.115 A 
ATOM      9  N   UNL     1       3.768  -0.502  -7.129  0.00  0.00    -0.263 NA
ATOM     10  C   UNL     1       5.036  -0.840  -7.256  0.00  0.00    +0.111 A 
ATOM     11  C   UNL     1       6.041   0.057  -6.948  0.00  0.00    +0.020 A 
ATOM     12  C   UNL     1       5.702   1.326  -6.505  0.00  0.00    +0.008 A 
ENDBRANCH   3   7
TORSDOF 1
ENDMDL
MODEL 8
REMARK VINA RESULT:    -3.633      1.297      4.483
REMARK INTER + INTRA:          -4.047
REMARK INTER:                  -3.875
REMARK INTRA:                  -0.173
REMARK UNBOUND:                -0.202
REMARK  Name = Nicotine.pdb
REMARK  2 active torsions:
REMARK  status: ('A' for Active; 'I' for Inactive)
REMARK    1  A    between atoms: C_3  and  C_6
REMARK    2  A    between atoms: N_4  and  C_12
REMARK                            x       y       z     vdW  Elec       q    Type
REMARK                         _______ _______ _______ _____ _____    ______ ____
ROOT
ATOM      1  C   UNL     1       3.180   1.252  -6.918  0.00  0.00    +0.017 C 
ATOM      2  C   UNL     1       4.103   1.804  -5.801  0.00  0.00    +0.025 C 
ATOM      3  C   UNL     1       3.151   2.690  -4.970  0.00  0.00    +0.088 C 
ATOM      4  N   UNL     1       2.021   3.056  -5.844  0.00  0.00    -0.298 NA
ATOM      5  C   UNL     1       2.246   2.460  -7.178  0.00  0.00    +0.085 C 
ATOM      6  C   UNL     1       0.746   2.606  -5.273  0.00  0.00    +0.105 C 
ENDROOT
BRANCH   3   7
ATOM      7  C   UNL     1       3.872   3.932  -4.515  0.00  0.00    -0.012 A 
ATOM      8  C   UNL     1       3.924   5.049  -5.329  0.00  0.00    +0.115 A 
ATOM      9  N   UNL     1       4.553   6.140  -4.938  0.00  0.00    -0.263 NA
ATOM     10  C   UNL     1       5.154   6.212  -3.767  0.00  0.00    +0.111 A 
ATOM     11  C   UNL     1       5.144   5.135  -2.899  0.00  0.00    +0.020 A 
ATOM     12  C   UNL     1       4.488   3.973  -3.273  0.00  0.00    +0.008 A 
ENDBRANCH   3   7
TORSDOF 1
ENDMDL
MODEL 9
REMARK VINA RESULT:    -3.579      1.594      4.388
REMARK INTER + INTRA:          -3.990
REMARK INTER:                  -3.798
REMARK INTRA:                  -0.193
REMARK UNBOUND:                -0.202
REMARK  Name = Nicotine.pdb
REMARK  2 active torsions:
REMARK  status: ('A' for Active; 'I' for Inactive)
REMARK    1  A    between atoms: C_3  and  C_6
REMARK    2  A    between atoms: N_4  and  C_12
REMARK                            x       y       z     vdW  Elec       q    Type
REMARK                         _______ _______ _______ _____ _____    ______ ____
ROOT
ATOM      1  C   UNL     1       3.115   0.663  -6.576  0.00  0.00    +0.017 C 
ATOM      2  C   UNL     1       2.955   2.130  -6.097  0.00  0.00    +0.025 C 
ATOM      3  C   UNL     1       4.400   2.670  -6.145  0.00  0.00    +0.088 C 
ATOM      4  N   UNL     1       5.304   1.508  -6.077  0.00  0.00    -0.298 NA
ATOM      5  C   UNL     1       4.486   0.281  -5.964  0.00  0.00    +0.085 C 
ATOM      6  C   UNL     1       6.179   1.451  -7.256  0.00  0.00    +0.105 C 
ENDROOT
BRANCH   3   7
ATOM      7  C   UNL     1       4.646   3.581  -4.971  0.00  0.00    -0.012 A 
ATOM      8  C   UNL     1       3.597   3.981  -4.164  0.00  0.00    +0.115 A 
ATOM      9  N   UNL     1       3.804   4.778  -3.134  0.00  0.00    -0.263 NA
ATOM     10  C   UNL     1       5.008   5.224  -2.833  0.00  0.00    +0.111 A 
ATOM     11  C   UNL     1       6.105   4.867  -3.594  0.00  0.00    +0.020 A 
ATOM     12  C   UNL     1       5.928   4.025  -4.682  0.00  0.00    +0.008 A 
ENDBRANCH   3   7
TORSDOF 1
ENDMDL
MODEL 10
REMARK VINA RESULT:    -3.545      2.764      4.442
REMARK INTER + INTRA:          -3.955
REMARK INTER:                  -3.738
REMARK INTRA:                  -0.216
REMARK UNBOUND:                -0.202
REMARK  Name = Nicotine.pdb
REMARK  2 active torsions:
REMARK  status: ('A' for Active; 'I' for Inactive)
REMARK    1  A    between atoms: C_3  and  C_6
REMARK    2  A    between atoms: N_4  and  C_12
REMARK                            x       y       z     vdW  Elec       q    Type
REMARK                         _______ _______ _______ _____ _____    ______ ____
ROOT
ATOM      1  C   UNL     1       9.641   4.355  -3.071  0.00  0.00    +0.017 C 
ATOM      2  C   UNL     1       8.491   4.413  -4.112  0.00  0.00    +0.025 C 
ATOM      3  C   UNL     1       7.457   5.338  -3.435  0.00  0.00    +0.088 C 
ATOM      4  N   UNL     1       7.725   5.307  -1.986  0.00  0.00    -0.298 NA
ATOM      5  C   UNL     1       8.856   4.388  -1.736  0.00  0.00    +0.085 C 
ATOM      6  C   UNL     1       8.016   6.652  -1.475  0.00  0.00    +0.105 C 
ENDROOT
BRANCH   3   7
ATOM      7  C   UNL     1       6.063   4.838  -3.712  0.00  0.00    -0.012 A 
ATOM      8  C   UNL     1       5.020   5.174  -2.870  0.00  0.00    +0.115 A 
ATOM      9  N   UNL     1       3.797   4.741  -3.105  0.00  0.00    -0.263 NA
ATOM     10  C   UNL     1       3.520   3.975  -4.142  0.00  0.00    +0.111 A 
ATOM     11  C   UNL     1       4.512   3.598  -5.028  0.00  0.00    +0.020 A 
ATOM     12  C   UNL     1       5.809   4.039  -4.816  0.00  0.00    +0.008 A 
ENDBRANCH   3   7
TORSDOF 1
ENDMDL
