MODEL 1
REMARK VINA RESULT:     0.000      0.000      0.000
REMARK INTER + INTRA:          -0.256
REMARK INTER:                   0.000
REMARK INTRA:                  -0.256
REMARK UNBOUND:                -0.256
REMARK  Name = Nicotine.pdb
REMARK  2 active torsions:
REMARK  status: ('A' for Active; 'I' for Inactive)
REMARK    1  A    between atoms: C_3  and  C_6
REMARK    2  A    between atoms: N_4  and  C_12
REMARK                            x       y       z     vdW  Elec       q    Type
REMARK                         _______ _______ _______ _____ _____    ______ ____
ROOT
ATOM      1  C   UNL     1       2.419   1.723   1.984  0.00  0.00    +0.017 C 
ATOM      2  C   UNL     1       3.917   1.443   1.695  0.00  0.00    +0.025 C 
ATOM      3  C   UNL     1       3.870   0.188   0.799  0.00  0.00    +0.088 C 
ATOM      4  N   UNL     1       2.581  -0.481   1.052  0.00  0.00    -0.298 NA
ATOM      5  C   UNL     1       1.845   0.287   2.079  0.00  0.00    +0.085 C 
ATOM      6  C   UNL     1       1.795  -0.597  -0.184  0.00  0.00    +0.105 C 
ENDROOT
BRANCH   3   7
ATOM      7  C   UNL     1       5.006  -0.737   1.150  0.00  0.00    -0.012 A 
ATOM      8  C   UNL     1       5.446  -1.681   0.241  0.00  0.00    +0.115 A 
ATOM      9  N   UNL     1       6.441  -2.494   0.540  0.00  0.00    -0.263 NA
ATOM     10  C   UNL     1       7.051  -2.441   1.708  0.00  0.00    +0.111 A 
ATOM     11  C   UNL     1       6.667  -1.523   2.667  0.00  0.00    +0.020 A 
ATOM     12  C   UNL     1       5.628  -0.648   2.386  0.00  0.00    +0.008 A 
ENDBRANCH   3   7
TORSDOF 1
ENDMDL
MODEL 2
REMARK VINA RESULT:     0.000      6.436      8.194
REMARK INTER + INTRA:          -0.256
REMARK INTER:                   0.000
REMARK INTRA:                  -0.256
REMARK UNBOUND:                -0.256
REMARK  Name = Nicotine.pdb
REMARK  2 active torsions:
REMARK  status: ('A' for Active; 'I' for Inactive)
REMARK    1  A    between atoms: C_3  and  C_6
REMARK    2  A    between atoms: N_4  and  C_12
REMARK                            x       y       z     vdW  Elec       q    Type
REMARK                         _______ _______ _______ _____ _____    ______ ____
ROOT
ATOM      1  C   UNL     1      -0.078   0.674  -2.567  0.00  0.00    +0.017 C 
ATOM      2  C   UNL     1       0.599   1.950  -2.001  0.00  0.00    +0.025 C 
ATOM      3  C   UNL     1      -0.502   2.560  -1.107  0.00  0.00    +0.088 C 
ATOM      4  N   UNL     1      -1.794   2.032  -1.584  0.00  0.00    -0.298 NA
ATOM      5  C   UNL     1      -1.542   1.148  -2.742  0.00  0.00    +0.085 C 
ATOM      6  C   UNL     1      -2.496   1.312  -0.514  0.00  0.00    +0.105 C 
ENDROOT
BRANCH   3   7
ATOM      7  C   UNL     1      -0.486   4.062  -1.225  0.00  0.00    -0.012 A 
ATOM      8  C   UNL     1      -1.044   4.847  -0.235  0.00  0.00    +0.115 A 
ATOM      9  N   UNL     1      -1.034   6.162  -0.330  0.00  0.00    -0.263 NA
ATOM     10  C   UNL     1      -0.496   6.778  -1.365  0.00  0.00    +0.111 A 
ATOM     11  C   UNL     1       0.082   6.058  -2.394  0.00  0.00    +0.020 A 
ATOM     12  C   UNL     1       0.094   4.674  -2.326  0.00  0.00    +0.008 A 
ENDBRANCH   3   7
TORSDOF 1
ENDMDL
MODEL 3
REMARK VINA RESULT:     0.000      4.357      5.960
REMARK INTER + INTRA:          -0.256
REMARK INTER:                   0.000
REMARK INTRA:                  -0.256
REMARK UNBOUND:                -0.256
REMARK  Name = Nicotine.pdb
REMARK  2 active torsions:
REMARK  status: ('A' for Active; 'I' for Inactive)
REMARK    1  A    between atoms: C_3  and  C_6
REMARK    2  A    between atoms: N_4  and  C_12
REMARK                            x       y       z     vdW  Elec       q    Type
REMARK                         _______ _______ _______ _____ _____    ______ ____
ROOT
ATOM      1  C   UNL     1       3.936  -2.304  -5.938  0.00  0.00    +0.017 C 
ATOM      2  C   UNL     1       4.412  -1.772  -4.561  0.00  0.00    +0.025 C 
ATOM      3  C   UNL     1       4.215  -2.988  -3.631  0.00  0.00    +0.088 C 
ATOM      4  N   UNL     1       3.214  -3.865  -4.266  0.00  0.00    -0.298 NA
ATOM      5  C   UNL     1       2.768  -3.235  -5.527  0.00  0.00    +0.085 C 
ATOM      6  C   UNL     1       3.766  -5.203  -4.512  0.00  0.00    +0.105 C 
ENDROOT
BRANCH   3   7
ATOM      7  C   UNL     1       3.716  -2.530  -2.285  0.00  0.00    -0.012 A 
ATOM      8  C   UNL     1       3.877  -3.331  -1.171  0.00  0.00    +0.115 A 
ATOM      9  N   UNL     1       3.444  -2.937   0.011  0.00  0.00    -0.263 NA
ATOM     10  C   UNL     1       2.845  -1.774   0.178  0.00  0.00    +0.111 A 
ATOM     11  C   UNL     1       2.650  -0.919  -0.891  0.00  0.00    +0.020 A 
ATOM     12  C   UNL     1       3.096  -1.297  -2.148  0.00  0.00    +0.008 A 
ENDBRANCH   3   7
TORSDOF 1
ENDMDL
MODEL 4
REMARK VINA RESULT:     0.000      6.255      7.688
REMARK INTER + INTRA:          -0.256
REMARK INTER:                   0.000
REMARK INTRA:                  -0.256
REMARK UNBOUND:                -0.256
REMARK  Name = Nicotine.pdb
REMARK  2 active torsions:
REMARK  status: ('A' for Active; 'I' for Inactive)
REMARK    1  A    between atoms: C_3  and  C_6
REMARK    2  A    between atoms: N_4  and  C_12
REMARK                            x       y       z     vdW  Elec       q    Type
REMARK                         _______ _______ _______ _____ _____    ______ ____
ROOT
ATOM      1  C   UNL     1      -2.202   5.425   3.205  0.00  0.00    +0.017 C 
ATOM      2  C   UNL     1      -2.129   3.967   3.731  0.00  0.00    +0.025 C 
ATOM      3  C   UNL     1      -1.350   3.235   2.617  0.00  0.00    +0.088 C 
ATOM      4  N   UNL     1      -1.500   4.029   1.385  0.00  0.00    -0.298 NA
ATOM      5  C   UNL     1      -2.353   5.200   1.680  0.00  0.00    +0.085 C 
ATOM      6  C   UNL     1      -0.192   4.448   0.865  0.00  0.00    +0.105 C 
ENDROOT
BRANCH   3   7
ATOM      7  C   UNL     1      -1.923   1.856   2.413  0.00  0.00    -0.012 A 
ATOM      8  C   UNL     1      -1.165   0.866   1.817  0.00  0.00    +0.115 A 
ATOM      9  N   UNL     1      -1.658  -0.343   1.634  0.00  0.00    -0.263 NA
ATOM     10  C   UNL     1      -2.883  -0.656   2.009  0.00  0.00    +0.111 A 
ATOM     11  C   UNL     1      -3.700   0.282   2.612  0.00  0.00    +0.020 A 
ATOM     12  C   UNL     1      -3.214   1.563   2.825  0.00  0.00    +0.008 A 
ENDBRANCH   3   7
TORSDOF 1
ENDMDL
MODEL 5
REMARK VINA RESULT:     0.000      2.392      3.247
REMARK INTER + INTRA:          -0.256
REMARK INTER:                   0.000
REMARK INTRA:                  -0.256
REMARK UNBOUND:                -0.256
REMARK  Name = Nicotine.pdb
REMARK  2 active torsions:
REMARK  status: ('A' for Active; 'I' for Inactive)
REMARK    1  A    between atoms: C_3  and  C_6
REMARK    2  A    between atoms: N_4  and  C_12
REMARK                            x       y       z     vdW  Elec       q    Type
REMARK                         _______ _______ _______ _____ _____    ______ ____
ROOT
ATOM      1  C   UNL     1       3.564   0.479  -1.271  0.00  0.00    +0.017 C 
ATOM      2  C   UNL     1       4.903   0.445  -0.487  0.00  0.00    +0.025 C 
ATOM      3  C   UNL     1       4.455   0.114   0.952  0.00  0.00    +0.088 C 
ATOM      4  N   UNL     1       3.038   0.505   1.070  0.00  0.00    -0.298 NA
ATOM      5  C   UNL     1       2.601   1.084  -0.219  0.00  0.00    +0.085 C 
ATOM      6  C   UNL     1       2.203  -0.645   1.441  0.00  0.00    +0.105 C 
ENDROOT
BRANCH   3   7
ATOM      7  C   UNL     1       5.286   0.890   1.940  0.00  0.00    -0.012 A 
ATOM      8  C   UNL     1       5.394   0.464   3.250  0.00  0.00    +0.115 A 
ATOM      9  N   UNL     1       6.120   1.138   4.121  0.00  0.00    -0.263 NA
ATOM     10  C   UNL     1       6.766   2.236   3.782  0.00  0.00    +0.111 A 
ATOM     11  C   UNL     1       6.706   2.723   2.490  0.00  0.00    +0.020 A 
ATOM     12  C   UNL     1       5.957   2.038   1.545  0.00  0.00    +0.008 A 
ENDBRANCH   3   7
TORSDOF 1
ENDMDL
MODEL 6
REMARK VINA RESULT:     0.000      2.488      3.328
REMARK INTER + INTRA:          -0.256
REMARK INTER:                   0.000
REMARK INTRA:                  -0.256
REMARK UNBOUND:                -0.256
REMARK  Name = Nicotine.pdb
REMARK  2 active torsions:
REMARK  status: ('A' for Active; 'I' for Inactive)
REMARK    1  A    between atoms: C_3  and  C_6
REMARK    2  A    between atoms: N_4  and  C_12
REMARK                            x       y       z     vdW  Elec       q    Type
REMARK                         _______ _______ _______ _____ _____    ______ ____
ROOT
ATOM      1  C   UNL     1       2.781  -0.706  -0.705  0.00  0.00    +0.017 C 
ATOM      2  C   UNL     1       3.855  -0.870   0.402  0.00  0.00    +0.025 C 
ATOM      3  C   UNL     1       3.085  -1.593   1.528  0.00  0.00    +0.088 C 
ATOM      4  N   UNL     1       1.651  -1.325   1.318  0.00  0.00    -0.298 NA
ATOM      5  C   UNL     1       1.503  -0.453   0.133  0.00  0.00    +0.085 C 
ATOM      6  C   UNL     1       0.900  -2.576   1.148  0.00  0.00    +0.105 C 
ENDROOT
BRANCH   3   7
ATOM      7  C   UNL     1       3.516  -1.059   2.869  0.00  0.00    -0.012 A 
ATOM      8  C   UNL     1       3.324  -1.807   4.014  0.00  0.00    +0.115 A 
ATOM      9  N   UNL     1       3.699  -1.347   5.192  0.00  0.00    -0.263 NA
ATOM     10  C   UNL     1       4.267  -0.165   5.325  0.00  0.00    +0.111 A 
ATOM     11  C   UNL     1       4.492   0.640   4.224  0.00  0.00    +0.020 A 
ATOM     12  C   UNL     1       4.116   0.188   2.969  0.00  0.00    +0.008 A 
ENDBRANCH   3   7
TORSDOF 1
ENDMDL
MODEL 7
REMARK VINA RESULT:     0.000      3.790      5.412
REMARK INTER + INTRA:          -0.256
REMARK INTER:                   0.000
REMARK INTRA:                  -0.256
REMARK UNBOUND:                -0.256
REMARK  Name = Nicotine.pdb
REMARK  2 active torsions:
REMARK  status: ('A' for Active; 'I' for Inactive)
REMARK    1  A    between atoms: C_3  and  C_6
REMARK    2  A    between atoms: N_4  and  C_12
REMARK                            x       y       z     vdW  Elec       q    Type
REMARK                         _______ _______ _______ _____ _____    ______ ____
ROOT
ATOM      1  C   UNL     1       2.198  -2.066  -2.423  0.00  0.00    +0.017 C 
ATOM      2  C   UNL     1       1.400  -1.593  -1.179  0.00  0.00    +0.025 C 
ATOM      3  C   UNL     1       1.025  -0.140  -1.540  0.00  0.00    +0.088 C 
ATOM      4  N   UNL     1       1.985   0.319  -2.560  0.00  0.00    -0.298 NA
ATOM      5  C   UNL     1       2.947  -0.771  -2.825  0.00  0.00    +0.085 C 
ATOM      6  C   UNL     1       1.293   0.723  -3.791  0.00  0.00    +0.105 C 
ENDROOT
BRANCH   3   7
ATOM      7  C   UNL     1       1.119   0.733  -0.316  0.00  0.00    -0.012 A 
ATOM      8  C   UNL     1       0.434   1.932  -0.258  0.00  0.00    +0.115 A 
ATOM      9  N   UNL     1       0.511   2.702   0.810  0.00  0.00    -0.263 NA
ATOM     10  C   UNL     1       1.237   2.364   1.857  0.00  0.00    +0.111 A 
ATOM     11  C   UNL     1       1.949   1.179   1.872  0.00  0.00    +0.020 A 
ATOM     12  C   UNL     1       1.888   0.341   0.769  0.00  0.00    +0.008 A 
ENDBRANCH   3   7
TORSDOF 1
ENDMDL
MODEL 8
REMARK VINA RESULT:     0.000      6.380      8.056
REMARK INTER + INTRA:          -0.256
REMARK INTER:                   0.000
REMARK INTRA:                  -0.256
REMARK UNBOUND:                -0.256
REMARK  Name = Nicotine.pdb
REMARK  2 active torsions:
REMARK  status: ('A' for Active; 'I' for Inactive)
REMARK    1  A    between atoms: C_3  and  C_6
REMARK    2  A    between atoms: N_4  and  C_12
REMARK                            x       y       z     vdW  Elec       q    Type
REMARK                         _______ _______ _______ _____ _____    ______ ____
ROOT
ATOM      1  C   UNL     1      -5.165   1.921  -1.480  0.00  0.00    +0.017 C 
ATOM      2  C   UNL     1      -4.723   0.515  -0.996  0.00  0.00    +0.025 C 
ATOM      3  C   UNL     1      -3.203   0.681  -0.788  0.00  0.00    +0.088 C 
ATOM      4  N   UNL     1      -2.771   1.825  -1.611  0.00  0.00    -0.298 NA
ATOM      5  C   UNL     1      -3.947   2.354  -2.335  0.00  0.00    +0.085 C 
ATOM      6  C   UNL     1      -2.150   2.866  -0.783  0.00  0.00    +0.105 C 
ENDROOT
BRANCH   3   7
ATOM      7  C   UNL     1      -2.486  -0.569  -1.228  0.00  0.00    -0.012 A 
ATOM      8  C   UNL     1      -1.218  -0.851  -0.754  0.00  0.00    +0.115 A 
ATOM      9  N   UNL     1      -0.583  -1.943  -1.134  0.00  0.00    -0.263 NA
ATOM     10  C   UNL     1      -1.125  -2.803  -1.974  0.00  0.00    +0.111 A 
ATOM     11  C   UNL     1      -2.390  -2.588  -2.489  0.00  0.00    +0.020 A 
ATOM     12  C   UNL     1      -3.090  -1.453  -2.108  0.00  0.00    +0.008 A 
ENDBRANCH   3   7
TORSDOF 1
ENDMDL
MODEL 9
REMARK VINA RESULT:     0.000      2.514      3.695
REMARK INTER + INTRA:          -0.256
REMARK INTER:                   0.000
REMARK INTRA:                  -0.256
REMARK UNBOUND:                -0.256
REMARK  Name = Nicotine.pdb
REMARK  2 active torsions:
REMARK  status: ('A' for Active; 'I' for Inactive)
REMARK    1  A    between atoms: C_3  and  C_6
REMARK    2  A    between atoms: N_4  and  C_12
REMARK                            x       y       z     vdW  Elec       q    Type
REMARK                         _______ _______ _______ _____ _____    ______ ____
ROOT
ATOM      1  C   UNL     1       3.128  -1.079  -3.311  0.00  0.00    +0.017 C 
ATOM      2  C   UNL     1       4.031  -1.561  -2.146  0.00  0.00    +0.025 C 
ATOM      3  C   UNL     1       3.043  -2.312  -1.228  0.00  0.00    +0.088 C 
ATOM      4  N   UNL     1       1.693  -1.802  -1.530  0.00  0.00    -0.298 NA
ATOM      5  C   UNL     1       1.806  -0.757  -2.569  0.00  0.00    +0.085 C 
ATOM      6  C   UNL     1       0.806  -2.888  -1.967  0.00  0.00    +0.105 C 
ENDROOT
BRANCH   3   7
ATOM      7  C   UNL     1       3.382  -2.047   0.216  0.00  0.00    -0.012 A 
ATOM      8  C   UNL     1       2.956  -2.914   1.204  0.00  0.00    +0.115 A 
ATOM      9  N   UNL     1       3.248  -2.690   2.471  0.00  0.00    -0.263 NA
ATOM     10  C   UNL     1       3.951  -1.639   2.844  0.00  0.00    +0.111 A 
ATOM     11  C   UNL     1       4.412  -0.728   1.911  0.00  0.00    +0.020 A 
ATOM     12  C   UNL     1       4.129  -0.934   0.570  0.00  0.00    +0.008 A 
ENDBRANCH   3   7
TORSDOF 1
ENDMDL
MODEL 10
REMARK VINA RESULT:     0.000      2.821      4.329
REMARK INTER + INTRA:          -0.256
REMARK INTER:                   0.000
REMARK INTRA:                  -0.256
REMARK UNBOUND:                -0.256
REMARK  Name = Nicotine.pdb
REMARK  2 active torsions:
REMARK  status: ('A' for Active; 'I' for Inactive)
REMARK    1  A    between atoms: C_3  and  C_6
REMARK    2  A    between atoms: N_4  and  C_12
REMARK                            x       y       z     vdW  Elec       q    Type
REMARK                         _______ _______ _______ _____ _____    ______ ____
ROOT
ATOM      1  C   UNL     1       6.198  -3.278   1.391  0.00  0.00    +0.017 C 
ATOM      2  C   UNL     1       7.047  -2.002   1.148  0.00  0.00    +0.025 C 
ATOM      3  C   UNL     1       6.016  -1.000   0.589  0.00  0.00    +0.088 C 
ATOM      4  N   UNL     1       4.898  -1.786   0.035  0.00  0.00    -0.298 NA
ATOM      5  C   UNL     1       5.204  -3.223   0.204  0.00  0.00    +0.085 C 
ATOM      6  C   UNL     1       3.632  -1.436   0.691  0.00  0.00    +0.105 C 
ENDROOT
BRANCH   3   7
ATOM      7  C   UNL     1       6.646  -0.168  -0.498  0.00  0.00    -0.012 A 
ATOM      8  C   UNL     1       6.105   1.056  -0.844  0.00  0.00    +0.115 A 
ATOM      9  N   UNL     1       6.651   1.790  -1.794  0.00  0.00    -0.263 NA
ATOM     10  C   UNL     1       7.725   1.393  -2.446  0.00  0.00    +0.111 A 
ATOM     11  C   UNL     1       8.322   0.180  -2.154  0.00  0.00    +0.020 A 
ATOM     12  C   UNL     1       7.780  -0.617  -1.158  0.00  0.00    +0.008 A 
ENDBRANCH   3   7
TORSDOF 1
ENDMDL
