MODEL 1
REMARK VINA RESULT:     0.000      0.000      0.000
REMARK INTER + INTRA:          -0.256
REMARK INTER:                   0.000
REMARK INTRA:                  -0.256
REMARK UNBOUND:                -0.256
REMARK  Name = Nicotine.pdb
REMARK  2 active torsions:
REMARK  status: ('A' for Active; 'I' for Inactive)
REMARK    1  A    between atoms: C_3  and  C_6
REMARK    2  A    between atoms: N_4  and  C_12
REMARK                            x       y       z     vdW  Elec       q    Type
REMARK                         _______ _______ _______ _____ _____    ______ ____
ROOT
ATOM      1  C   UNL     1      -0.845  -1.033  -0.678  0.00  0.00    +0.017 C 
ATOM      2  C   UNL     1      -0.314  -2.460  -0.975  0.00  0.00    +0.025 C 
ATOM      3  C   UNL     1       1.218  -2.274  -0.951  0.00  0.00    +0.088 C 
ATOM      4  N   UNL     1       1.488  -0.847  -1.205  0.00  0.00    -0.298 NA
ATOM      5  C   UNL     1       0.199  -0.153  -1.410  0.00  0.00    +0.085 C 
ATOM      6  C   UNL     1       2.240  -0.247  -0.096  0.00  0.00    +0.105 C 
ENDROOT
BRANCH   3   7
ATOM      7  C   UNL     1       1.854  -3.117  -2.026  0.00  0.00    -0.012 A 
ATOM      8  C   UNL     1       3.187  -3.470  -1.939  0.00  0.00    +0.115 A 
ATOM      9  N   UNL     1       3.752  -4.208  -2.875  0.00  0.00    -0.263 NA
ATOM     10  C   UNL     1       3.075  -4.635  -3.923  0.00  0.00    +0.111 A 
ATOM     11  C   UNL     1       1.737  -4.322  -4.077  0.00  0.00    +0.020 A 
ATOM     12  C   UNL     1       1.109  -3.553  -3.111  0.00  0.00    +0.008 A 
ENDBRANCH   3   7
TORSDOF 1
ENDMDL
MODEL 2
REMARK VINA RESULT:     0.000      7.103      9.306
REMARK INTER + INTRA:          -0.256
REMARK INTER:                   0.000
REMARK INTRA:                  -0.256
REMARK UNBOUND:                -0.256
REMARK  Name = Nicotine.pdb
REMARK  2 active torsions:
REMARK  status: ('A' for Active; 'I' for Inactive)
REMARK    1  A    between atoms: C_3  and  C_6
REMARK    2  A    between atoms: N_4  and  C_12
REMARK                            x       y       z     vdW  Elec       q    Type
REMARK                         _______ _______ _______ _____ _____    ______ ____
ROOT
ATOM      1  C   UNL     1       4.416   3.255  -0.817  0.00  0.00    +0.017 C 
ATOM      2  C   UNL     1       3.034   3.333  -0.116  0.00  0.00    +0.025 C 
ATOM      3  C   UNL     1       2.803   4.852   0.028  0.00  0.00    +0.088 C 
ATOM      4  N   UNL     1       4.124   5.502  -0.032  0.00  0.00    -0.298 NA
ATOM      5  C   UNL     1       5.158   4.456  -0.180  0.00  0.00    +0.085 C 
ATOM      6  C   UNL     1       4.188   6.466  -1.138  0.00  0.00    +0.105 C 
ENDROOT
BRANCH   3   7
ATOM      7  C   UNL     1       2.144   5.147   1.350  0.00  0.00    -0.012 A 
ATOM      8  C   UNL     1       1.447   6.326   1.536  0.00  0.00    +0.115 A 
ATOM      9  N   UNL     1       0.867   6.593   2.690  0.00  0.00    -0.263 NA
ATOM     10  C   UNL     1       0.928   5.754   3.706  0.00  0.00    +0.111 A 
ATOM     11  C   UNL     1       1.607   4.555   3.595  0.00  0.00    +0.020 A 
ATOM     12  C   UNL     1       2.224   4.239   2.394  0.00  0.00    +0.008 A 
ENDBRANCH   3   7
TORSDOF 1
ENDMDL
MODEL 3
REMARK VINA RESULT:     0.000      4.799      7.474
REMARK INTER + INTRA:          -0.256
REMARK INTER:                   0.000
REMARK INTRA:                  -0.256
REMARK UNBOUND:                -0.256
REMARK  Name = Nicotine.pdb
REMARK  2 active torsions:
REMARK  status: ('A' for Active; 'I' for Inactive)
REMARK    1  A    between atoms: C_3  and  C_6
REMARK    2  A    between atoms: N_4  and  C_12
REMARK                            x       y       z     vdW  Elec       q    Type
REMARK                         _______ _______ _______ _____ _____    ______ ____
ROOT
ATOM      1  C   UNL     1      -0.470   3.723  -2.723  0.00  0.00    +0.017 C 
ATOM      2  C   UNL     1       0.819   4.586  -2.703  0.00  0.00    +0.025 C 
ATOM      3  C   UNL     1       1.905   3.578  -2.273  0.00  0.00    +0.088 C 
ATOM      4  N   UNL     1       1.224   2.474  -1.573  0.00  0.00    -0.298 NA
ATOM      5  C   UNL     1      -0.225   2.766  -1.530  0.00  0.00    +0.085 C 
ATOM      6  C   UNL     1       1.482   1.189  -2.237  0.00  0.00    +0.105 C 
ENDROOT
BRANCH   3   7
ATOM      7  C   UNL     1       2.887   4.246  -1.346  0.00  0.00    -0.012 A 
ATOM      8  C   UNL     1       4.154   3.722  -1.174  0.00  0.00    +0.115 A 
ATOM      9  N   UNL     1       5.020   4.301  -0.365  0.00  0.00    -0.263 NA
ATOM     10  C   UNL     1       4.715   5.392   0.309  0.00  0.00    +0.111 A 
ATOM     11  C   UNL     1       3.467   5.973   0.189  0.00  0.00    +0.020 A 
ATOM     12  C   UNL     1       2.533   5.396  -0.657  0.00  0.00    +0.008 A 
ENDBRANCH   3   7
TORSDOF 1
ENDMDL
MODEL 4
REMARK VINA RESULT:     0.000      4.918      6.380
REMARK INTER + INTRA:          -0.256
REMARK INTER:                   0.000
REMARK INTRA:                  -0.256
REMARK UNBOUND:                -0.256
REMARK  Name = Nicotine.pdb
REMARK  2 active torsions:
REMARK  status: ('A' for Active; 'I' for Inactive)
REMARK    1  A    between atoms: C_3  and  C_6
REMARK    2  A    between atoms: N_4  and  C_12
REMARK                            x       y       z     vdW  Elec       q    Type
REMARK                         _______ _______ _______ _____ _____    ______ ____
ROOT
ATOM      1  C   UNL     1      -0.362   1.260  -2.567  0.00  0.00    +0.017 C 
ATOM      2  C   UNL     1       0.323   1.441  -3.947  0.00  0.00    +0.025 C 
ATOM      3  C   UNL     1       1.752   1.886  -3.569  0.00  0.00    +0.088 C 
ATOM      4  N   UNL     1       1.688   2.452  -2.210  0.00  0.00    -0.298 NA
ATOM      5  C   UNL     1       0.286   2.401  -1.744  0.00  0.00    +0.085 C 
ATOM      6  C   UNL     1       2.576   1.725  -1.294  0.00  0.00    +0.105 C 
ENDROOT
BRANCH   3   7
ATOM      7  C   UNL     1       2.237   2.931  -4.540  0.00  0.00    -0.012 A 
ATOM      8  C   UNL     1       3.590   3.166  -4.696  0.00  0.00    +0.115 A 
ATOM      9  N   UNL     1       4.022   4.079  -5.544  0.00  0.00    -0.263 NA
ATOM     10  C   UNL     1       3.191   4.800  -6.270  0.00  0.00    +0.111 A 
ATOM     11  C   UNL     1       1.824   4.620  -6.168  0.00  0.00    +0.020 A 
ATOM     12  C   UNL     1       1.332   3.666  -5.292  0.00  0.00    +0.008 A 
ENDBRANCH   3   7
TORSDOF 1
ENDMDL
MODEL 5
REMARK VINA RESULT:     0.000      4.131      5.161
REMARK INTER + INTRA:          -0.256
REMARK INTER:                   0.000
REMARK INTRA:                  -0.256
REMARK UNBOUND:                -0.256
REMARK  Name = Nicotine.pdb
REMARK  2 active torsions:
REMARK  status: ('A' for Active; 'I' for Inactive)
REMARK    1  A    between atoms: C_3  and  C_6
REMARK    2  A    between atoms: N_4  and  C_12
REMARK                            x       y       z     vdW  Elec       q    Type
REMARK                         _______ _______ _______ _____ _____    ______ ____
ROOT
ATOM      1  C   UNL     1       1.852  -2.573  -3.531  0.00  0.00    +0.017 C 
ATOM      2  C   UNL     1       2.809  -1.645  -2.737  0.00  0.00    +0.025 C 
ATOM      3  C   UNL     1       3.073  -0.490  -3.726  0.00  0.00    +0.088 C 
ATOM      4  N   UNL     1       2.794  -1.002  -5.080  0.00  0.00    -0.298 NA
ATOM      5  C   UNL     1       2.396  -2.422  -4.973  0.00  0.00    +0.085 C 
ATOM      6  C   UNL     1       1.747  -0.209  -5.737  0.00  0.00    +0.105 C 
ENDROOT
BRANCH   3   7
ATOM      7  C   UNL     1       4.511  -0.051  -3.629  0.00  0.00    -0.012 A 
ATOM      8  C   UNL     1       4.888   1.207  -4.060  0.00  0.00    +0.115 A 
ATOM      9  N   UNL     1       6.144   1.600  -3.979  0.00  0.00    -0.263 NA
ATOM     10  C   UNL     1       7.084   0.817  -3.489  0.00  0.00    +0.111 A 
ATOM     11  C   UNL     1       6.783  -0.454  -3.037  0.00  0.00    +0.020 A 
ATOM     12  C   UNL     1       5.472  -0.900  -3.102  0.00  0.00    +0.008 A 
ENDBRANCH   3   7
TORSDOF 1
ENDMDL
MODEL 6
REMARK VINA RESULT:     0.000      7.821      8.910
REMARK INTER + INTRA:          -0.256
REMARK INTER:                   0.000
REMARK INTRA:                  -0.256
REMARK UNBOUND:                -0.256
REMARK  Name = Nicotine.pdb
REMARK  2 active torsions:
REMARK  status: ('A' for Active; 'I' for Inactive)
REMARK    1  A    between atoms: C_3  and  C_6
REMARK    2  A    between atoms: N_4  and  C_12
REMARK                            x       y       z     vdW  Elec       q    Type
REMARK                         _______ _______ _______ _____ _____    ______ ____
ROOT
ATOM      1  C   UNL     1       3.748   5.038   1.425  0.00  0.00    +0.017 C 
ATOM      2  C   UNL     1       2.781   3.906   1.862  0.00  0.00    +0.025 C 
ATOM      3  C   UNL     1       2.577   4.186   3.366  0.00  0.00    +0.088 C 
ATOM      4  N   UNL     1       3.730   4.983   3.823  0.00  0.00    -0.298 NA
ATOM      5  C   UNL     1       4.645   5.185   2.679  0.00  0.00    +0.085 C 
ATOM      6  C   UNL     1       3.294   6.269   4.382  0.00  0.00    +0.105 C 
ENDROOT
BRANCH   3   7
ATOM      7  C   UNL     1       2.517   2.886   4.126  0.00  0.00    -0.012 A 
ATOM      8  C   UNL     1       1.919   2.831   5.371  0.00  0.00    +0.115 A 
ATOM      9  N   UNL     1       1.862   1.698   6.042  0.00  0.00    -0.263 NA
ATOM     10  C   UNL     1       2.369   0.580   5.560  0.00  0.00    +0.111 A 
ATOM     11  C   UNL     1       2.982   0.558   4.321  0.00  0.00    +0.020 A 
ATOM     12  C   UNL     1       3.056   1.730   3.584  0.00  0.00    +0.008 A 
ENDBRANCH   3   7
TORSDOF 1
ENDMDL
MODEL 7
REMARK VINA RESULT:     0.000      4.366      7.308
REMARK INTER + INTRA:          -0.256
REMARK INTER:                   0.000
REMARK INTRA:                  -0.256
REMARK UNBOUND:                -0.256
REMARK  Name = Nicotine.pdb
REMARK  2 active torsions:
REMARK  status: ('A' for Active; 'I' for Inactive)
REMARK    1  A    between atoms: C_3  and  C_6
REMARK    2  A    between atoms: N_4  and  C_12
REMARK                            x       y       z     vdW  Elec       q    Type
REMARK                         _______ _______ _______ _____ _____    ______ ____
ROOT
ATOM      1  C   UNL     1       0.579   0.454  -2.152  0.00  0.00    +0.017 C 
ATOM      2  C   UNL     1       0.520   0.980  -0.693  0.00  0.00    +0.025 C 
ATOM      3  C   UNL     1      -0.213   2.330  -0.840  0.00  0.00    +0.088 C 
ATOM      4  N   UNL     1      -0.045   2.769  -2.237  0.00  0.00    -0.298 NA
ATOM      5  C   UNL     1       0.777   1.767  -2.949  0.00  0.00    +0.085 C 
ATOM      6  C   UNL     1      -1.346   2.946  -2.893  0.00  0.00    +0.105 C 
ENDROOT
BRANCH   3   7
ATOM      7  C   UNL     1       0.392   3.346   0.095  0.00  0.00    -0.012 A 
ATOM      8  C   UNL     1      -0.330   4.461   0.477  0.00  0.00    +0.115 A 
ATOM      9  N   UNL     1       0.191   5.355   1.294  0.00  0.00    -0.263 NA
ATOM     10  C   UNL     1       1.411   5.224   1.776  0.00  0.00    +0.111 A 
ATOM     11  C   UNL     1       2.193   4.135   1.439  0.00  0.00    +0.020 A 
ATOM     12  C   UNL     1       1.676   3.172   0.586  0.00  0.00    +0.008 A 
ENDBRANCH   3   7
TORSDOF 1
ENDMDL
MODEL 8
REMARK VINA RESULT:     0.000      4.183      4.952
REMARK INTER + INTRA:          -0.256
REMARK INTER:                   0.000
REMARK INTRA:                  -0.256
REMARK UNBOUND:                -0.256
REMARK  Name = Nicotine.pdb
REMARK  2 active torsions:
REMARK  status: ('A' for Active; 'I' for Inactive)
REMARK    1  A    between atoms: C_3  and  C_6
REMARK    2  A    between atoms: N_4  and  C_12
REMARK                            x       y       z     vdW  Elec       q    Type
REMARK                         _______ _______ _______ _____ _____    ______ ____
ROOT
ATOM      1  C   UNL     1       1.260   2.479   0.134  0.00  0.00    +0.017 C 
ATOM      2  C   UNL     1       1.115   2.922  -1.346  0.00  0.00    +0.025 C 
ATOM      3  C   UNL     1       0.147   1.871  -1.930  0.00  0.00    +0.088 C 
ATOM      4  N   UNL     1       0.223   0.679  -1.066  0.00  0.00    -0.298 NA
ATOM      5  C   UNL     1       1.209   0.936   0.005  0.00  0.00    +0.085 C 
ATOM      6  C   UNL     1      -1.093   0.351  -0.503  0.00  0.00    +0.105 C 
ENDROOT
BRANCH   3   7
ATOM      7  C   UNL     1       0.562   1.516  -3.334  0.00  0.00    -0.012 A 
ATOM      8  C   UNL     1      -0.348   0.960  -4.212  0.00  0.00    +0.115 A 
ATOM      9  N   UNL     1       0.007   0.646  -5.443  0.00  0.00    -0.263 NA
ATOM     10  C   UNL     1       1.233   0.847  -5.883  0.00  0.00    +0.111 A 
ATOM     11  C   UNL     1       2.198   1.399  -5.062  0.00  0.00    +0.020 A 
ATOM     12  C   UNL     1       1.860   1.747  -3.763  0.00  0.00    +0.008 A 
ENDBRANCH   3   7
TORSDOF 1
ENDMDL
MODEL 9
REMARK VINA RESULT:     0.000      5.450      6.953
REMARK INTER + INTRA:          -0.256
REMARK INTER:                   0.000
REMARK INTRA:                  -0.256
REMARK UNBOUND:                -0.256
REMARK  Name = Nicotine.pdb
REMARK  2 active torsions:
REMARK  status: ('A' for Active; 'I' for Inactive)
REMARK    1  A    between atoms: C_3  and  C_6
REMARK    2  A    between atoms: N_4  and  C_12
REMARK                            x       y       z     vdW  Elec       q    Type
REMARK                         _______ _______ _______ _____ _____    ______ ____
ROOT
ATOM      1  C   UNL     1       5.525  -2.906  -1.240  0.00  0.00    +0.017 C 
ATOM      2  C   UNL     1       4.906  -3.164   0.159  0.00  0.00    +0.025 C 
ATOM      3  C   UNL     1       5.929  -2.516   1.116  0.00  0.00    +0.088 C 
ATOM      4  N   UNL     1       7.215  -2.446   0.399  0.00  0.00    -0.298 NA
ATOM      5  C   UNL     1       7.039  -3.042  -0.942  0.00  0.00    +0.085 C 
ATOM      6  C   UNL     1       7.689  -1.060   0.302  0.00  0.00    +0.105 C 
ENDROOT
BRANCH   3   7
ATOM      7  C   UNL     1       6.077  -3.359   2.356  0.00  0.00    -0.012 A 
ATOM      8  C   UNL     1       6.569  -2.806   3.523  0.00  0.00    +0.115 A 
ATOM      9  N   UNL     1       6.701  -3.538   4.613  0.00  0.00    -0.263 NA
ATOM     10  C   UNL     1       6.374  -4.814   4.634  0.00  0.00    +0.111 A 
ATOM     11  C   UNL     1       5.874  -5.436   3.505  0.00  0.00    +0.020 A 
ATOM     12  C   UNL     1       5.716  -4.698   2.342  0.00  0.00    +0.008 A 
ENDBRANCH   3   7
TORSDOF 1
ENDMDL
MODEL 10
REMARK VINA RESULT:     0.000      3.957      6.632
REMARK INTER + INTRA:          -0.256
REMARK INTER:                   0.000
REMARK INTRA:                  -0.256
REMARK UNBOUND:                -0.256
REMARK  Name = Nicotine.pdb
REMARK  2 active torsions:
REMARK  status: ('A' for Active; 'I' for Inactive)
REMARK    1  A    between atoms: C_3  and  C_6
REMARK    2  A    between atoms: N_4  and  C_12
REMARK                            x       y       z     vdW  Elec       q    Type
REMARK                         _______ _______ _______ _____ _____    ______ ____
ROOT
ATOM      1  C   UNL     1      -0.363  -0.796  -1.193  0.00  0.00    +0.017 C 
ATOM      2  C   UNL     1       0.394  -0.630   0.151  0.00  0.00    +0.025 C 
ATOM      3  C   UNL     1      -0.676  -0.998   1.200  0.00  0.00    +0.088 C 
ATOM      4  N   UNL     1      -1.993  -0.807   0.567  0.00  0.00    -0.298 NA
ATOM      5  C   UNL     1      -1.785  -0.315  -0.812  0.00  0.00    +0.085 C 
ATOM      6  C   UNL     1      -2.766  -2.055   0.570  0.00  0.00    +0.105 C 
ENDROOT
BRANCH   3   7
ATOM      7  C   UNL     1      -0.548  -0.097   2.401  0.00  0.00    -0.012 A 
ATOM      8  C   UNL     1      -1.066  -0.483   3.623  0.00  0.00    +0.115 A 
ATOM      9  N   UNL     1      -0.958   0.299   4.679  0.00  0.00    -0.263 NA
ATOM     10  C   UNL     1      -0.357   1.471   4.615  0.00  0.00    +0.111 A 
ATOM     11  C   UNL     1       0.186   1.924   3.427  0.00  0.00    +0.020 A 
ATOM     12  C   UNL     1       0.096   1.126   2.297  0.00  0.00    +0.008 A 
ENDBRANCH   3   7
TORSDOF 1
ENDMDL
