MODEL 1
REMARK VINA RESULT:    -3.368      0.000      0.000
REMARK INTER + INTRA:          -3.816
REMARK INTER:                  -3.564
REMARK INTRA:                  -0.252
REMARK UNBOUND:                -0.252
REMARK  Name = Nicotine.pdb
REMARK  2 active torsions:
REMARK  status: ('A' for Active; 'I' for Inactive)
REMARK    1  A    between atoms: C_3  and  C_6
REMARK    2  A    between atoms: N_4  and  C_12
REMARK                            x       y       z     vdW  Elec       q    Type
REMARK                         _______ _______ _______ _____ _____    ______ ____
ROOT
ATOM      1  C   UNL     1       3.606   6.269  -6.122  0.00  0.00    +0.017 C 
ATOM      2  C   UNL     1       4.047   4.853  -5.665  0.00  0.00    +0.025 C 
ATOM      3  C   UNL     1       5.582   4.901  -5.819  0.00  0.00    +0.088 C 
ATOM      4  N   UNL     1       5.891   5.968  -6.788  0.00  0.00    -0.298 NA
ATOM      5  C   UNL     1       4.620   6.561  -7.256  0.00  0.00    +0.085 C 
ATOM      6  C   UNL     1       6.760   6.989  -6.188  0.00  0.00    +0.105 C 
ENDROOT
BRANCH   3   7
ATOM      7  C   UNL     1       6.088   3.578  -6.333  0.00  0.00    -0.012 A 
ATOM      8  C   UNL     1       7.443   3.307  -6.353  0.00  0.00    +0.115 A 
ATOM      9  N   UNL     1       7.894   2.152  -6.801  0.00  0.00    -0.263 NA
ATOM     10  C   UNL     1       7.079   1.215  -7.245  0.00  0.00    +0.111 A 
ATOM     11  C   UNL     1       5.711   1.414  -7.255  0.00  0.00    +0.020 A 
ATOM     12  C   UNL     1       5.200   2.615  -6.787  0.00  0.00    +0.008 A 
ENDBRANCH   3   7
TORSDOF 1
ENDMDL
MODEL 2
REMARK VINA RESULT:    -3.360      1.281      4.698
REMARK INTER + INTRA:          -3.808
REMARK INTER:                  -3.585
REMARK INTRA:                  -0.223
REMARK UNBOUND:                -0.252
REMARK  Name = Nicotine.pdb
REMARK  2 active torsions:
REMARK  status: ('A' for Active; 'I' for Inactive)
REMARK    1  A    between atoms: C_3  and  C_6
REMARK    2  A    between atoms: N_4  and  C_12
REMARK                            x       y       z     vdW  Elec       q    Type
REMARK                         _______ _______ _______ _____ _____    ______ ____
ROOT
ATOM      1  C   UNL     1       7.696   1.545  -7.256  0.00  0.00    +0.017 C 
ATOM      2  C   UNL     1       7.842   3.063  -6.967  0.00  0.00    +0.025 C 
ATOM      3  C   UNL     1       6.767   3.316  -5.888  0.00  0.00    +0.088 C 
ATOM      4  N   UNL     1       5.770   2.236  -6.003  0.00  0.00    -0.298 NA
ATOM      5  C   UNL     1       6.166   1.346  -7.116  0.00  0.00    +0.085 C 
ATOM      6  C   UNL     1       5.656   1.488  -4.745  0.00  0.00    +0.105 C 
ENDROOT
BRANCH   3   7
ATOM      7  C   UNL     1       6.109   4.650  -6.124  0.00  0.00    -0.012 A 
ATOM      8  C   UNL     1       4.744   4.730  -6.326  0.00  0.00    +0.115 A 
ATOM      9  N   UNL     1       4.159   5.895  -6.533  0.00  0.00    -0.263 NA
ATOM     10  C   UNL     1       4.846   7.020  -6.556  0.00  0.00    +0.111 A 
ATOM     11  C   UNL     1       6.214   7.018  -6.361  0.00  0.00    +0.020 A 
ATOM     12  C   UNL     1       6.863   5.814  -6.135  0.00  0.00    +0.008 A 
ENDBRANCH   3   7
TORSDOF 1
ENDMDL
MODEL 3
REMARK VINA RESULT:    -2.587     11.990     12.639
REMARK INTER + INTRA:          -2.991
REMARK INTER:                  -2.740
REMARK INTRA:                  -0.251
REMARK UNBOUND:                -0.252
REMARK  Name = Nicotine.pdb
REMARK  2 active torsions:
REMARK  status: ('A' for Active; 'I' for Inactive)
REMARK    1  A    between atoms: C_3  and  C_6
REMARK    2  A    between atoms: N_4  and  C_12
REMARK                            x       y       z     vdW  Elec       q    Type
REMARK                         _______ _______ _______ _____ _____    ______ ____
ROOT
ATOM      1  C   UNL     1       5.348   0.883   5.819  0.00  0.00    +0.017 C 
ATOM      2  C   UNL     1       6.836   1.059   6.219  0.00  0.00    +0.025 C 
ATOM      3  C   UNL     1       7.011   2.592   6.239  0.00  0.00    +0.088 C 
ATOM      4  N   UNL     1       5.952   3.164   5.388  0.00  0.00    -0.298 NA
ATOM      5  C   UNL     1       5.150   2.056   4.827  0.00  0.00    +0.085 C 
ATOM      6  C   UNL     1       5.107   4.092   6.151  0.00  0.00    +0.105 C 
ENDROOT
BRANCH   3   7
ATOM      7  C   UNL     1       8.365   2.961   5.690  0.00  0.00    -0.012 A 
ATOM      8  C   UNL     1       9.083   4.004   6.243  0.00  0.00    +0.115 A 
ATOM      9  N   UNL     1      10.269   4.333   5.769  0.00  0.00    -0.263 NA
ATOM     10  C   UNL     1      10.815   3.687   4.757  0.00  0.00    +0.111 A 
ATOM     11  C   UNL     1      10.156   2.632   4.153  0.00  0.00    +0.020 A 
ATOM     12  C   UNL     1       8.909   2.254   4.628  0.00  0.00    +0.008 A 
ENDBRANCH   3   7
TORSDOF 1
ENDMDL
MODEL 4
REMARK VINA RESULT:    -2.556     12.151     12.963
REMARK INTER + INTRA:          -2.958
REMARK INTER:                  -2.749
REMARK INTRA:                  -0.209
REMARK UNBOUND:                -0.252
REMARK  Name = Nicotine.pdb
REMARK  2 active torsions:
REMARK  status: ('A' for Active; 'I' for Inactive)
REMARK    1  A    between atoms: C_3  and  C_6
REMARK    2  A    between atoms: N_4  and  C_12
REMARK                            x       y       z     vdW  Elec       q    Type
REMARK                         _______ _______ _______ _____ _____    ______ ____
ROOT
ATOM      1  C   UNL     1      10.800   4.840   5.577  0.00  0.00    +0.017 C 
ATOM      2  C   UNL     1       9.385   4.723   6.201  0.00  0.00    +0.025 C 
ATOM      3  C   UNL     1       9.149   3.198   6.244  0.00  0.00    +0.088 C 
ATOM      4  N   UNL     1      10.040   2.590   5.239  0.00  0.00    -0.298 NA
ATOM      5  C   UNL     1      10.793   3.668   4.564  0.00  0.00    +0.085 C 
ATOM      6  C   UNL     1      10.951   1.620   5.861  0.00  0.00    +0.105 C 
ENDROOT
BRANCH   3   7
ATOM      7  C   UNL     1       7.712   2.892   5.909  0.00  0.00    -0.012 A 
ATOM      8  C   UNL     1       6.859   3.900   5.503  0.00  0.00    +0.115 A 
ATOM      9  N   UNL     1       5.599   3.641   5.209  0.00  0.00    -0.263 NA
ATOM     10  C   UNL     1       5.106   2.421   5.288  0.00  0.00    +0.111 A 
ATOM     11  C   UNL     1       5.900   1.361   5.686  0.00  0.00    +0.020 A 
ATOM     12  C   UNL     1       7.231   1.595   5.999  0.00  0.00    +0.008 A 
ENDBRANCH   3   7
TORSDOF 1
ENDMDL
MODEL 5
REMARK VINA RESULT:    -1.951     11.996     12.857
REMARK INTER + INTRA:          -2.317
REMARK INTER:                  -2.122
REMARK INTRA:                  -0.195
REMARK UNBOUND:                -0.252
REMARK  Name = Nicotine.pdb
REMARK  2 active torsions:
REMARK  status: ('A' for Active; 'I' for Inactive)
REMARK    1  A    between atoms: C_3  and  C_6
REMARK    2  A    between atoms: N_4  and  C_12
REMARK                            x       y       z     vdW  Elec       q    Type
REMARK                         _______ _______ _______ _____ _____    ______ ____
ROOT
ATOM      1  C   UNL     1       3.553   1.588   6.084  0.00  0.00    +0.017 C 
ATOM      2  C   UNL     1       4.326   2.913   5.852  0.00  0.00    +0.025 C 
ATOM      3  C   UNL     1       5.549   2.461   5.026  0.00  0.00    +0.088 C 
ATOM      4  N   UNL     1       5.742   1.023   5.282  0.00  0.00    -0.298 NA
ATOM      5  C   UNL     1       4.713   0.573   6.244  0.00  0.00    +0.085 C 
ATOM      6  C   UNL     1       5.670   0.251   4.034  0.00  0.00    +0.105 C 
ENDROOT
BRANCH   3   7
ATOM      7  C   UNL     1       6.771   3.229   5.459  0.00  0.00    -0.012 A 
ATOM      8  C   UNL     1       6.690   4.583   5.721  0.00  0.00    +0.115 A 
ATOM      9  N   UNL     1       7.755   5.262   6.101  0.00  0.00    -0.263 NA
ATOM     10  C   UNL     1       8.931   4.684   6.244  0.00  0.00    +0.111 A 
ATOM     11  C   UNL     1       9.089   3.332   6.000  0.00  0.00    +0.020 A 
ATOM     12  C   UNL     1       7.991   2.585   5.605  0.00  0.00    +0.008 A 
ENDBRANCH   3   7
TORSDOF 1
ENDMDL
MODEL 6
REMARK VINA RESULT:    -0.947     12.095     13.054
REMARK INTER + INTRA:          -1.255
REMARK INTER:                  -1.039
REMARK INTRA:                  -0.216
REMARK UNBOUND:                -0.252
REMARK  Name = Nicotine.pdb
REMARK  2 active torsions:
REMARK  status: ('A' for Active; 'I' for Inactive)
REMARK    1  A    between atoms: C_3  and  C_6
REMARK    2  A    between atoms: N_4  and  C_12
REMARK                            x       y       z     vdW  Elec       q    Type
REMARK                         _______ _______ _______ _____ _____    ______ ____
ROOT
ATOM      1  C   UNL     1       5.942  -0.489   4.963  0.00  0.00    +0.017 C 
ATOM      2  C   UNL     1       6.905   0.516   5.649  0.00  0.00    +0.025 C 
ATOM      3  C   UNL     1       5.950   1.605   6.181  0.00  0.00    +0.088 C 
ATOM      4  N   UNL     1       4.712   1.527   5.385  0.00  0.00    -0.298 NA
ATOM      5  C   UNL     1       4.869   0.460   4.373  0.00  0.00    +0.085 C 
ATOM      6  C   UNL     1       3.548   1.271   6.244  0.00  0.00    +0.105 C 
ENDROOT
BRANCH   3   7
ATOM      7  C   UNL     1       6.580   2.964   6.019  0.00  0.00    -0.012 A 
ATOM      8  C   UNL     1       5.812   4.052   5.651  0.00  0.00    +0.115 A 
ATOM      9  N   UNL     1       6.356   5.244   5.507  0.00  0.00    -0.263 NA
ATOM     10  C   UNL     1       7.643   5.447   5.705  0.00  0.00    +0.111 A 
ATOM     11  C   UNL     1       8.475   4.407   6.075  0.00  0.00    +0.020 A 
ATOM     12  C   UNL     1       7.938   3.140   6.241  0.00  0.00    +0.008 A 
ENDBRANCH   3   7
TORSDOF 1
ENDMDL
