MODEL 1
REMARK VINA RESULT:    -5.055      0.000      0.000
REMARK INTER + INTRA:          -5.561
REMARK INTER:                  -5.351
REMARK INTRA:                  -0.210
REMARK UNBOUND:                -0.210
REMARK  Name = Nicotine.pdb
REMARK  2 active torsions:
REMARK  status: ('A' for Active; 'I' for Inactive)
REMARK    1  A    between atoms: C_3  and  C_6
REMARK    2  A    between atoms: N_4  and  C_12
REMARK                            x       y       z     vdW  Elec       q    Type
REMARK                         _______ _______ _______ _____ _____    ______ ____
ROOT
ATOM      1  C   UNL     1       3.552   0.274   1.390  0.00  0.00    +0.017 C 
ATOM      2  C   UNL     1       2.429   0.436   0.332  0.00  0.00    +0.025 C 
ATOM      3  C   UNL     1       2.691   1.845  -0.239  0.00  0.00    +0.088 C 
ATOM      4  N   UNL     1       3.464   2.590   0.771  0.00  0.00    -0.298 NA
ATOM      5  C   UNL     1       3.668   1.715   1.946  0.00  0.00    +0.085 C 
ATOM      6  C   UNL     1       4.748   3.044   0.223  0.00  0.00    +0.105 C 
ENDROOT
BRANCH   3   7
ATOM      7  C   UNL     1       1.381   2.543  -0.501  0.00  0.00    -0.012 A 
ATOM      8  C   UNL     1       0.990   3.612   0.283  0.00  0.00    +0.115 A 
ATOM      9  N   UNL     1      -0.155   4.229   0.060  0.00  0.00    -0.263 NA
ATOM     10  C   UNL     1      -0.966   3.855  -0.910  0.00  0.00    +0.111 A 
ATOM     11  C   UNL     1      -0.641   2.795  -1.735  0.00  0.00    +0.020 A 
ATOM     12  C   UNL     1       0.557   2.126  -1.534  0.00  0.00    +0.008 A 
ENDBRANCH   3   7
TORSDOF 1
ENDMDL
MODEL 2
REMARK VINA RESULT:    -4.902      0.951      1.946
REMARK INTER + INTRA:          -5.399
REMARK INTER:                  -5.194
REMARK INTRA:                  -0.205
REMARK UNBOUND:                -0.210
REMARK  Name = Nicotine.pdb
REMARK  2 active torsions:
REMARK  status: ('A' for Active; 'I' for Inactive)
REMARK    1  A    between atoms: C_3  and  C_6
REMARK    2  A    between atoms: N_4  and  C_12
REMARK                            x       y       z     vdW  Elec       q    Type
REMARK                         _______ _______ _______ _____ _____    ______ ____
ROOT
ATOM      1  C   UNL     1       5.326   2.481  -0.054  0.00  0.00    +0.017 C 
ATOM      2  C   UNL     1       4.116   3.442   0.079  0.00  0.00    +0.025 C 
ATOM      3  C   UNL     1       3.002   2.524   0.626  0.00  0.00    +0.088 C 
ATOM      4  N   UNL     1       3.365   1.139   0.274  0.00  0.00    -0.298 NA
ATOM      5  C   UNL     1       4.634   1.163  -0.485  0.00  0.00    +0.085 C 
ATOM      6  C   UNL     1       3.485   0.304   1.476  0.00  0.00    +0.105 C 
ENDROOT
BRANCH   3   7
ATOM      7  C   UNL     1       1.683   2.886  -0.005  0.00  0.00    -0.012 A 
ATOM      8  C   UNL     1       0.987   4.001   0.421  0.00  0.00    +0.115 A 
ATOM      9  N   UNL     1      -0.168   4.326  -0.126  0.00  0.00    -0.263 NA
ATOM     10  C   UNL     1      -0.703   3.607  -1.093  0.00  0.00    +0.111 A 
ATOM     11  C   UNL     1      -0.065   2.478  -1.572  0.00  0.00    +0.020 A 
ATOM     12  C   UNL     1       1.154   2.109  -1.024  0.00  0.00    +0.008 A 
ENDBRANCH   3   7
TORSDOF 1
ENDMDL
MODEL 3
REMARK VINA RESULT:    -4.693      1.245      4.444
REMARK INTER + INTRA:          -5.178
REMARK INTER:                  -4.955
REMARK INTRA:                  -0.223
REMARK UNBOUND:                -0.210
REMARK  Name = Nicotine.pdb
REMARK  2 active torsions:
REMARK  status: ('A' for Active; 'I' for Inactive)
REMARK    1  A    between atoms: C_3  and  C_6
REMARK    2  A    between atoms: N_4  and  C_12
REMARK                            x       y       z     vdW  Elec       q    Type
REMARK                         _______ _______ _______ _____ _____    ______ ____
ROOT
ATOM      1  C   UNL     1       0.097   2.217  -1.689  0.00  0.00    +0.017 C 
ATOM      2  C   UNL     1       1.067   1.304  -0.893  0.00  0.00    +0.025 C 
ATOM      3  C   UNL     1       1.547   2.221   0.252  0.00  0.00    +0.088 C 
ATOM      4  N   UNL     1       1.345   3.612  -0.190  0.00  0.00    -0.298 NA
ATOM      5  C   UNL     1       0.790   3.596  -1.560  0.00  0.00    +0.085 C 
ATOM      6  C   UNL     1       0.457   4.334   0.731  0.00  0.00    +0.105 C 
ENDROOT
BRANCH   3   7
ATOM      7  C   UNL     1       3.007   1.975   0.528  0.00  0.00    -0.012 A 
ATOM      8  C   UNL     1       3.903   3.027   0.540  0.00  0.00    +0.115 A 
ATOM      9  N   UNL     1       5.183   2.821   0.781  0.00  0.00    -0.263 NA
ATOM     10  C   UNL     1       5.658   1.614   1.018  0.00  0.00    +0.111 A 
ATOM     11  C   UNL     1       4.822   0.513   1.023  0.00  0.00    +0.020 A 
ATOM     12  C   UNL     1       3.469   0.692   0.779  0.00  0.00    +0.008 A 
ENDBRANCH   3   7
TORSDOF 1
ENDMDL
MODEL 4
REMARK VINA RESULT:    -4.685      2.098      3.677
REMARK INTER + INTRA:          -5.169
REMARK INTER:                  -4.956
REMARK INTRA:                  -0.214
REMARK UNBOUND:                -0.210
REMARK  Name = Nicotine.pdb
REMARK  2 active torsions:
REMARK  status: ('A' for Active; 'I' for Inactive)
REMARK    1  A    between atoms: C_3  and  C_6
REMARK    2  A    between atoms: N_4  and  C_12
REMARK                            x       y       z     vdW  Elec       q    Type
REMARK                         _______ _______ _______ _____ _____    ______ ____
ROOT
ATOM      1  C   UNL     1       0.927   1.712  -1.216  0.00  0.00    +0.017 C 
ATOM      2  C   UNL     1      -0.298   2.514  -1.729  0.00  0.00    +0.025 C 
ATOM      3  C   UNL     1      -0.075   3.915  -1.121  0.00  0.00    +0.088 C 
ATOM      4  N   UNL     1       0.812   3.750   0.045  0.00  0.00    -0.298 NA
ATOM      5  C   UNL     1       1.124   2.313   0.198  0.00  0.00    +0.085 C 
ATOM      6  C   UNL     1       2.039   4.542  -0.110  0.00  0.00    +0.105 C 
ENDROOT
BRANCH   3   7
ATOM      7  C   UNL     1      -1.393   4.501  -0.685  0.00  0.00    -0.012 A 
ATOM      8  C   UNL     1      -2.381   4.768  -1.614  0.00  0.00    +0.115 A 
ATOM      9  N   UNL     1      -3.537   5.280  -1.241  0.00  0.00    -0.263 NA
ATOM     10  C   UNL     1      -3.797   5.558   0.022  0.00  0.00    +0.111 A 
ATOM     11  C   UNL     1      -2.858   5.318   1.007  0.00  0.00    +0.020 A 
ATOM     12  C   UNL     1      -1.632   4.775   0.653  0.00  0.00    +0.008 A 
ENDBRANCH   3   7
TORSDOF 1
ENDMDL
MODEL 5
REMARK VINA RESULT:    -4.582      1.404      4.483
REMARK INTER + INTRA:          -5.061
REMARK INTER:                  -4.847
REMARK INTRA:                  -0.213
REMARK UNBOUND:                -0.210
REMARK  Name = Nicotine.pdb
REMARK  2 active torsions:
REMARK  status: ('A' for Active; 'I' for Inactive)
REMARK    1  A    between atoms: C_3  and  C_6
REMARK    2  A    between atoms: N_4  and  C_12
REMARK                            x       y       z     vdW  Elec       q    Type
REMARK                         _______ _______ _______ _____ _____    ______ ____
ROOT
ATOM      1  C   UNL     1      -0.409   3.352  -1.252  0.00  0.00    +0.017 C 
ATOM      2  C   UNL     1       0.503   2.154  -0.876  0.00  0.00    +0.025 C 
ATOM      3  C   UNL     1       1.476   2.768   0.153  0.00  0.00    +0.088 C 
ATOM      4  N   UNL     1       1.489   4.224  -0.073  0.00  0.00    -0.298 NA
ATOM      5  C   UNL     1       0.592   4.533  -1.207  0.00  0.00    +0.085 C 
ATOM      6  C   UNL     1       1.079   4.949   1.136  0.00  0.00    +0.105 C 
ENDROOT
BRANCH   3   7
ATOM      7  C   UNL     1       2.858   2.203  -0.048  0.00  0.00    -0.012 A 
ATOM      8  C   UNL     1       3.079   0.843   0.050  0.00  0.00    +0.115 A 
ATOM      9  N   UNL     1       4.285   0.340  -0.125  0.00  0.00    -0.263 NA
ATOM     10  C   UNL     1       5.322   1.107  -0.398  0.00  0.00    +0.111 A 
ATOM     11  C   UNL     1       5.179   2.478  -0.512  0.00  0.00    +0.020 A 
ATOM     12  C   UNL     1       3.924   3.041  -0.340  0.00  0.00    +0.008 A 
ENDBRANCH   3   7
TORSDOF 1
ENDMDL
MODEL 6
REMARK VINA RESULT:    -4.570      1.351      4.474
REMARK INTER + INTRA:          -5.047
REMARK INTER:                  -4.832
REMARK INTRA:                  -0.215
REMARK UNBOUND:                -0.210
REMARK  Name = Nicotine.pdb
REMARK  2 active torsions:
REMARK  status: ('A' for Active; 'I' for Inactive)
REMARK    1  A    between atoms: C_3  and  C_6
REMARK    2  A    between atoms: N_4  and  C_12
REMARK                            x       y       z     vdW  Elec       q    Type
REMARK                         _______ _______ _______ _____ _____    ______ ____
ROOT
ATOM      1  C   UNL     1       1.297   5.355  -1.200  0.00  0.00    +0.017 C 
ATOM      2  C   UNL     1       2.566   4.535  -0.847  0.00  0.00    +0.025 C 
ATOM      3  C   UNL     1       2.044   3.082  -0.822  0.00  0.00    +0.088 C 
ATOM      4  N   UNL     1       0.589   3.145  -0.595  0.00  0.00    -0.298 NA
ATOM      5  C   UNL     1       0.195   4.562  -0.455  0.00  0.00    +0.085 C 
ATOM      6  C   UNL     1      -0.143   2.500  -1.693  0.00  0.00    +0.105 C 
ENDROOT
BRANCH   3   7
ATOM      7  C   UNL     1       2.706   2.319   0.296  0.00  0.00    -0.012 A 
ATOM      8  C   UNL     1       3.193   2.985   1.405  0.00  0.00    +0.115 A 
ATOM      9  N   UNL     1       3.773   2.324   2.388  0.00  0.00    -0.263 NA
ATOM     10  C   UNL     1       3.913   1.014   2.354  0.00  0.00    +0.111 A 
ATOM     11  C   UNL     1       3.450   0.280   1.278  0.00  0.00    +0.020 A 
ATOM     12  C   UNL     1       2.830   0.940   0.228  0.00  0.00    +0.008 A 
ENDBRANCH   3   7
TORSDOF 1
ENDMDL
MODEL 7
REMARK VINA RESULT:    -4.450      2.394      5.575
REMARK INTER + INTRA:          -4.921
REMARK INTER:                  -4.720
REMARK INTRA:                  -0.200
REMARK UNBOUND:                -0.210
REMARK  Name = Nicotine.pdb
REMARK  2 active torsions:
REMARK  status: ('A' for Active; 'I' for Inactive)
REMARK    1  A    between atoms: C_3  and  C_6
REMARK    2  A    between atoms: N_4  and  C_12
REMARK                            x       y       z     vdW  Elec       q    Type
REMARK                         _______ _______ _______ _____ _____    ______ ____
ROOT
ATOM      1  C   UNL     1      -3.001   6.325  -2.017  0.00  0.00    +0.017 C 
ATOM      2  C   UNL     1      -2.722   4.822  -1.751  0.00  0.00    +0.025 C 
ATOM      3  C   UNL     1      -1.806   4.854  -0.508  0.00  0.00    +0.088 C 
ATOM      4  N   UNL     1      -1.181   6.188  -0.460  0.00  0.00    -0.298 NA
ATOM      5  C   UNL     1      -1.647   6.969  -1.626  0.00  0.00    +0.085 C 
ATOM      6  C   UNL     1      -1.501   6.875   0.797  0.00  0.00    +0.105 C 
ENDROOT
BRANCH   3   7
ATOM      7  C   UNL     1      -0.744   3.792  -0.627  0.00  0.00    -0.012 A 
ATOM      8  C   UNL     1      -0.726   2.939  -1.715  0.00  0.00    +0.115 A 
ATOM      9  N   UNL     1       0.200   2.007  -1.826  0.00  0.00    -0.263 NA
ATOM     10  C   UNL     1       1.139   1.851  -0.915  0.00  0.00    +0.111 A 
ATOM     11  C   UNL     1       1.186   2.667   0.200  0.00  0.00    +0.020 A 
ATOM     12  C   UNL     1       0.232   3.662   0.349  0.00  0.00    +0.008 A 
ENDBRANCH   3   7
TORSDOF 1
ENDMDL
MODEL 8
REMARK VINA RESULT:    -4.409      2.080      5.141
REMARK INTER + INTRA:          -4.877
REMARK INTER:                  -4.677
REMARK INTRA:                  -0.200
REMARK UNBOUND:                -0.210
REMARK  Name = Nicotine.pdb
REMARK  2 active torsions:
REMARK  status: ('A' for Active; 'I' for Inactive)
REMARK    1  A    between atoms: C_3  and  C_6
REMARK    2  A    between atoms: N_4  and  C_12
REMARK                            x       y       z     vdW  Elec       q    Type
REMARK                         _______ _______ _______ _____ _____    ______ ____
ROOT
ATOM      1  C   UNL     1      -3.179   5.462   0.644  0.00  0.00    +0.017 C 
ATOM      2  C   UNL     1      -1.911   4.698   1.109  0.00  0.00    +0.025 C 
ATOM      3  C   UNL     1      -0.890   5.009  -0.006  0.00  0.00    +0.088 C 
ATOM      4  N   UNL     1      -1.656   5.385  -1.208  0.00  0.00    -0.298 NA
ATOM      5  C   UNL     1      -3.098   5.295  -0.894  0.00  0.00    +0.085 C 
ATOM      6  C   UNL     1      -1.298   6.735  -1.661  0.00  0.00    +0.105 C 
ENDROOT
BRANCH   3   7
ATOM      7  C   UNL     1      -0.054   3.788  -0.291  0.00  0.00    -0.012 A 
ATOM      8  C   UNL     1       1.041   3.491   0.499  0.00  0.00    +0.115 A 
ATOM      9  N   UNL     1       1.778   2.424   0.257  0.00  0.00    -0.263 NA
ATOM     10  C   UNL     1       1.505   1.605  -0.739  0.00  0.00    +0.111 A 
ATOM     11  C   UNL     1       0.426   1.837  -1.571  0.00  0.00    +0.020 A 
ATOM     12  C   UNL     1      -0.375   2.946  -1.344  0.00  0.00    +0.008 A 
ENDBRANCH   3   7
TORSDOF 1
ENDMDL
MODEL 9
REMARK VINA RESULT:    -4.323      2.016      5.175
REMARK INTER + INTRA:          -4.786
REMARK INTER:                  -4.563
REMARK INTRA:                  -0.223
REMARK UNBOUND:                -0.210
REMARK  Name = Nicotine.pdb
REMARK  2 active torsions:
REMARK  status: ('A' for Active; 'I' for Inactive)
REMARK    1  A    between atoms: C_3  and  C_6
REMARK    2  A    between atoms: N_4  and  C_12
REMARK                            x       y       z     vdW  Elec       q    Type
REMARK                         _______ _______ _______ _____ _____    ______ ____
ROOT
ATOM      1  C   UNL     1       2.969   4.023  -0.869  0.00  0.00    +0.017 C 
ATOM      2  C   UNL     1       4.257   3.232  -0.516  0.00  0.00    +0.025 C 
ATOM      3  C   UNL     1       3.711   1.853  -0.090  0.00  0.00    +0.088 C 
ATOM      4  N   UNL     1       2.307   2.044   0.314  0.00  0.00    -0.298 NA
ATOM      5  C   UNL     1       1.970   3.477   0.181  0.00  0.00    +0.085 C 
ATOM      6  C   UNL     1       1.407   1.214  -0.497  0.00  0.00    +0.105 C 
ENDROOT
BRANCH   3   7
ATOM      7  C   UNL     1       4.512   1.321   1.070  0.00  0.00    -0.012 A 
ATOM      8  C   UNL     1       3.878   0.912   2.228  0.00  0.00    +0.115 A 
ATOM      9  N   UNL     1       4.572   0.445   3.248  0.00  0.00    -0.263 NA
ATOM     10  C   UNL     1       5.886   0.350   3.207  0.00  0.00    +0.111 A 
ATOM     11  C   UNL     1       6.589   0.739   2.082  0.00  0.00    +0.020 A 
ATOM     12  C   UNL     1       5.893   1.230   0.988  0.00  0.00    +0.008 A 
ENDBRANCH   3   7
TORSDOF 1
ENDMDL
MODEL 10
REMARK VINA RESULT:    -4.182      2.210      3.201
REMARK INTER + INTRA:          -4.637
REMARK INTER:                  -4.435
REMARK INTRA:                  -0.202
REMARK UNBOUND:                -0.210
REMARK  Name = Nicotine.pdb
REMARK  2 active torsions:
REMARK  status: ('A' for Active; 'I' for Inactive)
REMARK    1  A    between atoms: C_3  and  C_6
REMARK    2  A    between atoms: N_4  and  C_12
REMARK                            x       y       z     vdW  Elec       q    Type
REMARK                         _______ _______ _______ _____ _____    ______ ____
ROOT
ATOM      1  C   UNL     1       5.040   0.784  -0.344  0.00  0.00    +0.017 C 
ATOM      2  C   UNL     1       5.090   2.319  -0.563  0.00  0.00    +0.025 C 
ATOM      3  C   UNL     1       4.384   2.872   0.693  0.00  0.00    +0.088 C 
ATOM      4  N   UNL     1       3.535   1.793   1.228  0.00  0.00    -0.298 NA
ATOM      5  C   UNL     1       3.665   0.611   0.348  0.00  0.00    +0.085 C 
ATOM      6  C   UNL     1       3.908   1.464   2.609  0.00  0.00    +0.105 C 
ENDROOT
BRANCH   3   7
ATOM      7  C   UNL     1       3.533   4.059   0.322  0.00  0.00    -0.012 A 
ATOM      8  C   UNL     1       2.725   4.017  -0.799  0.00  0.00    +0.115 A 
ATOM      9  N   UNL     1       1.977   5.051  -1.130  0.00  0.00    -0.263 NA
ATOM     10  C   UNL     1       1.969   6.159  -0.415  0.00  0.00    +0.111 A 
ATOM     11  C   UNL     1       2.752   6.274   0.719  0.00  0.00    +0.020 A 
ATOM     12  C   UNL     1       3.547   5.205   1.102  0.00  0.00    +0.008 A 
ENDBRANCH   3   7
TORSDOF 1
ENDMDL
