MODEL 1
REMARK VINA RESULT:    -1.157      0.000      0.000
REMARK INTER + INTRA:          -1.415
REMARK INTER:                  -1.224
REMARK INTRA:                  -0.191
REMARK UNBOUND:                -0.191
REMARK  Name = Nicotine.pdb
REMARK  2 active torsions:
REMARK  status: ('A' for Active; 'I' for Inactive)
REMARK    1  A    between atoms: C_3  and  C_6
REMARK    2  A    between atoms: N_4  and  C_12
REMARK                            x       y       z     vdW  Elec       q    Type
REMARK                         _______ _______ _______ _____ _____    ______ ____
ROOT
ATOM      1  C   UNL     1       3.184  -3.567   0.624  0.00  0.00    +0.017 C 
ATOM      2  C   UNL     1       4.569  -4.242   0.445  0.00  0.00    +0.025 C 
ATOM      3  C   UNL     1       4.515  -5.416   1.446  0.00  0.00    +0.088 C 
ATOM      4  N   UNL     1       3.497  -5.080   2.458  0.00  0.00    -0.298 NA
ATOM      5  C   UNL     1       2.941  -3.747   2.143  0.00  0.00    +0.085 C 
ATOM      6  C   UNL     1       2.438  -6.097   2.497  0.00  0.00    +0.105 C 
ENDROOT
BRANCH   3   7
ATOM      7  C   UNL     1       5.858  -5.590   2.106  0.00  0.00    -0.012 A 
ATOM      8  C   UNL     1       7.021  -5.394   1.386  0.00  0.00    +0.115 A 
ATOM      9  N   UNL     1       8.201  -5.544   1.955  0.00  0.00    -0.263 NA
ATOM     10  C   UNL     1       8.320  -5.885   3.224  0.00  0.00    +0.111 A 
ATOM     11  C   UNL     1       7.201  -6.097   4.007  0.00  0.00    +0.020 A 
ATOM     12  C   UNL     1       5.943  -5.943   3.444  0.00  0.00    +0.008 A 
ENDBRANCH   3   7
TORSDOF 1
ENDMDL
