MODEL 1
REMARK VINA RESULT:     2.918      0.000      0.000
REMARK INTER + INTRA:           2.869
REMARK INTER:                   3.089
REMARK INTRA:                  -0.220
REMARK UNBOUND:                -0.220
REMARK  Name = Nicotine.pdb
REMARK  2 active torsions:
REMARK  status: ('A' for Active; 'I' for Inactive)
REMARK    1  A    between atoms: C_3  and  C_6
REMARK    2  A    between atoms: N_4  and  C_12
REMARK                            x       y       z     vdW  Elec       q    Type
REMARK                         _______ _______ _______ _____ _____    ______ ____
ROOT
ATOM      1  C   UNL     1      -2.816   5.890  -7.256  0.00  0.00    +0.017 C 
ATOM      2  C   UNL     1      -2.020   4.581  -7.010  0.00  0.00    +0.025 C 
ATOM      3  C   UNL     1      -1.059   4.969  -5.866  0.00  0.00    +0.088 C 
ATOM      4  N   UNL     1      -0.921   6.437  -5.890  0.00  0.00    -0.298 NA
ATOM      5  C   UNL     1      -1.731   6.967  -7.008  0.00  0.00    +0.085 C 
ATOM      6  C   UNL     1      -1.338   7.026  -4.611  0.00  0.00    +0.105 C 
ENDROOT
BRANCH   3   7
ATOM      7  C   UNL     1       0.285   4.323  -6.085  0.00  0.00    -0.012 A 
ATOM      8  C   UNL     1       1.394   4.766  -5.390  0.00  0.00    +0.115 A 
ATOM      9  N   UNL     1       2.574   4.206  -5.575  0.00  0.00    -0.263 NA
ATOM     10  C   UNL     1       2.743   3.211  -6.423  0.00  0.00    +0.111 A 
ATOM     11  C   UNL     1       1.679   2.714  -7.153  0.00  0.00    +0.020 A 
ATOM     12  C   UNL     1       0.423   3.274  -6.981  0.00  0.00    +0.008 A 
ENDBRANCH   3   7
TORSDOF 1
ENDMDL
MODEL 2
REMARK VINA RESULT:     3.599      0.780      1.369
REMARK INTER + INTRA:           3.589
REMARK INTER:                   3.777
REMARK INTRA:                  -0.188
REMARK UNBOUND:                -0.220
REMARK  Name = Nicotine.pdb
REMARK  2 active torsions:
REMARK  status: ('A' for Active; 'I' for Inactive)
REMARK    1  A    between atoms: C_3  and  C_6
REMARK    2  A    between atoms: N_4  and  C_12
REMARK                            x       y       z     vdW  Elec       q    Type
REMARK                         _______ _______ _______ _____ _____    ______ ____
ROOT
ATOM      1  C   UNL     1      -2.863   5.920  -7.256  0.00  0.00    +0.017 C 
ATOM      2  C   UNL     1      -2.057   4.615  -7.022  0.00  0.00    +0.025 C 
ATOM      3  C   UNL     1      -1.122   4.989  -5.853  0.00  0.00    +0.088 C 
ATOM      4  N   UNL     1      -1.001   6.458  -5.844  0.00  0.00    -0.298 NA
ATOM      5  C   UNL     1      -1.795   7.004  -6.965  0.00  0.00    +0.085 C 
ATOM      6  C   UNL     1      -1.448   7.016  -4.561  0.00  0.00    +0.105 C 
ENDROOT
BRANCH   3   7
ATOM      7  C   UNL     1       0.233   4.363  -6.060  0.00  0.00    -0.012 A 
ATOM      8  C   UNL     1       0.398   3.341  -6.976  0.00  0.00    +0.115 A 
ATOM      9  N   UNL     1       1.581   2.788  -7.163  0.00  0.00    -0.263 NA
ATOM     10  C   UNL     1       2.644   3.181  -6.490  0.00  0.00    +0.111 A 
ATOM     11  C   UNL     1       2.556   4.198  -5.558  0.00  0.00    +0.020 A 
ATOM     12  C   UNL     1       1.330   4.807  -5.338  0.00  0.00    +0.008 A 
ENDBRANCH   3   7
TORSDOF 1
ENDMDL
