MODEL 1
REMARK VINA RESULT:    -3.876      0.000      0.000
REMARK INTER + INTRA:          -4.305
REMARK INTER:                  -4.102
REMARK INTRA:                  -0.202
REMARK UNBOUND:                -0.202
REMARK  Name = Nicotine.pdb
REMARK  2 active torsions:
REMARK  status: ('A' for Active; 'I' for Inactive)
REMARK    1  A    between atoms: C_3  and  C_6
REMARK    2  A    between atoms: N_4  and  C_12
REMARK                            x       y       z     vdW  Elec       q    Type
REMARK                         _______ _______ _______ _____ _____    ______ ____
ROOT
ATOM      1  C   UNL     1       1.485  -2.479  -0.992  0.00  0.00    +0.017 C 
ATOM      2  C   UNL     1       2.429  -2.056  -2.149  0.00  0.00    +0.025 C 
ATOM      3  C   UNL     1       3.825  -2.101  -1.492  0.00  0.00    +0.088 C 
ATOM      4  N   UNL     1       3.627  -1.976  -0.037  0.00  0.00    -0.298 NA
ATOM      5  C   UNL     1       2.181  -1.831   0.231  0.00  0.00    +0.085 C 
ATOM      6  C   UNL     1       4.181  -3.137   0.672  0.00  0.00    +0.105 C 
ENDROOT
BRANCH   3   7
ATOM      7  C   UNL     1       4.666  -0.957  -1.997  0.00  0.00    -0.012 A 
ATOM      8  C   UNL     1       4.132   0.314  -2.093  0.00  0.00    +0.115 A 
ATOM      9  N   UNL     1       4.861   1.320  -2.534  0.00  0.00    -0.263 NA
ATOM     10  C   UNL     1       6.118   1.159  -2.898  0.00  0.00    +0.111 A 
ATOM     11  C   UNL     1       6.720  -0.084  -2.829  0.00  0.00    +0.020 A 
ATOM     12  C   UNL     1       5.986  -1.165  -2.365  0.00  0.00    +0.008 A 
ENDBRANCH   3   7
TORSDOF 1
ENDMDL
MODEL 2
REMARK VINA RESULT:    -3.186      1.867      3.260
REMARK INTER + INTRA:          -3.574
REMARK INTER:                  -3.362
REMARK INTRA:                  -0.212
REMARK UNBOUND:                -0.202
REMARK  Name = Nicotine.pdb
REMARK  2 active torsions:
REMARK  status: ('A' for Active; 'I' for Inactive)
REMARK    1  A    between atoms: C_3  and  C_6
REMARK    2  A    between atoms: N_4  and  C_12
REMARK                            x       y       z     vdW  Elec       q    Type
REMARK                         _______ _______ _______ _____ _____    ______ ____
ROOT
ATOM      1  C   UNL     1       3.452  -5.147   1.096  0.00  0.00    +0.017 C 
ATOM      2  C   UNL     1       3.979  -3.691   0.995  0.00  0.00    +0.025 C 
ATOM      3  C   UNL     1       2.725  -2.898   0.568  0.00  0.00    +0.088 C 
ATOM      4  N   UNL     1       1.796  -3.854  -0.061  0.00  0.00    -0.298 NA
ATOM      5  C   UNL     1       2.427  -5.191  -0.065  0.00  0.00    +0.085 C 
ATOM      6  C   UNL     1       0.509  -3.881   0.646  0.00  0.00    +0.105 C 
ENDROOT
BRANCH   3   7
ATOM      7  C   UNL     1       3.108  -1.827  -0.420  0.00  0.00    -0.012 A 
ATOM      8  C   UNL     1       4.378  -1.798  -0.963  0.00  0.00    +0.115 A 
ATOM      9  N   UNL     1       4.721  -0.865  -1.829  0.00  0.00    -0.263 NA
ATOM     10  C   UNL     1       3.875   0.073  -2.209  0.00  0.00    +0.111 A 
ATOM     11  C   UNL     1       2.587   0.108  -1.709  0.00  0.00    +0.020 A 
ATOM     12  C   UNL     1       2.189  -0.861  -0.800  0.00  0.00    +0.008 A 
ENDBRANCH   3   7
TORSDOF 1
ENDMDL
MODEL 3
REMARK VINA RESULT:    -3.076      2.978      6.217
REMARK INTER + INTRA:          -3.458
REMARK INTER:                  -3.244
REMARK INTRA:                  -0.214
REMARK UNBOUND:                -0.202
REMARK  Name = Nicotine.pdb
REMARK  2 active torsions:
REMARK  status: ('A' for Active; 'I' for Inactive)
REMARK    1  A    between atoms: C_3  and  C_6
REMARK    2  A    between atoms: N_4  and  C_12
REMARK                            x       y       z     vdW  Elec       q    Type
REMARK                         _______ _______ _______ _____ _____    ______ ____
ROOT
ATOM      1  C   UNL     1       4.140  -2.978   0.448  0.00  0.00    +0.017 C 
ATOM      2  C   UNL     1       3.042  -4.061   0.622  0.00  0.00    +0.025 C 
ATOM      3  C   UNL     1       1.948  -3.608  -0.367  0.00  0.00    +0.088 C 
ATOM      4  N   UNL     1       2.144  -2.167  -0.606  0.00  0.00    -0.298 NA
ATOM      5  C   UNL     1       3.289  -1.706   0.207  0.00  0.00    +0.085 C 
ATOM      6  C   UNL     1       2.366  -1.895  -2.032  0.00  0.00    +0.105 C 
ENDROOT
BRANCH   3   7
ATOM      7  C   UNL     1       0.585  -3.850   0.229  0.00  0.00    -0.012 A 
ATOM      8  C   UNL     1       0.404  -3.808   1.599  0.00  0.00    +0.115 A 
ATOM      9  N   UNL     1      -0.785  -4.018   2.129  0.00  0.00    -0.263 NA
ATOM     10  C   UNL     1      -1.841  -4.275   1.383  0.00  0.00    +0.111 A 
ATOM     11  C   UNL     1      -1.737  -4.333   0.005  0.00  0.00    +0.020 A 
ATOM     12  C   UNL     1      -0.504  -4.112  -0.588  0.00  0.00    +0.008 A 
ENDBRANCH   3   7
TORSDOF 1
ENDMDL
MODEL 4
REMARK VINA RESULT:    -2.727      1.586      2.194
REMARK INTER + INTRA:          -3.089
REMARK INTER:                  -2.873
REMARK INTRA:                  -0.216
REMARK UNBOUND:                -0.202
REMARK  Name = Nicotine.pdb
REMARK  2 active torsions:
REMARK  status: ('A' for Active; 'I' for Inactive)
REMARK    1  A    between atoms: C_3  and  C_6
REMARK    2  A    between atoms: N_4  and  C_12
REMARK                            x       y       z     vdW  Elec       q    Type
REMARK                         _______ _______ _______ _____ _____    ______ ____
ROOT
ATOM      1  C   UNL     1       0.159  -3.820   0.302  0.00  0.00    +0.017 C 
ATOM      2  C   UNL     1       0.745  -3.104  -0.943  0.00  0.00    +0.025 C 
ATOM      3  C   UNL     1       2.266  -3.319  -0.784  0.00  0.00    +0.088 C 
ATOM      4  N   UNL     1       2.522  -3.585   0.643  0.00  0.00    -0.298 NA
ATOM      5  C   UNL     1       1.237  -3.519   1.373  0.00  0.00    +0.085 C 
ATOM      6  C   UNL     1       3.166  -4.891   0.828  0.00  0.00    +0.105 C 
ENDROOT
BRANCH   3   7
ATOM      7  C   UNL     1       3.007  -2.081  -1.217  0.00  0.00    -0.012 A 
ATOM      8  C   UNL     1       2.357  -0.862  -1.278  0.00  0.00    +0.115 A 
ATOM      9  N   UNL     1       2.999   0.226  -1.656  0.00  0.00    -0.263 NA
ATOM     10  C   UNL     1       4.274   0.199  -1.989  0.00  0.00    +0.111 A 
ATOM     11  C   UNL     1       4.990  -0.984  -1.952  0.00  0.00    +0.020 A 
ATOM     12  C   UNL     1       4.350  -2.147  -1.554  0.00  0.00    +0.008 A 
ENDBRANCH   3   7
TORSDOF 1
ENDMDL
MODEL 5
REMARK VINA RESULT:    -2.653      2.990      6.136
REMARK INTER + INTRA:          -3.010
REMARK INTER:                  -2.758
REMARK INTRA:                  -0.252
REMARK UNBOUND:                -0.202
REMARK  Name = Nicotine.pdb
REMARK  2 active torsions:
REMARK  status: ('A' for Active; 'I' for Inactive)
REMARK    1  A    between atoms: C_3  and  C_6
REMARK    2  A    between atoms: N_4  and  C_12
REMARK                            x       y       z     vdW  Elec       q    Type
REMARK                         _______ _______ _______ _____ _____    ______ ____
ROOT
ATOM      1  C   UNL     1       2.928  -2.051  -1.811  0.00  0.00    +0.017 C 
ATOM      2  C   UNL     1       1.623  -1.823  -1.004  0.00  0.00    +0.025 C 
ATOM      3  C   UNL     1       1.767  -2.808   0.175  0.00  0.00    +0.088 C 
ATOM      4  N   UNL     1       2.718  -3.854  -0.242  0.00  0.00    -0.298 NA
ATOM      5  C   UNL     1       3.146  -3.574  -1.630  0.00  0.00    +0.085 C 
ATOM      6  C   UNL     1       3.873  -3.909   0.664  0.00  0.00    +0.105 C 
ENDROOT
BRANCH   3   7
ATOM      7  C   UNL     1       0.431  -3.426   0.494  0.00  0.00    -0.012 A 
ATOM      8  C   UNL     1       0.087  -3.712   1.802  0.00  0.00    +0.115 A 
ATOM      9  N   UNL     1      -1.081  -4.253   2.089  0.00  0.00    -0.263 NA
ATOM     10  C   UNL     1      -1.961  -4.541   1.151  0.00  0.00    +0.111 A 
ATOM     11  C   UNL     1      -1.687  -4.283  -0.179  0.00  0.00    +0.020 A 
ATOM     12  C   UNL     1      -0.472  -3.710  -0.519  0.00  0.00    +0.008 A 
ENDBRANCH   3   7
TORSDOF 1
ENDMDL
MODEL 6
REMARK VINA RESULT:    -2.452      1.452      2.353
REMARK INTER + INTRA:          -2.798
REMARK INTER:                  -2.584
REMARK INTRA:                  -0.214
REMARK UNBOUND:                -0.202
REMARK  Name = Nicotine.pdb
REMARK  2 active torsions:
REMARK  status: ('A' for Active; 'I' for Inactive)
REMARK    1  A    between atoms: C_3  and  C_6
REMARK    2  A    between atoms: N_4  and  C_12
REMARK                            x       y       z     vdW  Elec       q    Type
REMARK                         _______ _______ _______ _____ _____    ______ ____
ROOT
ATOM      1  C   UNL     1       2.804  -3.145  -0.431  0.00  0.00    +0.017 C 
ATOM      2  C   UNL     1       3.987  -2.148  -0.314  0.00  0.00    +0.025 C 
ATOM      3  C   UNL     1       3.534  -0.967  -1.198  0.00  0.00    +0.088 C 
ATOM      4  N   UNL     1       2.530  -1.489  -2.144  0.00  0.00    -0.298 NA
ATOM      5  C   UNL     1       2.363  -2.938  -1.901  0.00  0.00    +0.085 C 
ATOM      6  C   UNL     1       1.252  -0.780  -2.001  0.00  0.00    +0.105 C 
ENDROOT
BRANCH   3   7
ATOM      7  C   UNL     1       4.712  -0.411  -1.955  0.00  0.00    -0.012 A 
ATOM      8  C   UNL     1       5.769  -1.230  -2.303  0.00  0.00    +0.115 A 
ATOM      9  N   UNL     1       6.805  -0.752  -2.965  0.00  0.00    -0.263 NA
ATOM     10  C   UNL     1       6.875   0.516  -3.319  0.00  0.00    +0.111 A 
ATOM     11  C   UNL     1       5.855   1.396  -3.006  0.00  0.00    +0.020 A 
ATOM     12  C   UNL     1       4.748   0.927  -2.315  0.00  0.00    +0.008 A 
ENDBRANCH   3   7
TORSDOF 1
ENDMDL
MODEL 7
REMARK VINA RESULT:    -1.828      1.902      4.758
REMARK INTER + INTRA:          -2.138
REMARK INTER:                  -1.914
REMARK INTRA:                  -0.224
REMARK UNBOUND:                -0.202
REMARK  Name = Nicotine.pdb
REMARK  2 active torsions:
REMARK  status: ('A' for Active; 'I' for Inactive)
REMARK    1  A    between atoms: C_3  and  C_6
REMARK    2  A    between atoms: N_4  and  C_12
REMARK                            x       y       z     vdW  Elec       q    Type
REMARK                         _______ _______ _______ _____ _____    ______ ____
ROOT
ATOM      1  C   UNL     1       4.029   0.226  -2.098  0.00  0.00    +0.017 C 
ATOM      2  C   UNL     1       4.259  -1.277  -1.786  0.00  0.00    +0.025 C 
ATOM      3  C   UNL     1       2.826  -1.847  -1.749  0.00  0.00    +0.088 C 
ATOM      4  N   UNL     1       1.914  -0.721  -1.478  0.00  0.00    -0.298 NA
ATOM      5  C   UNL     1       2.719   0.509  -1.322  0.00  0.00    +0.085 C 
ATOM      6  C   UNL     1       0.927  -0.571  -2.555  0.00  0.00    +0.105 C 
ENDROOT
BRANCH   3   7
ATOM      7  C   UNL     1       2.711  -2.876  -0.654  0.00  0.00    -0.012 A 
ATOM      8  C   UNL     1       1.471  -3.329  -0.247  0.00  0.00    +0.115 A 
ATOM      9  N   UNL     1       1.362  -4.229   0.711  0.00  0.00    -0.263 NA
ATOM     10  C   UNL     1       2.421  -4.730   1.315  0.00  0.00    +0.111 A 
ATOM     11  C   UNL     1       3.695  -4.325   0.961  0.00  0.00    +0.020 A 
ATOM     12  C   UNL     1       3.849  -3.384  -0.045  0.00  0.00    +0.008 A 
ENDBRANCH   3   7
TORSDOF 1
ENDMDL
MODEL 8
REMARK VINA RESULT:    -1.403      1.743      5.065
REMARK INTER + INTRA:          -1.688
REMARK INTER:                  -1.473
REMARK INTRA:                  -0.215
REMARK UNBOUND:                -0.202
REMARK  Name = Nicotine.pdb
REMARK  2 active torsions:
REMARK  status: ('A' for Active; 'I' for Inactive)
REMARK    1  A    between atoms: C_3  and  C_6
REMARK    2  A    between atoms: N_4  and  C_12
REMARK                            x       y       z     vdW  Elec       q    Type
REMARK                         _______ _______ _______ _____ _____    ______ ____
ROOT
ATOM      1  C   UNL     1       5.308  -1.887  -2.761  0.00  0.00    +0.017 C 
ATOM      2  C   UNL     1       4.285  -3.010  -2.442  0.00  0.00    +0.025 C 
ATOM      3  C   UNL     1       3.108  -2.238  -1.808  0.00  0.00    +0.088 C 
ATOM      4  N   UNL     1       3.646  -0.963  -1.298  0.00  0.00    -0.298 NA
ATOM      5  C   UNL     1       5.100  -0.925  -1.564  0.00  0.00    +0.085 C 
ATOM      6  C   UNL     1       2.966   0.181  -1.918  0.00  0.00    +0.105 C 
ENDROOT
BRANCH   3   7
ATOM      7  C   UNL     1       2.521  -3.038  -0.675  0.00  0.00    -0.012 A 
ATOM      8  C   UNL     1       3.224  -4.094  -0.127  0.00  0.00    +0.115 A 
ATOM      9  N   UNL     1       2.717  -4.799   0.865  0.00  0.00    -0.263 NA
ATOM     10  C   UNL     1       1.529  -4.531   1.371  0.00  0.00    +0.111 A 
ATOM     11  C   UNL     1       0.768  -3.490   0.874  0.00  0.00    +0.020 A 
ATOM     12  C   UNL     1       1.270  -2.722  -0.166  0.00  0.00    +0.008 A 
ENDBRANCH   3   7
TORSDOF 1
ENDMDL
MODEL 9
REMARK VINA RESULT:    -1.315      2.010      3.448
REMARK INTER + INTRA:          -1.594
REMARK INTER:                  -1.370
REMARK INTRA:                  -0.223
REMARK UNBOUND:                -0.202
REMARK  Name = Nicotine.pdb
REMARK  2 active torsions:
REMARK  status: ('A' for Active; 'I' for Inactive)
REMARK    1  A    between atoms: C_3  and  C_6
REMARK    2  A    between atoms: N_4  and  C_12
REMARK                            x       y       z     vdW  Elec       q    Type
REMARK                         _______ _______ _______ _____ _____    ______ ____
ROOT
ATOM      1  C   UNL     1       3.205  -3.732   0.259  0.00  0.00    +0.017 C 
ATOM      2  C   UNL     1       2.130  -3.118  -0.677  0.00  0.00    +0.025 C 
ATOM      3  C   UNL     1       2.933  -2.089  -1.501  0.00  0.00    +0.088 C 
ATOM      4  N   UNL     1       4.139  -1.752  -0.723  0.00  0.00    -0.298 NA
ATOM      5  C   UNL     1       4.104  -2.504   0.550  0.00  0.00    +0.085 C 
ATOM      6  C   UNL     1       5.358  -2.058  -1.482  0.00  0.00    +0.105 C 
ENDROOT
BRANCH   3   7
ATOM      7  C   UNL     1       2.104  -0.852  -1.725  0.00  0.00    -0.012 A 
ATOM      8  C   UNL     1       2.589   0.390  -1.363  0.00  0.00    +0.115 A 
ATOM      9  N   UNL     1       1.870   1.479  -1.556  0.00  0.00    -0.263 NA
ATOM     10  C   UNL     1       0.668   1.428  -2.096  0.00  0.00    +0.111 A 
ATOM     11  C   UNL     1       0.117   0.222  -2.484  0.00  0.00    +0.020 A 
ATOM     12  C   UNL     1       0.846  -0.943  -2.302  0.00  0.00    +0.008 A 
ENDBRANCH   3   7
TORSDOF 1
ENDMDL
