MODEL 1
REMARK VINA RESULT:     0.000      0.000      0.000
REMARK INTER + INTRA:          -0.256
REMARK INTER:                   0.000
REMARK INTRA:                  -0.256
REMARK UNBOUND:                -0.256
REMARK  Name = Nicotine.pdb
REMARK  2 active torsions:
REMARK  status: ('A' for Active; 'I' for Inactive)
REMARK    1  A    between atoms: C_3  and  C_6
REMARK    2  A    between atoms: N_4  and  C_12
REMARK                            x       y       z     vdW  Elec       q    Type
REMARK                         _______ _______ _______ _____ _____    ______ ____
ROOT
ATOM      1  C   UNL     1       6.845  -0.665  -1.698  0.00  0.00    +0.017 C 
ATOM      2  C   UNL     1       5.325  -0.756  -1.405  0.00  0.00    +0.025 C 
ATOM      3  C   UNL     1       4.936  -2.124  -2.005  0.00  0.00    +0.088 C 
ATOM      4  N   UNL     1       5.957  -2.464  -3.012  0.00  0.00    -0.298 NA
ATOM      5  C   UNL     1       6.940  -1.362  -3.078  0.00  0.00    +0.085 C 
ATOM      6  C   UNL     1       6.615  -3.737  -2.688  0.00  0.00    +0.105 C 
ENDROOT
BRANCH   3   7
ATOM      7  C   UNL     1       3.582  -2.032  -2.658  0.00  0.00    -0.012 A 
ATOM      8  C   UNL     1       2.829  -3.171  -2.871  0.00  0.00    +0.115 A 
ATOM      9  N   UNL     1       1.642  -3.099  -3.442  0.00  0.00    -0.263 NA
ATOM     10  C   UNL     1       1.128  -1.948  -3.829  0.00  0.00    +0.111 A 
ATOM     11  C   UNL     1       1.822  -0.766  -3.648  0.00  0.00    +0.020 A 
ATOM     12  C   UNL     1       3.071  -0.802  -3.047  0.00  0.00    +0.008 A 
ENDBRANCH   3   7
TORSDOF 1
ENDMDL
MODEL 2
REMARK VINA RESULT:     0.000      5.153      7.190
REMARK INTER + INTRA:          -0.256
REMARK INTER:                   0.000
REMARK INTRA:                  -0.256
REMARK UNBOUND:                -0.256
REMARK  Name = Nicotine.pdb
REMARK  2 active torsions:
REMARK  status: ('A' for Active; 'I' for Inactive)
REMARK    1  A    between atoms: C_3  and  C_6
REMARK    2  A    between atoms: N_4  and  C_12
REMARK                            x       y       z     vdW  Elec       q    Type
REMARK                         _______ _______ _______ _____ _____    ______ ____
ROOT
ATOM      1  C   UNL     1      -2.281  -0.125   1.443  0.00  0.00    +0.017 C 
ATOM      2  C   UNL     1      -1.183   0.937   1.718  0.00  0.00    +0.025 C 
ATOM      3  C   UNL     1      -0.174   0.697   0.575  0.00  0.00    +0.088 C 
ATOM      4  N   UNL     1      -0.375  -0.683   0.097  0.00  0.00    -0.298 NA
ATOM      5  C   UNL     1      -1.441  -1.312   0.907  0.00  0.00    +0.085 C 
ATOM      6  C   UNL     1      -0.718  -0.702  -1.330  0.00  0.00    +0.105 C 
ENDROOT
BRANCH   3   7
ATOM      7  C   UNL     1       1.232   0.863   1.090  0.00  0.00    -0.012 A 
ATOM      8  C   UNL     1       2.269   1.134   0.217  0.00  0.00    +0.115 A 
ATOM      9  N   UNL     1       3.502   1.281   0.659  0.00  0.00    -0.263 NA
ATOM     10  C   UNL     1       3.797   1.176   1.940  0.00  0.00    +0.111 A 
ATOM     11  C   UNL     1       2.812   0.907   2.872  0.00  0.00    +0.020 A 
ATOM     12  C   UNL     1       1.502   0.751   2.445  0.00  0.00    +0.008 A 
ENDBRANCH   3   7
TORSDOF 1
ENDMDL
MODEL 3
REMARK VINA RESULT:     0.000      7.425      8.141
REMARK INTER + INTRA:          -0.256
REMARK INTER:                   0.000
REMARK INTRA:                  -0.256
REMARK UNBOUND:                -0.256
REMARK  Name = Nicotine.pdb
REMARK  2 active torsions:
REMARK  status: ('A' for Active; 'I' for Inactive)
REMARK    1  A    between atoms: C_3  and  C_6
REMARK    2  A    between atoms: N_4  and  C_12
REMARK                            x       y       z     vdW  Elec       q    Type
REMARK                         _______ _______ _______ _____ _____    ______ ____
ROOT
ATOM      1  C   UNL     1       8.122   4.900   2.400  0.00  0.00    +0.017 C 
ATOM      2  C   UNL     1       8.066   5.694   1.068  0.00  0.00    +0.025 C 
ATOM      3  C   UNL     1       6.776   5.166   0.404  0.00  0.00    +0.088 C 
ATOM      4  N   UNL     1       6.490   3.846   0.994  0.00  0.00    -0.298 NA
ATOM      5  C   UNL     1       7.554   3.525   1.969  0.00  0.00    +0.085 C 
ATOM      6  C   UNL     1       5.168   3.829   1.632  0.00  0.00    +0.105 C 
ENDROOT
BRANCH   3   7
ATOM      7  C   UNL     1       6.983   5.031  -1.082  0.00  0.00    -0.012 A 
ATOM      8  C   UNL     1       5.899   5.009  -1.940  0.00  0.00    +0.115 A 
ATOM      9  N   UNL     1       6.071   4.891  -3.242  0.00  0.00    -0.263 NA
ATOM     10  C   UNL     1       7.273   4.791  -3.776  0.00  0.00    +0.111 A 
ATOM     11  C   UNL     1       8.404   4.807  -2.981  0.00  0.00    +0.020 A 
ATOM     12  C   UNL     1       8.262   4.934  -1.608  0.00  0.00    +0.008 A 
ENDBRANCH   3   7
TORSDOF 1
ENDMDL
MODEL 4
REMARK VINA RESULT:     0.000      3.610      5.015
REMARK INTER + INTRA:          -0.256
REMARK INTER:                   0.000
REMARK INTRA:                  -0.256
REMARK UNBOUND:                -0.256
REMARK  Name = Nicotine.pdb
REMARK  2 active torsions:
REMARK  status: ('A' for Active; 'I' for Inactive)
REMARK    1  A    between atoms: C_3  and  C_6
REMARK    2  A    between atoms: N_4  and  C_12
REMARK                            x       y       z     vdW  Elec       q    Type
REMARK                         _______ _______ _______ _____ _____    ______ ____
ROOT
ATOM      1  C   UNL     1       2.422   0.136  -3.970  0.00  0.00    +0.017 C 
ATOM      2  C   UNL     1       2.200  -1.231  -3.272  0.00  0.00    +0.025 C 
ATOM      3  C   UNL     1       0.736  -1.568  -3.626  0.00  0.00    +0.088 C 
ATOM      4  N   UNL     1       0.063  -0.299  -3.956  0.00  0.00    -0.298 NA
ATOM      5  C   UNL     1       1.035   0.804  -3.798  0.00  0.00    +0.085 C 
ATOM      6  C   UNL     1      -0.482  -0.330  -5.319  0.00  0.00    +0.105 C 
ENDROOT
BRANCH   3   7
ATOM      7  C   UNL     1       0.060  -2.217  -2.446  0.00  0.00    -0.012 A 
ATOM      8  C   UNL     1      -1.069  -2.994  -2.627  0.00  0.00    +0.115 A 
ATOM      9  N   UNL     1      -1.667  -3.565  -1.600  0.00  0.00    -0.263 NA
ATOM     10  C   UNL     1      -1.217  -3.422  -0.369  0.00  0.00    +0.111 A 
ATOM     11  C   UNL     1      -0.093  -2.660  -0.110  0.00  0.00    +0.020 A 
ATOM     12  C   UNL     1       0.565  -2.048  -1.166  0.00  0.00    +0.008 A 
ENDBRANCH   3   7
TORSDOF 1
ENDMDL
MODEL 5
REMARK VINA RESULT:     0.000      5.481      6.347
REMARK INTER + INTRA:          -0.256
REMARK INTER:                   0.000
REMARK INTRA:                  -0.256
REMARK UNBOUND:                -0.256
REMARK  Name = Nicotine.pdb
REMARK  2 active torsions:
REMARK  status: ('A' for Active; 'I' for Inactive)
REMARK    1  A    between atoms: C_3  and  C_6
REMARK    2  A    between atoms: N_4  and  C_12
REMARK                            x       y       z     vdW  Elec       q    Type
REMARK                         _______ _______ _______ _____ _____    ______ ____
ROOT
ATOM      1  C   UNL     1       5.172   1.980  -0.282  0.00  0.00    +0.017 C 
ATOM      2  C   UNL     1       3.695   1.510  -0.327  0.00  0.00    +0.025 C 
ATOM      3  C   UNL     1       2.967   2.713  -0.964  0.00  0.00    +0.088 C 
ATOM      4  N   UNL     1       3.812   3.901  -0.745  0.00  0.00    -0.298 NA
ATOM      5  C   UNL     1       5.011   3.492   0.017  0.00  0.00    +0.085 C 
ATOM      6  C   UNL     1       4.186   4.524  -2.021  0.00  0.00    +0.105 C 
ENDROOT
BRANCH   3   7
ATOM      7  C   UNL     1       1.626   2.908  -0.305  0.00  0.00    -0.012 A 
ATOM      8  C   UNL     1       0.622   3.602  -0.954  0.00  0.00    +0.115 A 
ATOM      9  N   UNL     1      -0.554   3.777  -0.385  0.00  0.00    -0.263 NA
ATOM     10  C   UNL     1      -0.821   3.303   0.816  0.00  0.00    +0.111 A 
ATOM     11  C   UNL     1       0.133   2.598   1.526  0.00  0.00    +0.020 A 
ATOM     12  C   UNL     1       1.380   2.389   0.957  0.00  0.00    +0.008 A 
ENDBRANCH   3   7
TORSDOF 1
ENDMDL
MODEL 6
REMARK VINA RESULT:     0.000      4.474      6.724
REMARK INTER + INTRA:          -0.256
REMARK INTER:                   0.000
REMARK INTRA:                  -0.256
REMARK UNBOUND:                -0.256
REMARK  Name = Nicotine.pdb
REMARK  2 active torsions:
REMARK  status: ('A' for Active; 'I' for Inactive)
REMARK    1  A    between atoms: C_3  and  C_6
REMARK    2  A    between atoms: N_4  and  C_12
REMARK                            x       y       z     vdW  Elec       q    Type
REMARK                         _______ _______ _______ _____ _____    ______ ____
ROOT
ATOM      1  C   UNL     1      -2.316  -3.381  -0.585  0.00  0.00    +0.017 C 
ATOM      2  C   UNL     1      -1.460  -3.355   0.709  0.00  0.00    +0.025 C 
ATOM      3  C   UNL     1      -0.252  -2.481   0.309  0.00  0.00    +0.088 C 
ATOM      4  N   UNL     1      -0.152  -2.521  -1.161  0.00  0.00    -0.298 NA
ATOM      5  C   UNL     1      -1.223  -3.397  -1.683  0.00  0.00    +0.085 C 
ATOM      6  C   UNL     1      -0.250  -1.172  -1.733  0.00  0.00    +0.105 C 
ENDROOT
BRANCH   3   7
ATOM      7  C   UNL     1       1.007  -3.033   0.925  0.00  0.00    -0.012 A 
ATOM      8  C   UNL     1       2.116  -2.225   1.092  0.00  0.00    +0.115 A 
ATOM      9  N   UNL     1       3.222  -2.701   1.630  0.00  0.00    -0.263 NA
ATOM     10  C   UNL     1       3.316  -3.954   2.029  0.00  0.00    +0.111 A 
ATOM     11  C   UNL     1       2.247  -4.821   1.895  0.00  0.00    +0.020 A 
ATOM     12  C   UNL     1       1.066  -4.355   1.338  0.00  0.00    +0.008 A 
ENDBRANCH   3   7
TORSDOF 1
ENDMDL
MODEL 7
REMARK VINA RESULT:     0.000      5.839      8.473
REMARK INTER + INTRA:          -0.256
REMARK INTER:                   0.000
REMARK INTRA:                  -0.256
REMARK UNBOUND:                -0.256
REMARK  Name = Nicotine.pdb
REMARK  2 active torsions:
REMARK  status: ('A' for Active; 'I' for Inactive)
REMARK    1  A    between atoms: C_3  and  C_6
REMARK    2  A    between atoms: N_4  and  C_12
REMARK                            x       y       z     vdW  Elec       q    Type
REMARK                         _______ _______ _______ _____ _____    ______ ____
ROOT
ATOM      1  C   UNL     1      -2.295   3.910  -3.846  0.00  0.00    +0.017 C 
ATOM      2  C   UNL     1      -0.764   3.669  -3.794  0.00  0.00    +0.025 C 
ATOM      3  C   UNL     1      -0.281   4.203  -5.160  0.00  0.00    +0.088 C 
ATOM      4  N   UNL     1      -1.440   4.182  -6.071  0.00  0.00    -0.298 NA
ATOM      5  C   UNL     1      -2.604   3.638  -5.340  0.00  0.00    +0.085 C 
ATOM      6  C   UNL     1      -1.725   5.526  -6.591  0.00  0.00    +0.105 C 
ENDROOT
BRANCH   3   7
ATOM      7  C   UNL     1       0.813   3.318  -5.699  0.00  0.00    -0.012 A 
ATOM      8  C   UNL     1       1.694   3.797  -6.649  0.00  0.00    +0.115 A 
ATOM      9  N   UNL     1       2.655   3.029  -7.126  0.00  0.00    -0.263 NA
ATOM     10  C   UNL     1       2.812   1.784  -6.721  0.00  0.00    +0.111 A 
ATOM     11  C   UNL     1       1.969   1.236  -5.773  0.00  0.00    +0.020 A 
ATOM     12  C   UNL     1       0.951   2.015  -5.244  0.00  0.00    +0.008 A 
ENDBRANCH   3   7
TORSDOF 1
ENDMDL
MODEL 8
REMARK VINA RESULT:     0.000      7.678      9.136
REMARK INTER + INTRA:          -0.256
REMARK INTER:                   0.000
REMARK INTRA:                  -0.256
REMARK UNBOUND:                -0.256
REMARK  Name = Nicotine.pdb
REMARK  2 active torsions:
REMARK  status: ('A' for Active; 'I' for Inactive)
REMARK    1  A    between atoms: C_3  and  C_6
REMARK    2  A    between atoms: N_4  and  C_12
REMARK                            x       y       z     vdW  Elec       q    Type
REMARK                         _______ _______ _______ _____ _____    ______ ____
ROOT
ATOM      1  C   UNL     1      -0.695   3.475   0.123  0.00  0.00    +0.017 C 
ATOM      2  C   UNL     1       0.785   3.802  -0.209  0.00  0.00    +0.025 C 
ATOM      3  C   UNL     1       1.497   3.599   1.145  0.00  0.00    +0.088 C 
ATOM      4  N   UNL     1       0.477   3.733   2.200  0.00  0.00    -0.298 NA
ATOM      5  C   UNL     1      -0.823   4.033   1.563  0.00  0.00    +0.085 C 
ATOM      6  C   UNL     1       0.396   2.512   3.013  0.00  0.00    +0.105 C 
ENDROOT
BRANCH   3   7
ATOM      7  C   UNL     1       2.563   4.648   1.326  0.00  0.00    -0.012 A 
ATOM      8  C   UNL     1       3.608   4.439   2.206  0.00  0.00    +0.115 A 
ATOM      9  N   UNL     1       4.546   5.352   2.370  0.00  0.00    -0.263 NA
ATOM     10  C   UNL     1       4.526   6.492   1.708  0.00  0.00    +0.111 A 
ATOM     11  C   UNL     1       3.512   6.772   0.810  0.00  0.00    +0.020 A 
ATOM     12  C   UNL     1       2.512   5.833   0.607  0.00  0.00    +0.008 A 
ENDBRANCH   3   7
TORSDOF 1
ENDMDL
MODEL 9
REMARK VINA RESULT:     0.000      5.823      7.713
REMARK INTER + INTRA:          -0.256
REMARK INTER:                   0.000
REMARK INTRA:                  -0.256
REMARK UNBOUND:                -0.256
REMARK  Name = Nicotine.pdb
REMARK  2 active torsions:
REMARK  status: ('A' for Active; 'I' for Inactive)
REMARK    1  A    between atoms: C_3  and  C_6
REMARK    2  A    between atoms: N_4  and  C_12
REMARK                            x       y       z     vdW  Elec       q    Type
REMARK                         _______ _______ _______ _____ _____    ______ ____
ROOT
ATOM      1  C   UNL     1       0.798   3.676  -2.944  0.00  0.00    +0.017 C 
ATOM      2  C   UNL     1      -0.704   3.952  -2.670  0.00  0.00    +0.025 C 
ATOM      3  C   UNL     1      -1.320   2.537  -2.662  0.00  0.00    +0.088 C 
ATOM      4  N   UNL     1      -0.410   1.660  -3.420  0.00  0.00    -0.298 NA
ATOM      5  C   UNL     1       0.723   2.471  -3.914  0.00  0.00    +0.085 C 
ATOM      6  C   UNL     1       0.063   0.546  -2.587  0.00  0.00    +0.105 C 
ENDROOT
BRANCH   3   7
ATOM      7  C   UNL     1      -2.674   2.565  -3.322  0.00  0.00    -0.012 A 
ATOM      8  C   UNL     1      -3.599   1.570  -3.063  0.00  0.00    +0.115 A 
ATOM      9  N   UNL     1      -4.786   1.587  -3.636  0.00  0.00    -0.263 NA
ATOM     10  C   UNL     1      -5.139   2.543  -4.473  0.00  0.00    +0.111 A 
ATOM     11  C   UNL     1      -4.267   3.571  -4.780  0.00  0.00    +0.020 A 
ATOM     12  C   UNL     1      -3.012   3.590  -4.193  0.00  0.00    +0.008 A 
ENDBRANCH   3   7
TORSDOF 1
ENDMDL
MODEL 10
REMARK VINA RESULT:     0.000      6.508      7.939
REMARK INTER + INTRA:          -0.256
REMARK INTER:                   0.000
REMARK INTRA:                  -0.256
REMARK UNBOUND:                -0.256
REMARK  Name = Nicotine.pdb
REMARK  2 active torsions:
REMARK  status: ('A' for Active; 'I' for Inactive)
REMARK    1  A    between atoms: C_3  and  C_6
REMARK    2  A    between atoms: N_4  and  C_12
REMARK                            x       y       z     vdW  Elec       q    Type
REMARK                         _______ _______ _______ _____ _____    ______ ____
ROOT
ATOM      1  C   UNL     1       0.183   3.515   3.023  0.00  0.00    +0.017 C 
ATOM      2  C   UNL     1       0.846   2.936   1.746  0.00  0.00    +0.025 C 
ATOM      3  C   UNL     1       2.314   2.733   2.179  0.00  0.00    +0.088 C 
ATOM      4  N   UNL     1       2.560   3.629   3.323  0.00  0.00    -0.298 NA
ATOM      5  C   UNL     1       1.323   4.391   3.599  0.00  0.00    +0.085 C 
ATOM      6  C   UNL     1       2.985   2.869   4.505  0.00  0.00    +0.105 C 
ENDROOT
BRANCH   3   7
ATOM      7  C   UNL     1       3.237   3.086   1.042  0.00  0.00    -0.012 A 
ATOM      8  C   UNL     1       4.526   2.589   1.008  0.00  0.00    +0.115 A 
ATOM      9  N   UNL     1       5.341   2.893   0.016  0.00  0.00    -0.263 NA
ATOM     10  C   UNL     1       4.963   3.676  -0.975  0.00  0.00    +0.111 A 
ATOM     11  C   UNL     1       3.688   4.209  -1.010  0.00  0.00    +0.020 A 
ATOM     12  C   UNL     1       2.802   3.907   0.013  0.00  0.00    +0.008 A 
ENDBRANCH   3   7
TORSDOF 1
ENDMDL
