MODEL 1
REMARK VINA RESULT:    -6.464      0.000      0.000
REMARK INTER + INTRA:          -7.098
REMARK INTER:                  -6.842
REMARK INTRA:                  -0.256
REMARK UNBOUND:                -0.256
REMARK  Name = Nicotine.pdb
REMARK  2 active torsions:
REMARK  status: ('A' for Active; 'I' for Inactive)
REMARK    1  A    between atoms: C_3  and  C_6
REMARK    2  A    between atoms: N_4  and  C_12
REMARK                            x       y       z     vdW  Elec       q    Type
REMARK                         _______ _______ _______ _____ _____    ______ ____
ROOT
ATOM      1  C   UNL     1       1.965   2.554  -2.943  0.00  0.00    +0.017 C 
ATOM      2  C   UNL     1       2.536   1.968  -4.261  0.00  0.00    +0.025 C 
ATOM      3  C   UNL     1       1.425   1.001  -4.721  0.00  0.00    +0.088 C 
ATOM      4  N   UNL     1       0.631   0.648  -3.530  0.00  0.00    -0.298 NA
ATOM      5  C   UNL     1       1.216   1.331  -2.356  0.00  0.00    +0.085 C 
ATOM      6  C   UNL     1      -0.779   1.019  -3.707  0.00  0.00    +0.105 C 
ENDROOT
BRANCH   3   7
ATOM      7  C   UNL     1       2.038  -0.240  -5.315  0.00  0.00    -0.012 A 
ATOM      8  C   UNL     1       1.317  -1.024  -6.197  0.00  0.00    +0.115 A 
ATOM      9  N   UNL     1       1.847  -2.111  -6.722  0.00  0.00    -0.263 NA
ATOM     10  C   UNL     1       3.075  -2.494  -6.430  0.00  0.00    +0.111 A 
ATOM     11  C   UNL     1       3.856  -1.761  -5.557  0.00  0.00    +0.020 A 
ATOM     12  C   UNL     1       3.335  -0.608  -4.990  0.00  0.00    +0.008 A 
ENDBRANCH   3   7
TORSDOF 1
ENDMDL
MODEL 2
REMARK VINA RESULT:    -6.305      1.867      4.551
REMARK INTER + INTRA:          -6.930
REMARK INTER:                  -6.734
REMARK INTRA:                  -0.196
REMARK UNBOUND:                -0.256
REMARK  Name = Nicotine.pdb
REMARK  2 active torsions:
REMARK  status: ('A' for Active; 'I' for Inactive)
REMARK    1  A    between atoms: C_3  and  C_6
REMARK    2  A    between atoms: N_4  and  C_12
REMARK                            x       y       z     vdW  Elec       q    Type
REMARK                         _______ _______ _______ _____ _____    ______ ____
ROOT
ATOM      1  C   UNL     1       3.373  -0.419  -5.030  0.00  0.00    +0.017 C 
ATOM      2  C   UNL     1       2.681   0.810  -4.384  0.00  0.00    +0.025 C 
ATOM      3  C   UNL     1       1.297   0.258  -3.983  0.00  0.00    +0.088 C 
ATOM      4  N   UNL     1       1.037  -0.923  -4.825  0.00  0.00    -0.298 NA
ATOM      5  C   UNL     1       2.183  -1.110  -5.741  0.00  0.00    +0.085 C 
ATOM      6  C   UNL     1       0.820  -2.120  -4.002  0.00  0.00    +0.105 C 
ENDROOT
BRANCH   3   7
ATOM      7  C   UNL     1       0.239   1.304  -4.224  0.00  0.00    -0.012 A 
ATOM      8  C   UNL     1      -0.053   2.240  -3.251  0.00  0.00    +0.115 A 
ATOM      9  N   UNL     1      -0.978   3.159  -3.454  0.00  0.00    -0.263 NA
ATOM     10  C   UNL     1      -1.656   3.222  -4.582  0.00  0.00    +0.111 A 
ATOM     11  C   UNL     1      -1.419   2.319  -5.602  0.00  0.00    +0.020 A 
ATOM     12  C   UNL     1      -0.450   1.342  -5.427  0.00  0.00    +0.008 A 
ENDBRANCH   3   7
TORSDOF 1
ENDMDL
MODEL 3
REMARK VINA RESULT:    -6.068      1.336      2.029
REMARK INTER + INTRA:          -6.679
REMARK INTER:                  -6.464
REMARK INTRA:                  -0.215
REMARK UNBOUND:                -0.256
REMARK  Name = Nicotine.pdb
REMARK  2 active torsions:
REMARK  status: ('A' for Active; 'I' for Inactive)
REMARK    1  A    between atoms: C_3  and  C_6
REMARK    2  A    between atoms: N_4  and  C_12
REMARK                            x       y       z     vdW  Elec       q    Type
REMARK                         _______ _______ _______ _____ _____    ______ ____
ROOT
ATOM      1  C   UNL     1       0.217   0.683  -2.116  0.00  0.00    +0.017 C 
ATOM      2  C   UNL     1       1.016  -0.614  -2.410  0.00  0.00    +0.025 C 
ATOM      3  C   UNL     1       1.995  -0.174  -3.520  0.00  0.00    +0.088 C 
ATOM      4  N   UNL     1       1.415   1.016  -4.167  0.00  0.00    -0.298 NA
ATOM      5  C   UNL     1       0.116   1.315  -3.527  0.00  0.00    +0.085 C 
ATOM      6  C   UNL     1       2.326   2.164  -4.072  0.00  0.00    +0.105 C 
ENDROOT
BRANCH   3   7
ATOM      7  C   UNL     1       2.156  -1.281  -4.529  0.00  0.00    -0.012 A 
ATOM      8  C   UNL     1       1.213  -2.287  -4.620  0.00  0.00    +0.115 A 
ATOM      9  N   UNL     1       1.346  -3.260  -5.501  0.00  0.00    -0.263 NA
ATOM     10  C   UNL     1       2.375  -3.313  -6.324  0.00  0.00    +0.111 A 
ATOM     11  C   UNL     1       3.358  -2.342  -6.291  0.00  0.00    +0.020 A 
ATOM     12  C   UNL     1       3.249  -1.301  -5.382  0.00  0.00    +0.008 A 
ENDBRANCH   3   7
TORSDOF 1
ENDMDL
MODEL 4
REMARK VINA RESULT:    -5.904      1.339      4.326
REMARK INTER + INTRA:          -6.505
REMARK INTER:                  -6.289
REMARK INTRA:                  -0.216
REMARK UNBOUND:                -0.256
REMARK  Name = Nicotine.pdb
REMARK  2 active torsions:
REMARK  status: ('A' for Active; 'I' for Inactive)
REMARK    1  A    between atoms: C_3  and  C_6
REMARK    2  A    between atoms: N_4  and  C_12
REMARK                            x       y       z     vdW  Elec       q    Type
REMARK                         _______ _______ _______ _____ _____    ______ ____
ROOT
ATOM      1  C   UNL     1       3.529  -1.936  -6.098  0.00  0.00    +0.017 C 
ATOM      2  C   UNL     1       3.471  -0.851  -4.991  0.00  0.00    +0.025 C 
ATOM      3  C   UNL     1       2.105  -1.113  -4.320  0.00  0.00    +0.088 C 
ATOM      4  N   UNL     1       1.270  -1.836  -5.296  0.00  0.00    -0.298 NA
ATOM      5  C   UNL     1       2.047  -2.009  -6.543  0.00  0.00    +0.085 C 
ATOM      6  C   UNL     1       0.837  -3.133  -4.761  0.00  0.00    +0.105 C 
ENDROOT
BRANCH   3   7
ATOM      7  C   UNL     1       1.453   0.196  -3.956  0.00  0.00    -0.012 A 
ATOM      8  C   UNL     1       0.085   0.270  -3.776  0.00  0.00    +0.115 A 
ATOM      9  N   UNL     1      -0.493   1.411  -3.458  0.00  0.00    -0.263 NA
ATOM     10  C   UNL     1       0.202   2.520  -3.299  0.00  0.00    +0.111 A 
ATOM     11  C   UNL     1       1.575   2.524  -3.463  0.00  0.00    +0.020 A 
ATOM     12  C   UNL     1       2.219   1.341  -3.793  0.00  0.00    +0.008 A 
ENDBRANCH   3   7
TORSDOF 1
ENDMDL
MODEL 5
REMARK VINA RESULT:    -5.807      2.661      3.651
REMARK INTER + INTRA:          -6.402
REMARK INTER:                  -6.187
REMARK INTRA:                  -0.215
REMARK UNBOUND:                -0.256
REMARK  Name = Nicotine.pdb
REMARK  2 active torsions:
REMARK  status: ('A' for Active; 'I' for Inactive)
REMARK    1  A    between atoms: C_3  and  C_6
REMARK    2  A    between atoms: N_4  and  C_12
REMARK                            x       y       z     vdW  Elec       q    Type
REMARK                         _______ _______ _______ _____ _____    ______ ____
ROOT
ATOM      1  C   UNL     1       3.326   0.606  -4.979  0.00  0.00    +0.017 C 
ATOM      2  C   UNL     1       2.958  -0.814  -4.474  0.00  0.00    +0.025 C 
ATOM      3  C   UNL     1       1.421  -0.747  -4.342  0.00  0.00    +0.088 C 
ATOM      4  N   UNL     1       1.055   0.674  -4.211  0.00  0.00    -0.298 NA
ATOM      5  C   UNL     1       2.293   1.483  -4.229  0.00  0.00    +0.085 C 
ATOM      6  C   UNL     1       0.141   1.085  -5.284  0.00  0.00    +0.105 C 
ENDROOT
BRANCH   3   7
ATOM      7  C   UNL     1       0.978  -1.508  -3.119  0.00  0.00    -0.012 A 
ATOM      8  C   UNL     1       0.126  -2.589  -3.239  0.00  0.00    +0.115 A 
ATOM      9  N   UNL     1      -0.267  -3.260  -2.174  0.00  0.00    -0.263 NA
ATOM     10  C   UNL     1       0.133  -2.931  -0.962  0.00  0.00    +0.111 A 
ATOM     11  C   UNL     1       0.985  -1.861  -0.763  0.00  0.00    +0.020 A 
ATOM     12  C   UNL     1       1.424  -1.135  -1.860  0.00  0.00    +0.008 A 
ENDBRANCH   3   7
TORSDOF 1
ENDMDL
MODEL 6
REMARK VINA RESULT:    -5.638      1.973      2.178
REMARK INTER + INTRA:          -6.224
REMARK INTER:                  -5.968
REMARK INTRA:                  -0.256
REMARK UNBOUND:                -0.256
REMARK  Name = Nicotine.pdb
REMARK  2 active torsions:
REMARK  status: ('A' for Active; 'I' for Inactive)
REMARK    1  A    between atoms: C_3  and  C_6
REMARK    2  A    between atoms: N_4  and  C_12
REMARK                            x       y       z     vdW  Elec       q    Type
REMARK                         _______ _______ _______ _____ _____    ______ ____
ROOT
ATOM      1  C   UNL     1       1.193   0.610  -1.339  0.00  0.00    +0.017 C 
ATOM      2  C   UNL     1       1.344   0.539  -2.881  0.00  0.00    +0.025 C 
ATOM      3  C   UNL     1       0.816  -0.872  -3.217  0.00  0.00    +0.088 C 
ATOM      4  N   UNL     1       0.925  -1.683  -1.990  0.00  0.00    -0.298 NA
ATOM      5  C   UNL     1       1.518  -0.847  -0.925  0.00  0.00    +0.085 C 
ATOM      6  C   UNL     1      -0.387  -2.203  -1.584  0.00  0.00    +0.105 C 
ENDROOT
BRANCH   3   7
ATOM      7  C   UNL     1       1.649  -1.484  -4.313  0.00  0.00    -0.012 A 
ATOM      8  C   UNL     1       1.181  -2.576  -5.020  0.00  0.00    +0.115 A 
ATOM      9  N   UNL     1       1.903  -3.117  -5.981  0.00  0.00    -0.263 NA
ATOM     10  C   UNL     1       3.091  -2.645  -6.305  0.00  0.00    +0.111 A 
ATOM     11  C   UNL     1       3.624  -1.555  -5.643  0.00  0.00    +0.020 A 
ATOM     12  C   UNL     1       2.891  -0.956  -4.630  0.00  0.00    +0.008 A 
ENDBRANCH   3   7
TORSDOF 1
ENDMDL
MODEL 7
REMARK VINA RESULT:    -5.606      1.547      2.161
REMARK INTER + INTRA:          -6.190
REMARK INTER:                  -6.018
REMARK INTRA:                  -0.171
REMARK UNBOUND:                -0.256
REMARK  Name = Nicotine.pdb
REMARK  2 active torsions:
REMARK  status: ('A' for Active; 'I' for Inactive)
REMARK    1  A    between atoms: C_3  and  C_6
REMARK    2  A    between atoms: N_4  and  C_12
REMARK                            x       y       z     vdW  Elec       q    Type
REMARK                         _______ _______ _______ _____ _____    ______ ____
ROOT
ATOM      1  C   UNL     1      -0.773   2.061  -4.644  0.00  0.00    +0.017 C 
ATOM      2  C   UNL     1      -0.263   1.085  -5.737  0.00  0.00    +0.025 C 
ATOM      3  C   UNL     1      -0.107  -0.245  -4.970  0.00  0.00    +0.088 C 
ATOM      4  N   UNL     1       0.031   0.088  -3.541  0.00  0.00    -0.298 NA
ATOM      5  C   UNL     1      -0.007   1.559  -3.395  0.00  0.00    +0.085 C 
ATOM      6  C   UNL     1      -1.028  -0.547  -2.746  0.00  0.00    +0.105 C 
ENDROOT
BRANCH   3   7
ATOM      7  C   UNL     1       1.122  -0.973  -5.449  0.00  0.00    -0.012 A 
ATOM      8  C   UNL     1       2.364  -0.667  -4.925  0.00  0.00    +0.115 A 
ATOM      9  N   UNL     1       3.445  -1.299  -5.339  0.00  0.00    -0.263 NA
ATOM     10  C   UNL     1       3.388  -2.240  -6.260  0.00  0.00    +0.111 A 
ATOM     11  C   UNL     1       2.181  -2.600  -6.830  0.00  0.00    +0.020 A 
ATOM     12  C   UNL     1       1.022  -1.961  -6.416  0.00  0.00    +0.008 A 
ENDBRANCH   3   7
TORSDOF 1
ENDMDL
MODEL 8
REMARK VINA RESULT:    -5.487      2.585      4.400
REMARK INTER + INTRA:          -6.063
REMARK INTER:                  -5.851
REMARK INTRA:                  -0.212
REMARK UNBOUND:                -0.256
REMARK  Name = Nicotine.pdb
REMARK  2 active torsions:
REMARK  status: ('A' for Active; 'I' for Inactive)
REMARK    1  A    between atoms: C_3  and  C_6
REMARK    2  A    between atoms: N_4  and  C_12
REMARK                            x       y       z     vdW  Elec       q    Type
REMARK                         _______ _______ _______ _____ _____    ______ ____
ROOT
ATOM      1  C   UNL     1       2.705   1.204  -4.626  0.00  0.00    +0.017 C 
ATOM      2  C   UNL     1       2.303  -0.119  -3.924  0.00  0.00    +0.025 C 
ATOM      3  C   UNL     1       1.046   0.281  -3.123  0.00  0.00    +0.088 C 
ATOM      4  N   UNL     1       1.098   1.741  -2.928  0.00  0.00    -0.298 NA
ATOM      5  C   UNL     1       2.338   2.254  -3.548  0.00  0.00    +0.085 C 
ATOM      6  C   UNL     1      -0.087   2.392  -3.501  0.00  0.00    +0.105 C 
ENDROOT
BRANCH   3   7
ATOM      7  C   UNL     1       1.046  -0.417  -1.787  0.00  0.00    -0.012 A 
ATOM      8  C   UNL     1       1.231   0.304  -0.622  0.00  0.00    +0.115 A 
ATOM      9  N   UNL     1       1.233  -0.299   0.551  0.00  0.00    -0.263 NA
ATOM     10  C   UNL     1       1.059  -1.601   0.661  0.00  0.00    +0.111 A 
ATOM     11  C   UNL     1       0.867  -2.387  -0.460  0.00  0.00    +0.020 A 
ATOM     12  C   UNL     1       0.854  -1.788  -1.710  0.00  0.00    +0.008 A 
ENDBRANCH   3   7
TORSDOF 1
ENDMDL
MODEL 9
REMARK VINA RESULT:    -5.462      2.916      4.328
REMARK INTER + INTRA:          -6.037
REMARK INTER:                  -5.866
REMARK INTRA:                  -0.171
REMARK UNBOUND:                -0.256
REMARK  Name = Nicotine.pdb
REMARK  2 active torsions:
REMARK  status: ('A' for Active; 'I' for Inactive)
REMARK    1  A    between atoms: C_3  and  C_6
REMARK    2  A    between atoms: N_4  and  C_12
REMARK                            x       y       z     vdW  Elec       q    Type
REMARK                         _______ _______ _______ _____ _____    ______ ____
ROOT
ATOM      1  C   UNL     1       1.067  -2.728   0.312  0.00  0.00    +0.017 C 
ATOM      2  C   UNL     1       1.832  -1.461  -0.154  0.00  0.00    +0.025 C 
ATOM      3  C   UNL     1       0.729  -0.618  -0.827  0.00  0.00    +0.088 C 
ATOM      4  N   UNL     1      -0.353  -1.541  -1.214  0.00  0.00    -0.298 NA
ATOM      5  C   UNL     1       0.043  -2.915  -0.835  0.00  0.00    +0.085 C 
ATOM      6  C   UNL     1      -1.621  -1.163  -0.579  0.00  0.00    +0.105 C 
ENDROOT
BRANCH   3   7
ATOM      7  C   UNL     1       1.282   0.068  -2.050  0.00  0.00    -0.012 A 
ATOM      8  C   UNL     1       1.640  -0.669  -3.163  0.00  0.00    +0.115 A 
ATOM      9  N   UNL     1       2.124  -0.077  -4.237  0.00  0.00    -0.263 NA
ATOM     10  C   UNL     1       2.287   1.230  -4.294  0.00  0.00    +0.111 A 
ATOM     11  C   UNL     1       1.951   2.032  -3.219  0.00  0.00    +0.020 A 
ATOM     12  C   UNL     1       1.434   1.446  -2.075  0.00  0.00    +0.008 A 
ENDBRANCH   3   7
TORSDOF 1
ENDMDL
MODEL 10
REMARK VINA RESULT:    -5.441      2.813      3.997
REMARK INTER + INTRA:          -6.015
REMARK INTER:                  -5.799
REMARK INTRA:                  -0.216
REMARK UNBOUND:                -0.256
REMARK  Name = Nicotine.pdb
REMARK  2 active torsions:
REMARK  status: ('A' for Active; 'I' for Inactive)
REMARK    1  A    between atoms: C_3  and  C_6
REMARK    2  A    between atoms: N_4  and  C_12
REMARK                            x       y       z     vdW  Elec       q    Type
REMARK                         _______ _______ _______ _____ _____    ______ ____
ROOT
ATOM      1  C   UNL     1       0.339   2.258  -3.492  0.00  0.00    +0.017 C 
ATOM      2  C   UNL     1       1.160   1.385  -2.507  0.00  0.00    +0.025 C 
ATOM      3  C   UNL     1       1.095  -0.017  -3.149  0.00  0.00    +0.088 C 
ATOM      4  N   UNL     1      -0.087  -0.040  -4.029  0.00  0.00    -0.298 NA
ATOM      5  C   UNL     1      -0.767   1.269  -3.939  0.00  0.00    +0.085 C 
ATOM      6  C   UNL     1       0.293  -0.344  -5.415  0.00  0.00    +0.105 C 
ENDROOT
BRANCH   3   7
ATOM      7  C   UNL     1       0.959  -1.066  -2.076  0.00  0.00    -0.012 A 
ATOM      8  C   UNL     1       0.222  -2.212  -2.309  0.00  0.00    +0.115 A 
ATOM      9  N   UNL     1       0.098  -3.135  -1.375  0.00  0.00    -0.263 NA
ATOM     10  C   UNL     1       0.666  -3.006  -0.193  0.00  0.00    +0.111 A 
ATOM     11  C   UNL     1       1.419  -1.887   0.112  0.00  0.00    +0.020 A 
ATOM     12  C   UNL     1       1.576  -0.898  -0.846  0.00  0.00    +0.008 A 
ENDBRANCH   3   7
TORSDOF 1
ENDMDL
