MODEL 1
REMARK VINA RESULT:    -3.077      0.000      0.000
REMARK INTER + INTRA:          -3.505
REMARK INTER:                  -3.256
REMARK INTRA:                  -0.249
REMARK UNBOUND:                -0.249
REMARK  Name = Nicotine.pdb
REMARK  2 active torsions:
REMARK  status: ('A' for Active; 'I' for Inactive)
REMARK    1  A    between atoms: C_3  and  C_6
REMARK    2  A    between atoms: N_4  and  C_12
REMARK                            x       y       z     vdW  Elec       q    Type
REMARK                         _______ _______ _______ _____ _____    ______ ____
ROOT
ATOM      1  C   UNL     1       3.769  -4.472  -4.518  0.00  0.00    +0.017 C 
ATOM      2  C   UNL     1       5.232  -3.987  -4.338  0.00  0.00    +0.025 C 
ATOM      3  C   UNL     1       5.487  -3.168  -5.621  0.00  0.00    +0.088 C 
ATOM      4  N   UNL     1       4.525  -3.635  -6.635  0.00  0.00    -0.298 NA
ATOM      5  C   UNL     1       3.707  -4.717  -6.047  0.00  0.00    +0.085 C 
ATOM      6  C   UNL     1       3.678  -2.531  -7.105  0.00  0.00    +0.105 C 
ENDROOT
BRANCH   3   7
ATOM      7  C   UNL     1       6.895  -3.399  -6.104  0.00  0.00    -0.012 A 
ATOM      8  C   UNL     1       7.641  -2.351  -6.612  0.00  0.00    +0.115 A 
ATOM      9  N   UNL     1       8.874  -2.544  -7.037  0.00  0.00    -0.263 NA
ATOM     10  C   UNL     1       9.443  -3.733  -6.996  0.00  0.00    +0.111 A 
ATOM     11  C   UNL     1       8.759  -4.828  -6.501  0.00  0.00    +0.020 A 
ATOM     12  C   UNL     1       7.462  -4.662  -6.041  0.00  0.00    +0.008 A 
ENDBRANCH   3   7
TORSDOF 1
ENDMDL
MODEL 2
REMARK VINA RESULT:    -2.934      4.162      5.914
REMARK INTER + INTRA:          -3.355
REMARK INTER:                  -3.140
REMARK INTRA:                  -0.214
REMARK UNBOUND:                -0.249
REMARK  Name = Nicotine.pdb
REMARK  2 active torsions:
REMARK  status: ('A' for Active; 'I' for Inactive)
REMARK    1  A    between atoms: C_3  and  C_6
REMARK    2  A    between atoms: N_4  and  C_12
REMARK                            x       y       z     vdW  Elec       q    Type
REMARK                         _______ _______ _______ _____ _____    ______ ____
ROOT
ATOM      1  C   UNL     1       4.435  -3.780   1.604  0.00  0.00    +0.017 C 
ATOM      2  C   UNL     1       4.292  -3.083   0.225  0.00  0.00    +0.025 C 
ATOM      3  C   UNL     1       3.518  -4.124  -0.611  0.00  0.00    +0.088 C 
ATOM      4  N   UNL     1       3.732  -5.439   0.020  0.00  0.00    -0.298 NA
ATOM      5  C   UNL     1       4.620  -5.261   1.189  0.00  0.00    +0.085 C 
ATOM      6  C   UNL     1       2.455  -6.047   0.416  0.00  0.00    +0.105 C 
ENDROOT
BRANCH   3   7
ATOM      7  C   UNL     1       4.043  -4.140  -2.023  0.00  0.00    -0.012 A 
ATOM      8  C   UNL     1       5.361  -3.813  -2.283  0.00  0.00    +0.115 A 
ATOM      9  N   UNL     1       5.828  -3.825  -3.516  0.00  0.00    -0.263 NA
ATOM     10  C   UNL     1       5.067  -4.146  -4.543  0.00  0.00    +0.111 A 
ATOM     11  C   UNL     1       3.739  -4.486  -4.361  0.00  0.00    +0.020 A 
ATOM     12  C   UNL     1       3.214  -4.490  -3.078  0.00  0.00    +0.008 A 
ENDBRANCH   3   7
TORSDOF 1
ENDMDL
MODEL 3
REMARK VINA RESULT:    -2.914      4.054      5.844
REMARK INTER + INTRA:          -3.333
REMARK INTER:                  -3.116
REMARK INTRA:                  -0.217
REMARK UNBOUND:                -0.249
REMARK  Name = Nicotine.pdb
REMARK  2 active torsions:
REMARK  status: ('A' for Active; 'I' for Inactive)
REMARK    1  A    between atoms: C_3  and  C_6
REMARK    2  A    between atoms: N_4  and  C_12
REMARK                            x       y       z     vdW  Elec       q    Type
REMARK                         _______ _______ _______ _____ _____    ______ ____
ROOT
ATOM      1  C   UNL     1       2.760  -2.775   0.908  0.00  0.00    +0.017 C 
ATOM      2  C   UNL     1       2.486  -3.214  -0.555  0.00  0.00    +0.025 C 
ATOM      3  C   UNL     1       3.523  -4.334  -0.782  0.00  0.00    +0.088 C 
ATOM      4  N   UNL     1       4.607  -4.131   0.197  0.00  0.00    -0.298 NA
ATOM      5  C   UNL     1       4.299  -2.926   0.996  0.00  0.00    +0.085 C 
ATOM      6  C   UNL     1       4.766  -5.309   1.059  0.00  0.00    +0.105 C 
ENDROOT
BRANCH   3   7
ATOM      7  C   UNL     1       4.072  -4.249  -2.182  0.00  0.00    -0.012 A 
ATOM      8  C   UNL     1       5.401  -3.933  -2.394  0.00  0.00    +0.115 A 
ATOM      9  N   UNL     1       5.889  -3.857  -3.617  0.00  0.00    -0.263 NA
ATOM     10  C   UNL     1       5.139  -4.076  -4.678  0.00  0.00    +0.111 A 
ATOM     11  C   UNL     1       3.801  -4.398  -4.544  0.00  0.00    +0.020 A 
ATOM     12  C   UNL     1       3.253  -4.493  -3.274  0.00  0.00    +0.008 A 
ENDBRANCH   3   7
TORSDOF 1
ENDMDL
MODEL 4
REMARK VINA RESULT:    -2.906      2.024      4.621
REMARK INTER + INTRA:          -3.325
REMARK INTER:                  -3.105
REMARK INTRA:                  -0.219
REMARK UNBOUND:                -0.249
REMARK  Name = Nicotine.pdb
REMARK  2 active torsions:
REMARK  status: ('A' for Active; 'I' for Inactive)
REMARK    1  A    between atoms: C_3  and  C_6
REMARK    2  A    between atoms: N_4  and  C_12
REMARK                            x       y       z     vdW  Elec       q    Type
REMARK                         _______ _______ _______ _____ _____    ______ ____
ROOT
ATOM      1  C   UNL     1       6.420  -4.858  -7.256  0.00  0.00    +0.017 C 
ATOM      2  C   UNL     1       5.101  -4.987  -6.450  0.00  0.00    +0.025 C 
ATOM      3  C   UNL     1       5.070  -3.683  -5.624  0.00  0.00    +0.088 C 
ATOM      4  N   UNL     1       6.456  -3.192  -5.530  0.00  0.00    -0.298 NA
ATOM      5  C   UNL     1       7.341  -4.144  -6.236  0.00  0.00    +0.085 C 
ATOM      6  C   UNL     1       6.577  -1.842  -6.094  0.00  0.00    +0.105 C 
ENDROOT
BRANCH   3   7
ATOM      7  C   UNL     1       4.528  -3.962  -4.246  0.00  0.00    -0.012 A 
ATOM      8  C   UNL     1       5.327  -3.784  -3.132  0.00  0.00    +0.115 A 
ATOM      9  N   UNL     1       4.861  -4.026  -1.922  0.00  0.00    -0.263 NA
ATOM     10  C   UNL     1       3.626  -4.444  -1.726  0.00  0.00    +0.111 A 
ATOM     11  C   UNL     1       2.769  -4.644  -2.792  0.00  0.00    +0.020 A 
ATOM     12  C   UNL     1       3.222  -4.395  -4.079  0.00  0.00    +0.008 A 
ENDBRANCH   3   7
TORSDOF 1
ENDMDL
MODEL 5
REMARK VINA RESULT:    -2.870      4.006      5.721
REMARK INTER + INTRA:          -3.286
REMARK INTER:                  -3.031
REMARK INTRA:                  -0.256
REMARK UNBOUND:                -0.249
REMARK  Name = Nicotine.pdb
REMARK  2 active torsions:
REMARK  status: ('A' for Active; 'I' for Inactive)
REMARK    1  A    between atoms: C_3  and  C_6
REMARK    2  A    between atoms: N_4  and  C_12
REMARK                            x       y       z     vdW  Elec       q    Type
REMARK                         _______ _______ _______ _____ _____    ______ ____
ROOT
ATOM      1  C   UNL     1       1.852  -4.458   0.734  0.00  0.00    +0.017 C 
ATOM      2  C   UNL     1       2.693  -5.191  -0.344  0.00  0.00    +0.025 C 
ATOM      3  C   UNL     1       3.874  -4.225  -0.579  0.00  0.00    +0.088 C 
ATOM      4  N   UNL     1       3.437  -2.886  -0.145  0.00  0.00    -0.298 NA
ATOM      5  C   UNL     1       2.036  -2.976   0.321  0.00  0.00    +0.085 C 
ATOM      6  C   UNL     1       4.311  -2.363   0.912  0.00  0.00    +0.105 C 
ENDROOT
BRANCH   3   7
ATOM      7  C   UNL     1       4.233  -4.200  -2.042  0.00  0.00    -0.012 A 
ATOM      8  C   UNL     1       5.513  -3.867  -2.442  0.00  0.00    +0.115 A 
ATOM      9  N   UNL     1       5.835  -3.843  -3.721  0.00  0.00    -0.263 NA
ATOM     10  C   UNL     1       4.959  -4.132  -4.662  0.00  0.00    +0.111 A 
ATOM     11  C   UNL     1       3.659  -4.475  -4.338  0.00  0.00    +0.020 A 
ATOM     12  C   UNL     1       3.285  -4.516  -3.003  0.00  0.00    +0.008 A 
ENDBRANCH   3   7
TORSDOF 1
ENDMDL
MODEL 6
REMARK VINA RESULT:    -2.721      3.059      4.904
REMARK INTER + INTRA:          -3.129
REMARK INTER:                  -2.893
REMARK INTRA:                  -0.236
REMARK UNBOUND:                -0.249
REMARK  Name = Nicotine.pdb
REMARK  2 active torsions:
REMARK  status: ('A' for Active; 'I' for Inactive)
REMARK    1  A    between atoms: C_3  and  C_6
REMARK    2  A    between atoms: N_4  and  C_12
REMARK                            x       y       z     vdW  Elec       q    Type
REMARK                         _______ _______ _______ _____ _____    ______ ____
ROOT
ATOM      1  C   UNL     1       4.269  -3.612   0.319  0.00  0.00    +0.017 C 
ATOM      2  C   UNL     1       4.715  -4.470  -0.894  0.00  0.00    +0.025 C 
ATOM      3  C   UNL     1       5.078  -3.409  -1.954  0.00  0.00    +0.088 C 
ATOM      4  N   UNL     1       4.365  -2.171  -1.595  0.00  0.00    -0.298 NA
ATOM      5  C   UNL     1       3.561  -2.425  -0.381  0.00  0.00    +0.085 C 
ATOM      6  C   UNL     1       5.305  -1.063  -1.382  0.00  0.00    +0.105 C 
ENDROOT
BRANCH   3   7
ATOM      7  C   UNL     1       4.641  -3.878  -3.318  0.00  0.00    -0.012 A 
ATOM      8  C   UNL     1       5.514  -3.824  -4.388  0.00  0.00    +0.115 A 
ATOM      9  N   UNL     1       5.140  -4.232  -5.586  0.00  0.00    -0.263 NA
ATOM     10  C   UNL     1       3.929  -4.703  -5.810  0.00  0.00    +0.111 A 
ATOM     11  C   UNL     1       3.002  -4.787  -4.788  0.00  0.00    +0.020 A 
ATOM     12  C   UNL     1       3.361  -4.373  -3.515  0.00  0.00    +0.008 A 
ENDBRANCH   3   7
TORSDOF 1
ENDMDL
MODEL 7
REMARK VINA RESULT:    -2.646      2.992      5.437
REMARK INTER + INTRA:          -3.049
REMARK INTER:                  -2.836
REMARK INTRA:                  -0.214
REMARK UNBOUND:                -0.249
REMARK  Name = Nicotine.pdb
REMARK  2 active torsions:
REMARK  status: ('A' for Active; 'I' for Inactive)
REMARK    1  A    between atoms: C_3  and  C_6
REMARK    2  A    between atoms: N_4  and  C_12
REMARK                            x       y       z     vdW  Elec       q    Type
REMARK                         _______ _______ _______ _____ _____    ______ ____
ROOT
ATOM      1  C   UNL     1       4.678  -4.378  -6.109  0.00  0.00    +0.017 C 
ATOM      2  C   UNL     1       3.680  -4.709  -4.968  0.00  0.00    +0.025 C 
ATOM      3  C   UNL     1       3.902  -3.554  -3.968  0.00  0.00    +0.088 C 
ATOM      4  N   UNL     1       5.244  -3.004  -4.226  0.00  0.00    -0.298 NA
ATOM      5  C   UNL     1       5.869  -3.779  -5.319  0.00  0.00    +0.085 C 
ATOM      6  C   UNL     1       5.172  -1.577  -4.567  0.00  0.00    +0.105 C 
ENDROOT
BRANCH   3   7
ATOM      7  C   UNL     1       3.824  -4.076  -2.556  0.00  0.00    -0.012 A 
ATOM      8  C   UNL     1       2.656  -4.646  -2.085  0.00  0.00    +0.115 A 
ATOM      9  N   UNL     1       2.579  -5.106  -0.852  0.00  0.00    -0.263 NA
ATOM     10  C   UNL     1       3.602  -5.041  -0.023  0.00  0.00    +0.111 A 
ATOM     11  C   UNL     1       4.803  -4.485  -0.424  0.00  0.00    +0.020 A 
ATOM     12  C   UNL     1       4.923  -3.997  -1.715  0.00  0.00    +0.008 A 
ENDBRANCH   3   7
TORSDOF 1
ENDMDL
MODEL 8
REMARK VINA RESULT:    -2.553      1.456      2.525
REMARK INTER + INTRA:          -2.951
REMARK INTER:                  -2.699
REMARK INTRA:                  -0.252
REMARK UNBOUND:                -0.249
REMARK  Name = Nicotine.pdb
REMARK  2 active torsions:
REMARK  status: ('A' for Active; 'I' for Inactive)
REMARK    1  A    between atoms: C_3  and  C_6
REMARK    2  A    between atoms: N_4  and  C_12
REMARK                            x       y       z     vdW  Elec       q    Type
REMARK                         _______ _______ _______ _____ _____    ______ ____
ROOT
ATOM      1  C   UNL     1       3.799  -1.805  -5.382  0.00  0.00    +0.017 C 
ATOM      2  C   UNL     1       4.691  -2.503  -6.442  0.00  0.00    +0.025 C 
ATOM      3  C   UNL     1       5.522  -3.494  -5.599  0.00  0.00    +0.088 C 
ATOM      4  N   UNL     1       5.525  -2.992  -4.213  0.00  0.00    -0.298 NA
ATOM      5  C   UNL     1       4.759  -1.729  -4.168  0.00  0.00    +0.085 C 
ATOM      6  C   UNL     1       4.959  -3.986  -3.292  0.00  0.00    +0.105 C 
ENDROOT
BRANCH   3   7
ATOM      7  C   UNL     1       6.932  -3.558  -6.126  0.00  0.00    -0.012 A 
ATOM      8  C   UNL     1       7.630  -4.751  -6.113  0.00  0.00    +0.115 A 
ATOM      9  N   UNL     1       8.864  -4.816  -6.573  0.00  0.00    -0.263 NA
ATOM     10  C   UNL     1       9.479  -3.756  -7.059  0.00  0.00    +0.111 A 
ATOM     11  C   UNL     1       8.845  -2.529  -7.105  0.00  0.00    +0.020 A 
ATOM     12  C   UNL     1       7.545  -2.423  -6.635  0.00  0.00    +0.008 A 
ENDBRANCH   3   7
TORSDOF 1
ENDMDL
MODEL 9
REMARK VINA RESULT:    -2.550      2.893      4.405
REMARK INTER + INTRA:          -2.948
REMARK INTER:                  -2.752
REMARK INTRA:                  -0.196
REMARK UNBOUND:                -0.249
REMARK  Name = Nicotine.pdb
REMARK  2 active torsions:
REMARK  status: ('A' for Active; 'I' for Inactive)
REMARK    1  A    between atoms: C_3  and  C_6
REMARK    2  A    between atoms: N_4  and  C_12
REMARK                            x       y       z     vdW  Elec       q    Type
REMARK                         _______ _______ _______ _____ _____    ______ ____
ROOT
ATOM      1  C   UNL     1       1.484  -5.659  -1.068  0.00  0.00    +0.017 C 
ATOM      2  C   UNL     1       2.791  -4.879  -1.366  0.00  0.00    +0.025 C 
ATOM      3  C   UNL     1       2.471  -4.158  -2.693  0.00  0.00    +0.088 C 
ATOM      4  N   UNL     1       1.379  -4.905  -3.342  0.00  0.00    -0.298 NA
ATOM      5  C   UNL     1       1.030  -6.063  -2.493  0.00  0.00    +0.085 C 
ATOM      6  C   UNL     1       0.210  -4.043  -3.565  0.00  0.00    +0.105 C 
ENDROOT
BRANCH   3   7
ATOM      7  C   UNL     1       3.688  -4.152  -3.580  0.00  0.00    -0.012 A 
ATOM      8  C   UNL     1       4.935  -3.868  -3.054  0.00  0.00    +0.115 A 
ATOM      9  N   UNL     1       6.006  -3.861  -3.824  0.00  0.00    -0.263 NA
ATOM     10  C   UNL     1       5.934  -4.121  -5.115  0.00  0.00    +0.111 A 
ATOM     11  C   UNL     1       4.721  -4.414  -5.711  0.00  0.00    +0.020 A 
ATOM     12  C   UNL     1       3.574  -4.436  -4.932  0.00  0.00    +0.008 A 
ENDBRANCH   3   7
TORSDOF 1
ENDMDL
MODEL 10
REMARK VINA RESULT:    -2.508      2.515      4.579
REMARK INTER + INTRA:          -2.903
REMARK INTER:                  -2.686
REMARK INTRA:                  -0.217
REMARK UNBOUND:                -0.249
REMARK  Name = Nicotine.pdb
REMARK  2 active torsions:
REMARK  status: ('A' for Active; 'I' for Inactive)
REMARK    1  A    between atoms: C_3  and  C_6
REMARK    2  A    between atoms: N_4  and  C_12
REMARK                            x       y       z     vdW  Elec       q    Type
REMARK                         _______ _______ _______ _____ _____    ______ ____
ROOT
ATOM      1  C   UNL     1      10.241   0.532  -5.892  0.00  0.00    +0.017 C 
ATOM      2  C   UNL     1      10.348  -0.881  -6.525  0.00  0.00    +0.025 C 
ATOM      3  C   UNL     1       8.928  -1.120  -7.081  0.00  0.00    +0.088 C 
ATOM      4  N   UNL     1       8.012  -0.236  -6.337  0.00  0.00    -0.298 NA
ATOM      5  C   UNL     1       8.796   0.517  -5.334  0.00  0.00    +0.085 C 
ATOM      6  C   UNL     1       7.306   0.676  -7.246  0.00  0.00    +0.105 C 
ENDROOT
BRANCH   3   7
ATOM      7  C   UNL     1       8.532  -2.559  -6.875  0.00  0.00    -0.012 A 
ATOM      8  C   UNL     1       7.247  -2.882  -6.482  0.00  0.00    +0.115 A 
ATOM      9  N   UNL     1       6.893  -4.139  -6.300  0.00  0.00    -0.263 NA
ATOM     10  C   UNL     1       7.741  -5.132  -6.482  0.00  0.00    +0.111 A 
ATOM     11  C   UNL     1       9.044  -4.886  -6.875  0.00  0.00    +0.020 A 
ATOM     12  C   UNL     1       9.451  -3.577  -7.081  0.00  0.00    +0.008 A 
ENDBRANCH   3   7
TORSDOF 1
ENDMDL
