MODEL 1
REMARK VINA RESULT:    -3.385      0.000      0.000
REMARK INTER + INTRA:          -3.768
REMARK INTER:                  -3.583
REMARK INTRA:                  -0.185
REMARK UNBOUND:                -0.185
REMARK  Name = Nicotine.pdb
REMARK  2 active torsions:
REMARK  status: ('A' for Active; 'I' for Inactive)
REMARK    1  A    between atoms: C_3  and  C_6
REMARK    2  A    between atoms: N_4  and  C_12
REMARK                            x       y       z     vdW  Elec       q    Type
REMARK                         _______ _______ _______ _____ _____    ______ ____
ROOT
ATOM      1  C   UNL     1       0.106   4.472  -1.427  0.00  0.00    +0.017 C 
ATOM      2  C   UNL     1      -0.528   4.898  -2.778  0.00  0.00    +0.025 C 
ATOM      3  C   UNL     1      -1.496   6.028  -2.366  0.00  0.00    +0.088 C 
ATOM      4  N   UNL     1      -1.801   5.843  -0.936  0.00  0.00    -0.298 NA
ATOM      5  C   UNL     1      -1.088   4.640  -0.454  0.00  0.00    +0.085 C 
ATOM      6  C   UNL     1      -1.419   7.028  -0.157  0.00  0.00    +0.105 C 
ENDROOT
BRANCH   3   7
ATOM      7  C   UNL     1      -2.762   5.939  -3.177  0.00  0.00    -0.012 A 
ATOM      8  C   UNL     1      -3.504   4.773  -3.191  0.00  0.00    +0.115 A 
ATOM      9  N   UNL     1      -4.614   4.687  -3.898  0.00  0.00    -0.263 NA
ATOM     10  C   UNL     1      -5.058   5.700  -4.615  0.00  0.00    +0.111 A 
ATOM     11  C   UNL     1      -4.371   6.899  -4.649  0.00  0.00    +0.020 A 
ATOM     12  C   UNL     1      -3.202   7.028  -3.914  0.00  0.00    +0.008 A 
ENDBRANCH   3   7
TORSDOF 1
ENDMDL
MODEL 2
REMARK VINA RESULT:    -3.028      0.856      1.407
REMARK INTER + INTRA:          -3.390
REMARK INTER:                  -3.195
REMARK INTRA:                  -0.195
REMARK UNBOUND:                -0.185
REMARK  Name = Nicotine.pdb
REMARK  2 active torsions:
REMARK  status: ('A' for Active; 'I' for Inactive)
REMARK    1  A    between atoms: C_3  and  C_6
REMARK    2  A    between atoms: N_4  and  C_12
REMARK                            x       y       z     vdW  Elec       q    Type
REMARK                         _______ _______ _______ _____ _____    ______ ____
ROOT
ATOM      1  C   UNL     1       0.421   4.655  -1.562  0.00  0.00    +0.017 C 
ATOM      2  C   UNL     1      -0.263   5.278  -2.808  0.00  0.00    +0.025 C 
ATOM      3  C   UNL     1      -1.429   6.084  -2.197  0.00  0.00    +0.088 C 
ATOM      4  N   UNL     1      -1.713   5.506  -0.872  0.00  0.00    -0.298 NA
ATOM      5  C   UNL     1      -0.797   4.368  -0.648  0.00  0.00    +0.085 C 
ATOM      6  C   UNL     1      -1.569   6.514   0.186  0.00  0.00    +0.105 C 
ENDROOT
BRANCH   3   7
ATOM      7  C   UNL     1      -2.646   5.973  -3.079  0.00  0.00    -0.012 A 
ATOM      8  C   UNL     1      -3.009   7.021  -3.904  0.00  0.00    +0.115 A 
ATOM      9  N   UNL     1      -4.072   6.932  -4.679  0.00  0.00    -0.263 NA
ATOM     10  C   UNL     1      -4.827   5.851  -4.698  0.00  0.00    +0.111 A 
ATOM     11  C   UNL     1      -4.526   4.763  -3.900  0.00  0.00    +0.020 A 
ATOM     12  C   UNL     1      -3.412   4.818  -3.077  0.00  0.00    +0.008 A 
ENDBRANCH   3   7
TORSDOF 1
ENDMDL
MODEL 3
REMARK VINA RESULT:    -2.411      1.223      1.985
REMARK INTER + INTRA:          -2.737
REMARK INTER:                  -2.521
REMARK INTRA:                  -0.216
REMARK UNBOUND:                -0.185
REMARK  Name = Nicotine.pdb
REMARK  2 active torsions:
REMARK  status: ('A' for Active; 'I' for Inactive)
REMARK    1  A    between atoms: C_3  and  C_6
REMARK    2  A    between atoms: N_4  and  C_12
REMARK                            x       y       z     vdW  Elec       q    Type
REMARK                         _______ _______ _______ _____ _____    ______ ____
ROOT
ATOM      1  C   UNL     1      -1.460   5.286   0.228  0.00  0.00    +0.017 C 
ATOM      2  C   UNL     1      -2.153   4.613  -0.986  0.00  0.00    +0.025 C 
ATOM      3  C   UNL     1      -1.654   5.453  -2.181  0.00  0.00    +0.088 C 
ATOM      4  N   UNL     1      -1.235   6.763  -1.649  0.00  0.00    -0.298 NA
ATOM      5  C   UNL     1      -1.476   6.778  -0.191  0.00  0.00    +0.085 C 
ATOM      6  C   UNL     1       0.177   7.028  -1.953  0.00  0.00    +0.105 C 
ENDROOT
BRANCH   3   7
ATOM      7  C   UNL     1      -2.767   5.635  -3.180  0.00  0.00    -0.012 A 
ATOM      8  C   UNL     1      -2.924   6.839  -3.840  0.00  0.00    +0.115 A 
ATOM      9  N   UNL     1      -3.895   7.007  -4.716  0.00  0.00    -0.263 NA
ATOM     10  C   UNL     1      -4.749   6.043  -4.996  0.00  0.00    +0.111 A 
ATOM     11  C   UNL     1      -4.655   4.811  -4.376  0.00  0.00    +0.020 A 
ATOM     12  C   UNL     1      -3.643   4.596  -3.453  0.00  0.00    +0.008 A 
ENDBRANCH   3   7
TORSDOF 1
ENDMDL
