MODEL 1
REMARK VINA RESULT:    -5.588      0.000      0.000
REMARK INTER + INTRA:          -6.131
REMARK INTER:                  -5.915
REMARK INTRA:                  -0.216
REMARK UNBOUND:                -0.216
REMARK  Name = Nicotine.pdb
REMARK  2 active torsions:
REMARK  status: ('A' for Active; 'I' for Inactive)
REMARK    1  A    between atoms: C_3  and  C_6
REMARK    2  A    between atoms: N_4  and  C_12
REMARK                            x       y       z     vdW  Elec       q    Type
REMARK                         _______ _______ _______ _____ _____    ______ ____
ROOT
ATOM      1  C   UNL     1       2.947   2.151  -0.074  0.00  0.00    +0.017 C 
ATOM      2  C   UNL     1       1.460   1.828   0.229  0.00  0.00    +0.025 C 
ATOM      3  C   UNL     1       0.793   3.220   0.220  0.00  0.00    +0.088 C 
ATOM      4  N   UNL     1       1.851   4.213   0.477  0.00  0.00    -0.298 NA
ATOM      5  C   UNL     1       3.131   3.498   0.668  0.00  0.00    +0.085 C 
ATOM      6  C   UNL     1       1.946   5.179  -0.626  0.00  0.00    +0.105 C 
ENDROOT
BRANCH   3   7
ATOM      7  C   UNL     1      -0.255   3.293   1.300  0.00  0.00    -0.012 A 
ATOM      8  C   UNL     1      -0.589   4.508   1.868  0.00  0.00    +0.115 A 
ATOM      9  N   UNL     1      -1.505   4.581   2.814  0.00  0.00    -0.263 NA
ATOM     10  C   UNL     1      -2.134   3.510   3.254  0.00  0.00    +0.111 A 
ATOM     11  C   UNL     1      -1.852   2.260   2.734  0.00  0.00    +0.020 A 
ATOM     12  C   UNL     1      -0.899   2.145   1.734  0.00  0.00    +0.008 A 
ENDBRANCH   3   7
TORSDOF 1
ENDMDL
MODEL 2
REMARK VINA RESULT:    -5.583      1.157      4.352
REMARK INTER + INTRA:          -6.125
REMARK INTER:                  -5.904
REMARK INTRA:                  -0.221
REMARK UNBOUND:                -0.216
REMARK  Name = Nicotine.pdb
REMARK  2 active torsions:
REMARK  status: ('A' for Active; 'I' for Inactive)
REMARK    1  A    between atoms: C_3  and  C_6
REMARK    2  A    between atoms: N_4  and  C_12
REMARK                            x       y       z     vdW  Elec       q    Type
REMARK                         _______ _______ _______ _____ _____    ______ ____
ROOT
ATOM      1  C   UNL     1      -2.642   1.818   1.912  0.00  0.00    +0.017 C 
ATOM      2  C   UNL     1      -1.102   1.786   1.723  0.00  0.00    +0.025 C 
ATOM      3  C   UNL     1      -0.658   3.163   2.261  0.00  0.00    +0.088 C 
ATOM      4  N   UNL     1      -1.828   4.057   2.194  0.00  0.00    -0.298 NA
ATOM      5  C   UNL     1      -2.963   3.304   1.617  0.00  0.00    +0.085 C 
ATOM      6  C   UNL     1      -2.166   4.584   3.522  0.00  0.00    +0.105 C 
ENDROOT
BRANCH   3   7
ATOM      7  C   UNL     1       0.457   3.711   1.409  0.00  0.00    -0.012 A 
ATOM      8  C   UNL     1       0.288   4.892   0.711  0.00  0.00    +0.115 A 
ATOM      9  N   UNL     1       1.259   5.379  -0.037  0.00  0.00    -0.263 NA
ATOM     10  C   UNL     1       2.420   4.765  -0.150  0.00  0.00    +0.111 A 
ATOM     11  C   UNL     1       2.663   3.580   0.519  0.00  0.00    +0.020 A 
ATOM     12  C   UNL     1       1.667   3.041   1.319  0.00  0.00    +0.008 A 
ENDBRANCH   3   7
TORSDOF 1
ENDMDL
MODEL 3
REMARK VINA RESULT:    -5.554      1.958      4.864
REMARK INTER + INTRA:          -6.094
REMARK INTER:                  -5.879
REMARK INTRA:                  -0.215
REMARK UNBOUND:                -0.216
REMARK  Name = Nicotine.pdb
REMARK  2 active torsions:
REMARK  status: ('A' for Active; 'I' for Inactive)
REMARK    1  A    between atoms: C_3  and  C_6
REMARK    2  A    between atoms: N_4  and  C_12
REMARK                            x       y       z     vdW  Elec       q    Type
REMARK                         _______ _______ _______ _____ _____    ______ ____
ROOT
ATOM      1  C   UNL     1      -4.979   2.752   1.360  0.00  0.00    +0.017 C 
ATOM      2  C   UNL     1      -3.589   2.107   1.599  0.00  0.00    +0.025 C 
ATOM      3  C   UNL     1      -2.815   3.216   2.343  0.00  0.00    +0.088 C 
ATOM      4  N   UNL     1      -3.473   4.496   2.027  0.00  0.00    -0.298 NA
ATOM      5  C   UNL     1      -4.598   4.231   1.104  0.00  0.00    +0.085 C 
ATOM      6  C   UNL     1      -3.939   5.165   3.248  0.00  0.00    +0.105 C 
ENDROOT
BRANCH   3   7
ATOM      7  C   UNL     1      -1.383   3.244   1.875  0.00  0.00    -0.012 A 
ATOM      8  C   UNL     1      -0.660   4.422   1.908  0.00  0.00    +0.115 A 
ATOM      9  N   UNL     1       0.594   4.456   1.500  0.00  0.00    -0.263 NA
ATOM     10  C   UNL     1       1.204   3.379   1.048  0.00  0.00    +0.111 A 
ATOM     11  C   UNL     1       0.545   2.165   0.986  0.00  0.00    +0.020 A 
ATOM     12  C   UNL     1      -0.772   2.090   1.411  0.00  0.00    +0.008 A 
ENDBRANCH   3   7
TORSDOF 1
ENDMDL
MODEL 4
REMARK VINA RESULT:    -5.552      1.578      2.297
REMARK INTER + INTRA:          -6.092
REMARK INTER:                  -5.886
REMARK INTRA:                  -0.206
REMARK UNBOUND:                -0.216
REMARK  Name = Nicotine.pdb
REMARK  2 active torsions:
REMARK  status: ('A' for Active; 'I' for Inactive)
REMARK    1  A    between atoms: C_3  and  C_6
REMARK    2  A    between atoms: N_4  and  C_12
REMARK                            x       y       z     vdW  Elec       q    Type
REMARK                         _______ _______ _______ _____ _____    ______ ____
ROOT
ATOM      1  C   UNL     1       0.893   1.998   0.830  0.00  0.00    +0.017 C 
ATOM      2  C   UNL     1      -0.616   2.284   1.053  0.00  0.00    +0.025 C 
ATOM      3  C   UNL     1      -0.719   3.806   0.818  0.00  0.00    +0.088 C 
ATOM      4  N   UNL     1       0.625   4.373   1.032  0.00  0.00    -0.298 NA
ATOM      5  C   UNL     1       1.543   3.278   1.412  0.00  0.00    +0.085 C 
ATOM      6  C   UNL     1       1.102   5.067  -0.171  0.00  0.00    +0.105 C 
ENDROOT
BRANCH   3   7
ATOM      7  C   UNL     1      -1.694   4.411   1.794  0.00  0.00    -0.012 A 
ATOM      8  C   UNL     1      -1.696   4.011   3.118  0.00  0.00    +0.115 A 
ATOM      9  N   UNL     1      -2.546   4.536   3.979  0.00  0.00    -0.263 NA
ATOM     10  C   UNL     1      -3.421   5.453   3.618  0.00  0.00    +0.111 A 
ATOM     11  C   UNL     1      -3.477   5.903   2.312  0.00  0.00    +0.020 A 
ATOM     12  C   UNL     1      -2.595   5.378   1.379  0.00  0.00    +0.008 A 
ENDBRANCH   3   7
TORSDOF 1
ENDMDL
MODEL 5
REMARK VINA RESULT:    -5.432      1.820      4.301
REMARK INTER + INTRA:          -5.966
REMARK INTER:                  -5.710
REMARK INTRA:                  -0.256
REMARK UNBOUND:                -0.216
REMARK  Name = Nicotine.pdb
REMARK  2 active torsions:
REMARK  status: ('A' for Active; 'I' for Inactive)
REMARK    1  A    between atoms: C_3  and  C_6
REMARK    2  A    between atoms: N_4  and  C_12
REMARK                            x       y       z     vdW  Elec       q    Type
REMARK                         _______ _______ _______ _____ _____    ______ ____
ROOT
ATOM      1  C   UNL     1      -3.523   1.763   1.315  0.00  0.00    +0.017 C 
ATOM      2  C   UNL     1      -2.135   1.904   1.993  0.00  0.00    +0.025 C 
ATOM      3  C   UNL     1      -1.545   3.161   1.318  0.00  0.00    +0.088 C 
ATOM      4  N   UNL     1      -2.243   3.335   0.032  0.00  0.00    -0.298 NA
ATOM      5  C   UNL     1      -3.215   2.232  -0.129  0.00  0.00    +0.085 C 
ATOM      6  C   UNL     1      -2.912   4.641  -0.033  0.00  0.00    +0.105 C 
ENDROOT
BRANCH   3   7
ATOM      7  C   UNL     1      -0.069   2.971   1.081  0.00  0.00    -0.012 A 
ATOM      8  C   UNL     1       0.768   4.065   0.972  0.00  0.00    +0.115 A 
ATOM      9  N   UNL     1       2.061   3.908   0.765  0.00  0.00    -0.263 NA
ATOM     10  C   UNL     1       2.604   2.711   0.653  0.00  0.00    +0.111 A 
ATOM     11  C   UNL     1       1.830   1.571   0.751  0.00  0.00    +0.020 A 
ATOM     12  C   UNL     1       0.467   1.697   0.974  0.00  0.00    +0.008 A 
ENDBRANCH   3   7
TORSDOF 1
ENDMDL
MODEL 6
REMARK VINA RESULT:    -5.399      1.473      4.495
REMARK INTER + INTRA:          -5.930
REMARK INTER:                  -5.721
REMARK INTRA:                  -0.210
REMARK UNBOUND:                -0.216
REMARK  Name = Nicotine.pdb
REMARK  2 active torsions:
REMARK  status: ('A' for Active; 'I' for Inactive)
REMARK    1  A    between atoms: C_3  and  C_6
REMARK    2  A    between atoms: N_4  and  C_12
REMARK                            x       y       z     vdW  Elec       q    Type
REMARK                         _______ _______ _______ _____ _____    ______ ____
ROOT
ATOM      1  C   UNL     1      -1.805   2.761   2.892  0.00  0.00    +0.017 C 
ATOM      2  C   UNL     1      -0.737   3.862   2.654  0.00  0.00    +0.025 C 
ATOM      3  C   UNL     1      -0.694   3.976   1.115  0.00  0.00    +0.088 C 
ATOM      4  N   UNL     1      -1.213   2.710   0.568  0.00  0.00    -0.298 NA
ATOM      5  C   UNL     1      -1.549   1.813   1.694  0.00  0.00    +0.085 C 
ATOM      6  C   UNL     1      -2.385   2.945  -0.286  0.00  0.00    +0.105 C 
ENDROOT
BRANCH   3   7
ATOM      7  C   UNL     1       0.725   4.191   0.656  0.00  0.00    -0.012 A 
ATOM      8  C   UNL     1       1.769   3.538   1.284  0.00  0.00    +0.115 A 
ATOM      9  N   UNL     1       3.014   3.721   0.888  0.00  0.00    -0.263 NA
ATOM     10  C   UNL     1       3.312   4.526  -0.112  0.00  0.00    +0.111 A 
ATOM     11  C   UNL     1       2.321   5.213  -0.787  0.00  0.00    +0.020 A 
ATOM     12  C   UNL     1       0.999   5.042  -0.404  0.00  0.00    +0.008 A 
ENDBRANCH   3   7
TORSDOF 1
ENDMDL
MODEL 7
REMARK VINA RESULT:    -5.325      1.371      4.727
REMARK INTER + INTRA:          -5.853
REMARK INTER:                  -5.611
REMARK INTRA:                  -0.241
REMARK UNBOUND:                -0.216
REMARK  Name = Nicotine.pdb
REMARK  2 active torsions:
REMARK  status: ('A' for Active; 'I' for Inactive)
REMARK    1  A    between atoms: C_3  and  C_6
REMARK    2  A    between atoms: N_4  and  C_12
REMARK                            x       y       z     vdW  Elec       q    Type
REMARK                         _______ _______ _______ _____ _____    ______ ____
ROOT
ATOM      1  C   UNL     1      -2.630   5.068   0.846  0.00  0.00    +0.017 C 
ATOM      2  C   UNL     1      -1.461   4.714  -0.109  0.00  0.00    +0.025 C 
ATOM      3  C   UNL     1      -0.556   3.820   0.765  0.00  0.00    +0.088 C 
ATOM      4  N   UNL     1      -0.866   4.129   2.173  0.00  0.00    -0.298 NA
ATOM      5  C   UNL     1      -1.898   5.187   2.206  0.00  0.00    +0.085 C 
ATOM      6  C   UNL     1      -1.318   2.929   2.889  0.00  0.00    +0.105 C 
ENDROOT
BRANCH   3   7
ATOM      7  C   UNL     1       0.892   4.121   0.480  0.00  0.00    -0.012 A 
ATOM      8  C   UNL     1       1.892   3.419   1.126  0.00  0.00    +0.115 A 
ATOM      9  N   UNL     1       3.163   3.676   0.882  0.00  0.00    -0.263 NA
ATOM     10  C   UNL     1       3.529   4.604   0.020  0.00  0.00    +0.111 A 
ATOM     11  C   UNL     1       2.585   5.346  -0.664  0.00  0.00    +0.020 A 
ATOM     12  C   UNL     1       1.239   5.101  -0.438  0.00  0.00    +0.008 A 
ENDBRANCH   3   7
TORSDOF 1
ENDMDL
MODEL 8
REMARK VINA RESULT:    -5.293      2.732      4.998
REMARK INTER + INTRA:          -5.818
REMARK INTER:                  -5.594
REMARK INTRA:                  -0.224
REMARK UNBOUND:                -0.216
REMARK  Name = Nicotine.pdb
REMARK  2 active torsions:
REMARK  status: ('A' for Active; 'I' for Inactive)
REMARK    1  A    between atoms: C_3  and  C_6
REMARK    2  A    between atoms: N_4  and  C_12
REMARK                            x       y       z     vdW  Elec       q    Type
REMARK                         _______ _______ _______ _____ _____    ______ ____
ROOT
ATOM      1  C   UNL     1      -4.176   3.022  -1.533  0.00  0.00    +0.017 C 
ATOM      2  C   UNL     1      -2.648   2.822  -1.717  0.00  0.00    +0.025 C 
ATOM      3  C   UNL     1      -2.087   3.126  -0.311  0.00  0.00    +0.088 C 
ATOM      4  N   UNL     1      -3.084   3.957   0.387  0.00  0.00    -0.298 NA
ATOM      5  C   UNL     1      -4.219   4.201  -0.529  0.00  0.00    +0.085 C 
ATOM      6  C   UNL     1      -3.536   3.310   1.625  0.00  0.00    +0.105 C 
ENDROOT
BRANCH   3   7
ATOM      7  C   UNL     1      -0.786   3.875  -0.430  0.00  0.00    -0.012 A 
ATOM      8  C   UNL     1      -0.225   4.482   0.678  0.00  0.00    +0.115 A 
ATOM      9  N   UNL     1       0.914   5.139   0.583  0.00  0.00    -0.263 NA
ATOM     10  C   UNL     1       1.560   5.245  -0.562  0.00  0.00    +0.111 A 
ATOM     11  C   UNL     1       1.061   4.663  -1.712  0.00  0.00    +0.020 A 
ATOM     12  C   UNL     1      -0.132   3.960  -1.650  0.00  0.00    +0.008 A 
ENDBRANCH   3   7
TORSDOF 1
ENDMDL
MODEL 9
REMARK VINA RESULT:    -5.267      1.878      2.371
REMARK INTER + INTRA:          -5.791
REMARK INTER:                  -5.546
REMARK INTRA:                  -0.245
REMARK UNBOUND:                -0.216
REMARK  Name = Nicotine.pdb
REMARK  2 active torsions:
REMARK  status: ('A' for Active; 'I' for Inactive)
REMARK    1  A    between atoms: C_3  and  C_6
REMARK    2  A    between atoms: N_4  and  C_12
REMARK                            x       y       z     vdW  Elec       q    Type
REMARK                         _______ _______ _______ _____ _____    ______ ____
ROOT
ATOM      1  C   UNL     1      -0.323   3.584  -3.034  0.00  0.00    +0.017 C 
ATOM      2  C   UNL     1      -1.365   3.674  -1.887  0.00  0.00    +0.025 C 
ATOM      3  C   UNL     1      -0.523   4.172  -0.693  0.00  0.00    +0.088 C 
ATOM      4  N   UNL     1       0.882   3.828  -0.974  0.00  0.00    -0.298 NA
ATOM      5  C   UNL     1       0.943   3.120  -2.271  0.00  0.00    +0.085 C 
ATOM      6  C   UNL     1       1.726   5.030  -0.989  0.00  0.00    +0.105 C 
ENDROOT
BRANCH   3   7
ATOM      7  C   UNL     1      -0.976   3.491   0.572  0.00  0.00    -0.012 A 
ATOM      8  C   UNL     1      -0.423   3.839   1.790  0.00  0.00    +0.115 A 
ATOM      9  N   UNL     1      -0.814   3.248   2.903  0.00  0.00    -0.263 NA
ATOM     10  C   UNL     1      -1.739   2.309   2.900  0.00  0.00    +0.111 A 
ATOM     11  C   UNL     1      -2.338   1.908   1.720  0.00  0.00    +0.020 A 
ATOM     12  C   UNL     1      -1.956   2.511   0.531  0.00  0.00    +0.008 A 
ENDBRANCH   3   7
TORSDOF 1
ENDMDL
MODEL 10
REMARK VINA RESULT:    -5.237      0.993      1.857
REMARK INTER + INTRA:          -5.759
REMARK INTER:                  -5.553
REMARK INTRA:                  -0.206
REMARK UNBOUND:                -0.216
REMARK  Name = Nicotine.pdb
REMARK  2 active torsions:
REMARK  status: ('A' for Active; 'I' for Inactive)
REMARK    1  A    between atoms: C_3  and  C_6
REMARK    2  A    between atoms: N_4  and  C_12
REMARK                            x       y       z     vdW  Elec       q    Type
REMARK                         _______ _______ _______ _____ _____    ______ ____
ROOT
ATOM      1  C   UNL     1       1.768   4.087  -1.481  0.00  0.00    +0.017 C 
ATOM      2  C   UNL     1       0.943   4.698  -0.319  0.00  0.00    +0.025 C 
ATOM      3  C   UNL     1       1.121   3.665   0.814  0.00  0.00    +0.088 C 
ATOM      4  N   UNL     1       1.484   2.383   0.183  0.00  0.00    -0.298 NA
ATOM      5  C   UNL     1       1.513   2.571  -1.283  0.00  0.00    +0.085 C 
ATOM      6  C   UNL     1       2.780   1.900   0.679  0.00  0.00    +0.105 C 
ENDROOT
BRANCH   3   7
ATOM      7  C   UNL     1      -0.169   3.515   1.578  0.00  0.00    -0.012 A 
ATOM      8  C   UNL     1      -0.833   4.629   2.055  0.00  0.00    +0.115 A 
ATOM      9  N   UNL     1      -1.962   4.506   2.725  0.00  0.00    -0.263 NA
ATOM     10  C   UNL     1      -2.501   3.327   2.965  0.00  0.00    +0.111 A 
ATOM     11  C   UNL     1      -1.894   2.168   2.519  0.00  0.00    +0.020 A 
ATOM     12  C   UNL     1      -0.708   2.258   1.807  0.00  0.00    +0.008 A 
ENDBRANCH   3   7
TORSDOF 1
ENDMDL
