MODEL 1
REMARK VINA RESULT:    -3.209      0.000      0.000
REMARK INTER + INTRA:          -3.627
REMARK INTER:                  -3.397
REMARK INTRA:                  -0.230
REMARK UNBOUND:                -0.230
REMARK  Name = Nicotine.pdb
REMARK  2 active torsions:
REMARK  status: ('A' for Active; 'I' for Inactive)
REMARK    1  A    between atoms: C_3  and  C_6
REMARK    2  A    between atoms: N_4  and  C_12
REMARK                            x       y       z     vdW  Elec       q    Type
REMARK                         _______ _______ _______ _____ _____    ______ ____
ROOT
ATOM      1  C   UNL     1      -3.026   5.681  -1.503  0.00  0.00    +0.017 C 
ATOM      2  C   UNL     1      -1.937   6.288  -2.426  0.00  0.00    +0.025 C 
ATOM      3  C   UNL     1      -2.750   6.795  -3.636  0.00  0.00    +0.088 C 
ATOM      4  N   UNL     1      -4.016   6.040  -3.658  0.00  0.00    -0.298 NA
ATOM      5  C   UNL     1      -4.010   5.077  -2.536  0.00  0.00    +0.085 C 
ATOM      6  C   UNL     1      -5.170   6.945  -3.570  0.00  0.00    +0.105 C 
ENDROOT
BRANCH   3   7
ATOM      7  C   UNL     1      -1.983   6.548  -4.909  0.00  0.00    -0.012 A 
ATOM      8  C   UNL     1      -2.571   6.786  -6.137  0.00  0.00    +0.115 A 
ATOM      9  N   UNL     1      -1.906   6.573  -7.256  0.00  0.00    -0.263 NA
ATOM     10  C   UNL     1      -0.665   6.128  -7.251  0.00  0.00    +0.111 A 
ATOM     11  C   UNL     1      -0.011   5.868  -6.061  0.00  0.00    +0.020 A 
ATOM     12  C   UNL     1      -0.677   6.085  -4.864  0.00  0.00    +0.008 A 
ENDBRANCH   3   7
TORSDOF 1
ENDMDL
MODEL 2
REMARK VINA RESULT:    -2.943      8.171     10.132
REMARK INTER + INTRA:          -3.346
REMARK INTER:                  -3.148
REMARK INTRA:                  -0.198
REMARK UNBOUND:                -0.230
REMARK  Name = Nicotine.pdb
REMARK  2 active torsions:
REMARK  status: ('A' for Active; 'I' for Inactive)
REMARK    1  A    between atoms: C_3  and  C_6
REMARK    2  A    between atoms: N_4  and  C_12
REMARK                            x       y       z     vdW  Elec       q    Type
REMARK                         _______ _______ _______ _____ _____    ______ ____
ROOT
ATOM      1  C   UNL     1      -3.917  -4.189   2.490  0.00  0.00    +0.017 C 
ATOM      2  C   UNL     1      -4.560  -2.782   2.367  0.00  0.00    +0.025 C 
ATOM      3  C   UNL     1      -4.915  -2.692   0.868  0.00  0.00    +0.088 C 
ATOM      4  N   UNL     1      -4.051  -3.651   0.156  0.00  0.00    -0.298 NA
ATOM      5  C   UNL     1      -3.165  -4.307   1.141  0.00  0.00    +0.085 C 
ATOM      6  C   UNL     1      -4.852  -4.641  -0.574  0.00  0.00    +0.105 C 
ENDROOT
BRANCH   3   7
ATOM      7  C   UNL     1      -4.659  -1.296   0.363  0.00  0.00    -0.012 A 
ATOM      8  C   UNL     1      -5.063  -0.200   1.102  0.00  0.00    +0.115 A 
ATOM      9  N   UNL     1      -4.842   1.025   0.668  0.00  0.00    -0.263 NA
ATOM     10  C   UNL     1      -4.234   1.255  -0.479  0.00  0.00    +0.111 A 
ATOM     11  C   UNL     1      -3.800   0.209  -1.272  0.00  0.00    +0.020 A 
ATOM     12  C   UNL     1      -4.010  -1.093  -0.845  0.00  0.00    +0.008 A 
ENDBRANCH   3   7
TORSDOF 1
ENDMDL
MODEL 3
REMARK VINA RESULT:    -2.891      8.808     10.905
REMARK INTER + INTRA:          -3.290
REMARK INTER:                  -3.115
REMARK INTRA:                  -0.175
REMARK UNBOUND:                -0.230
REMARK  Name = Nicotine.pdb
REMARK  2 active torsions:
REMARK  status: ('A' for Active; 'I' for Inactive)
REMARK    1  A    between atoms: C_3  and  C_6
REMARK    2  A    between atoms: N_4  and  C_12
REMARK                            x       y       z     vdW  Elec       q    Type
REMARK                         _______ _______ _______ _____ _____    ______ ____
ROOT
ATOM      1  C   UNL     1      -4.673  -5.474   0.515  0.00  0.00    +0.017 C 
ATOM      2  C   UNL     1      -4.890  -4.122  -0.215  0.00  0.00    +0.025 C 
ATOM      3  C   UNL     1      -3.656  -3.297   0.208  0.00  0.00    +0.088 C 
ATOM      4  N   UNL     1      -3.147  -3.884   1.461  0.00  0.00    -0.298 NA
ATOM      5  C   UNL     1      -4.023  -5.012   1.843  0.00  0.00    +0.085 C 
ATOM      6  C   UNL     1      -1.755  -4.325   1.309  0.00  0.00    +0.105 C 
ENDROOT
BRANCH   3   7
ATOM      7  C   UNL     1      -4.052  -1.862   0.436  0.00  0.00    -0.012 A 
ATOM      8  C   UNL     1      -4.501  -1.449   1.676  0.00  0.00    +0.115 A 
ATOM      9  N   UNL     1      -4.849  -0.194   1.884  0.00  0.00    -0.263 NA
ATOM     10  C   UNL     1      -4.785   0.711   0.927  0.00  0.00    +0.111 A 
ATOM     11  C   UNL     1      -4.345   0.372  -0.339  0.00  0.00    +0.020 A 
ATOM     12  C   UNL     1      -3.965  -0.937  -0.593  0.00  0.00    +0.008 A 
ENDBRANCH   3   7
TORSDOF 1
ENDMDL
MODEL 4
REMARK VINA RESULT:    -2.697      8.993     10.975
REMARK INTER + INTRA:          -3.084
REMARK INTER:                  -2.870
REMARK INTRA:                  -0.214
REMARK UNBOUND:                -0.230
REMARK  Name = Nicotine.pdb
REMARK  2 active torsions:
REMARK  status: ('A' for Active; 'I' for Inactive)
REMARK    1  A    between atoms: C_3  and  C_6
REMARK    2  A    between atoms: N_4  and  C_12
REMARK                            x       y       z     vdW  Elec       q    Type
REMARK                         _______ _______ _______ _____ _____    ______ ____
ROOT
ATOM      1  C   UNL     1      -4.995  -0.783  -1.940  0.00  0.00    +0.017 C 
ATOM      2  C   UNL     1      -5.102  -2.298  -1.625  0.00  0.00    +0.025 C 
ATOM      3  C   UNL     1      -4.969  -2.343  -0.088  0.00  0.00    +0.088 C 
ATOM      4  N   UNL     1      -4.284  -1.106   0.327  0.00  0.00    -0.298 NA
ATOM      5  C   UNL     1      -3.966  -0.315  -0.881  0.00  0.00    +0.085 C 
ATOM      6  C   UNL     1      -5.112  -0.332   1.261  0.00  0.00    +0.105 C 
ENDROOT
BRANCH   3   7
ATOM      7  C   UNL     1      -4.156  -3.543   0.321  0.00  0.00    -0.012 A 
ATOM      8  C   UNL     1      -4.583  -4.819   0.004  0.00  0.00    +0.115 A 
ATOM      9  N   UNL     1      -3.877  -5.875   0.358  0.00  0.00    -0.263 NA
ATOM     10  C   UNL     1      -2.746  -5.760   1.024  0.00  0.00    +0.111 A 
ATOM     11  C   UNL     1      -2.255  -4.517   1.377  0.00  0.00    +0.020 A 
ATOM     12  C   UNL     1      -2.967  -3.383   1.016  0.00  0.00    +0.008 A 
ENDBRANCH   3   7
TORSDOF 1
ENDMDL
MODEL 5
REMARK VINA RESULT:    -2.501     10.685     12.826
REMARK INTER + INTRA:          -2.878
REMARK INTER:                  -2.659
REMARK INTRA:                  -0.218
REMARK UNBOUND:                -0.230
REMARK  Name = Nicotine.pdb
REMARK  2 active torsions:
REMARK  status: ('A' for Active; 'I' for Inactive)
REMARK    1  A    between atoms: C_3  and  C_6
REMARK    2  A    between atoms: N_4  and  C_12
REMARK                            x       y       z     vdW  Elec       q    Type
REMARK                         _______ _______ _______ _____ _____    ______ ____
ROOT
ATOM      1  C   UNL     1      -3.400  -5.610   1.655  0.00  0.00    +0.017 C 
ATOM      2  C   UNL     1      -4.430  -5.080   2.687  0.00  0.00    +0.025 C 
ATOM      3  C   UNL     1      -4.609  -3.604   2.273  0.00  0.00    +0.088 C 
ATOM      4  N   UNL     1      -3.409  -3.215   1.511  0.00  0.00    -0.298 NA
ATOM      5  C   UNL     1      -2.490  -4.372   1.458  0.00  0.00    +0.085 C 
ATOM      6  C   UNL     1      -3.766  -2.764   0.160  0.00  0.00    +0.105 C 
ENDROOT
BRANCH   3   7
ATOM      7  C   UNL     1      -4.742  -2.740   3.500  0.00  0.00    -0.012 A 
ATOM      8  C   UNL     1      -4.554  -1.373   3.416  0.00  0.00    +0.115 A 
ATOM      9  N   UNL     1      -4.668  -0.610   4.485  0.00  0.00    -0.263 NA
ATOM     10  C   UNL     1      -4.963  -1.112   5.667  0.00  0.00    +0.111 A 
ATOM     11  C   UNL     1      -5.166  -2.470   5.828  0.00  0.00    +0.020 A 
ATOM     12  C   UNL     1      -5.059  -3.304   4.726  0.00  0.00    +0.008 A 
ENDBRANCH   3   7
TORSDOF 1
ENDMDL
MODEL 6
REMARK VINA RESULT:    -2.455      9.980     11.651
REMARK INTER + INTRA:          -2.829
REMARK INTER:                  -2.658
REMARK INTRA:                  -0.171
REMARK UNBOUND:                -0.230
REMARK  Name = Nicotine.pdb
REMARK  2 active torsions:
REMARK  status: ('A' for Active; 'I' for Inactive)
REMARK    1  A    between atoms: C_3  and  C_6
REMARK    2  A    between atoms: N_4  and  C_12
REMARK                            x       y       z     vdW  Elec       q    Type
REMARK                         _______ _______ _______ _____ _____    ______ ____
ROOT
ATOM      1  C   UNL     1      -2.687  -5.922   2.481  0.00  0.00    +0.017 C 
ATOM      2  C   UNL     1      -2.396  -4.842   1.406  0.00  0.00    +0.025 C 
ATOM      3  C   UNL     1      -3.517  -3.807   1.642  0.00  0.00    +0.088 C 
ATOM      4  N   UNL     1      -4.616  -4.504   2.335  0.00  0.00    -0.298 NA
ATOM      5  C   UNL     1      -4.236  -5.921   2.514  0.00  0.00    +0.085 C 
ATOM      6  C   UNL     1      -4.911  -3.870   3.626  0.00  0.00    +0.105 C 
ENDROOT
BRANCH   3   7
ATOM      7  C   UNL     1      -4.002  -3.268   0.321  0.00  0.00    -0.012 A 
ATOM      8  C   UNL     1      -4.675  -4.088  -0.565  0.00  0.00    +0.115 A 
ATOM      9  N   UNL     1      -5.103  -3.624  -1.722  0.00  0.00    -0.263 NA
ATOM     10  C   UNL     1      -4.909  -2.370  -2.080  0.00  0.00    +0.111 A 
ATOM     11  C   UNL     1      -4.245  -1.490  -1.246  0.00  0.00    +0.020 A 
ATOM     12  C   UNL     1      -3.785  -1.941  -0.019  0.00  0.00    +0.008 A 
ENDBRANCH   3   7
TORSDOF 1
ENDMDL
MODEL 7
REMARK VINA RESULT:    -2.052     10.028     11.920
REMARK INTER + INTRA:          -2.402
REMARK INTER:                  -2.188
REMARK INTRA:                  -0.214
REMARK UNBOUND:                -0.230
REMARK  Name = Nicotine.pdb
REMARK  2 active torsions:
REMARK  status: ('A' for Active; 'I' for Inactive)
REMARK    1  A    between atoms: C_3  and  C_6
REMARK    2  A    between atoms: N_4  and  C_12
REMARK                            x       y       z     vdW  Elec       q    Type
REMARK                         _______ _______ _______ _____ _____    ______ ____
ROOT
ATOM      1  C   UNL     1      -4.311  -4.706  -0.636  0.00  0.00    +0.017 C 
ATOM      2  C   UNL     1      -4.507  -3.228  -0.206  0.00  0.00    +0.025 C 
ATOM      3  C   UNL     1      -3.499  -3.067   0.951  0.00  0.00    +0.088 C 
ATOM      4  N   UNL     1      -3.223  -4.414   1.482  0.00  0.00    -0.298 NA
ATOM      5  C   UNL     1      -4.032  -5.393   0.724  0.00  0.00    +0.085 C 
ATOM      6  C   UNL     1      -1.792  -4.733   1.394  0.00  0.00    +0.105 C 
ENDROOT
BRANCH   3   7
ATOM      7  C   UNL     1      -4.093  -2.201   2.031  0.00  0.00    -0.012 A 
ATOM      8  C   UNL     1      -4.412  -0.881   1.773  0.00  0.00    +0.115 A 
ATOM      9  N   UNL     1      -4.932  -0.116   2.713  0.00  0.00    -0.263 NA
ATOM     10  C   UNL     1      -5.167  -0.573   3.927  0.00  0.00    +0.111 A 
ATOM     11  C   UNL     1      -4.874  -1.882   4.259  0.00  0.00    +0.020 A 
ATOM     12  C   UNL     1      -4.331  -2.718   3.296  0.00  0.00    +0.008 A 
ENDBRANCH   3   7
TORSDOF 1
ENDMDL
MODEL 8
REMARK VINA RESULT:    -1.985      2.884      3.418
REMARK INTER + INTRA:          -2.331
REMARK INTER:                  -2.090
REMARK INTRA:                  -0.240
REMARK UNBOUND:                -0.230
REMARK  Name = Nicotine.pdb
REMARK  2 active torsions:
REMARK  status: ('A' for Active; 'I' for Inactive)
REMARK    1  A    between atoms: C_3  and  C_6
REMARK    2  A    between atoms: N_4  and  C_12
REMARK                            x       y       z     vdW  Elec       q    Type
REMARK                         _______ _______ _______ _____ _____    ______ ____
ROOT
ATOM      1  C   UNL     1      -3.750   6.913  -1.337  0.00  0.00    +0.017 C 
ATOM      2  C   UNL     1      -4.745   7.028  -2.522  0.00  0.00    +0.025 C 
ATOM      3  C   UNL     1      -4.859   5.572  -3.021  0.00  0.00    +0.088 C 
ATOM      4  N   UNL     1      -3.649   4.860  -2.572  0.00  0.00    -0.298 NA
ATOM      5  C   UNL     1      -2.785   5.813  -1.844  0.00  0.00    +0.085 C 
ATOM      6  C   UNL     1      -3.997   3.711  -1.727  0.00  0.00    +0.105 C 
ENDROOT
BRANCH   3   7
ATOM      7  C   UNL     1      -4.939   5.551  -4.526  0.00  0.00    -0.012 A 
ATOM      8  C   UNL     1      -5.055   4.352  -5.203  0.00  0.00    +0.115 A 
ATOM      9  N   UNL     1      -5.127   4.324  -6.519  0.00  0.00    -0.263 NA
ATOM     10  C   UNL     1      -5.090   5.429  -7.238  0.00  0.00    +0.111 A 
ATOM     11  C   UNL     1      -4.976   6.665  -6.631  0.00  0.00    +0.020 A 
ATOM     12  C   UNL     1      -4.904   6.734  -5.248  0.00  0.00    +0.008 A 
ENDBRANCH   3   7
TORSDOF 1
ENDMDL
MODEL 9
REMARK VINA RESULT:    -0.541      2.590      4.821
REMARK INTER + INTRA:          -0.802
REMARK INTER:                  -0.603
REMARK INTRA:                  -0.199
REMARK UNBOUND:                -0.230
REMARK  Name = Nicotine.pdb
REMARK  2 active torsions:
REMARK  status: ('A' for Active; 'I' for Inactive)
REMARK    1  A    between atoms: C_3  and  C_6
REMARK    2  A    between atoms: N_4  and  C_12
REMARK                            x       y       z     vdW  Elec       q    Type
REMARK                         _______ _______ _______ _____ _____    ______ ____
ROOT
ATOM      1  C   UNL     1      -2.798   6.840  -4.069  0.00  0.00    +0.017 C 
ATOM      2  C   UNL     1      -3.798   5.666  -4.245  0.00  0.00    +0.025 C 
ATOM      3  C   UNL     1      -4.223   5.353  -2.795  0.00  0.00    +0.088 C 
ATOM      4  N   UNL     1      -3.164   5.866  -1.908  0.00  0.00    -0.298 NA
ATOM      5  C   UNL     1      -2.096   6.457  -2.742  0.00  0.00    +0.085 C 
ATOM      6  C   UNL     1      -3.700   6.853  -0.962  0.00  0.00    +0.105 C 
ENDROOT
BRANCH   3   7
ATOM      7  C   UNL     1      -4.369   3.864  -2.613  0.00  0.00    -0.012 A 
ATOM      8  C   UNL     1      -5.039   3.108  -3.556  0.00  0.00    +0.115 A 
ATOM      9  N   UNL     1      -5.171   1.804  -3.405  0.00  0.00    -0.263 NA
ATOM     10  C   UNL     1      -4.675   1.174  -2.359  0.00  0.00    +0.111 A 
ATOM     11  C   UNL     1      -3.992   1.864  -1.375  0.00  0.00    +0.020 A 
ATOM     12  C   UNL     1      -3.828   3.235  -1.503  0.00  0.00    +0.008 A 
ENDBRANCH   3   7
TORSDOF 1
ENDMDL
