MODEL 1
REMARK VINA RESULT:     0.000      0.000      0.000
REMARK INTER + INTRA:          -0.256
REMARK INTER:                   0.000
REMARK INTRA:                  -0.256
REMARK UNBOUND:                -0.256
REMARK  Name = Nicotine.pdb
REMARK  2 active torsions:
REMARK  status: ('A' for Active; 'I' for Inactive)
REMARK    1  A    between atoms: C_3  and  C_6
REMARK    2  A    between atoms: N_4  and  C_12
REMARK                            x       y       z     vdW  Elec       q    Type
REMARK                         _______ _______ _______ _____ _____    ______ ____
ROOT
ATOM      1  C   UNL     1       2.052   4.043  -0.390  0.00  0.00    +0.017 C 
ATOM      2  C   UNL     1       2.839   3.007   0.454  0.00  0.00    +0.025 C 
ATOM      3  C   UNL     1       1.769   2.465   1.425  0.00  0.00    +0.088 C 
ATOM      4  N   UNL     1       0.704   3.481   1.513  0.00  0.00    -0.298 NA
ATOM      5  C   UNL     1       1.080   4.631   0.664  0.00  0.00    +0.085 C 
ATOM      6  C   UNL     1      -0.591   2.924   1.103  0.00  0.00    +0.105 C 
ENDROOT
BRANCH   3   7
ATOM      7  C   UNL     1       2.377   2.239   2.785  0.00  0.00    -0.012 A 
ATOM      8  C   UNL     1       1.781   1.374   3.683  0.00  0.00    +0.115 A 
ATOM      9  N   UNL     1       2.307   1.170   4.875  0.00  0.00    -0.263 NA
ATOM     10  C   UNL     1       3.413   1.778   5.257  0.00  0.00    +0.111 A 
ATOM     11  C   UNL     1       4.065   2.657   4.413  0.00  0.00    +0.020 A 
ATOM     12  C   UNL     1       3.545   2.892   3.150  0.00  0.00    +0.008 A 
ENDBRANCH   3   7
TORSDOF 1
ENDMDL
MODEL 2
REMARK VINA RESULT:     0.000      4.228      7.181
REMARK INTER + INTRA:          -0.256
REMARK INTER:                   0.000
REMARK INTRA:                  -0.256
REMARK UNBOUND:                -0.256
REMARK  Name = Nicotine.pdb
REMARK  2 active torsions:
REMARK  status: ('A' for Active; 'I' for Inactive)
REMARK    1  A    between atoms: C_3  and  C_6
REMARK    2  A    between atoms: N_4  and  C_12
REMARK                            x       y       z     vdW  Elec       q    Type
REMARK                         _______ _______ _______ _____ _____    ______ ____
ROOT
ATOM      1  C   UNL     1       5.079   2.069  -0.403  0.00  0.00    +0.017 C 
ATOM      2  C   UNL     1       5.462   2.629  -1.798  0.00  0.00    +0.025 C 
ATOM      3  C   UNL     1       5.264   4.150  -1.628  0.00  0.00    +0.088 C 
ATOM      4  N   UNL     1       4.333   4.346  -0.502  0.00  0.00    -0.298 NA
ATOM      5  C   UNL     1       3.929   3.020   0.011  0.00  0.00    +0.085 C 
ATOM      6  C   UNL     1       4.949   5.156   0.557  0.00  0.00    +0.105 C 
ENDROOT
BRANCH   3   7
ATOM      7  C   UNL     1       4.680   4.735  -2.887  0.00  0.00    -0.012 A 
ATOM      8  C   UNL     1       4.813   6.084  -3.159  0.00  0.00    +0.115 A 
ATOM      9  N   UNL     1       4.304   6.604  -4.259  0.00  0.00    -0.263 NA
ATOM     10  C   UNL     1       3.653   5.867  -5.137  0.00  0.00    +0.111 A 
ATOM     11  C   UNL     1       3.480   4.511  -4.933  0.00  0.00    +0.020 A 
ATOM     12  C   UNL     1       4.006   3.927  -3.790  0.00  0.00    +0.008 A 
ENDBRANCH   3   7
TORSDOF 1
ENDMDL
MODEL 3
REMARK VINA RESULT:     0.000      7.050      8.470
REMARK INTER + INTRA:          -0.256
REMARK INTER:                   0.000
REMARK INTRA:                  -0.256
REMARK UNBOUND:                -0.256
REMARK  Name = Nicotine.pdb
REMARK  2 active torsions:
REMARK  status: ('A' for Active; 'I' for Inactive)
REMARK    1  A    between atoms: C_3  and  C_6
REMARK    2  A    between atoms: N_4  and  C_12
REMARK                            x       y       z     vdW  Elec       q    Type
REMARK                         _______ _______ _______ _____ _____    ______ ____
ROOT
ATOM      1  C   UNL     1       3.328  -4.380   2.930  0.00  0.00    +0.017 C 
ATOM      2  C   UNL     1       3.910  -5.010   1.637  0.00  0.00    +0.025 C 
ATOM      3  C   UNL     1       4.150  -3.784   0.731  0.00  0.00    +0.088 C 
ATOM      4  N   UNL     1       3.271  -2.704   1.214  0.00  0.00    -0.298 NA
ATOM      5  C   UNL     1       2.484  -3.214   2.357  0.00  0.00    +0.085 C 
ATOM      6  C   UNL     1       4.052  -1.521   1.598  0.00  0.00    +0.105 C 
ENDROOT
BRANCH   3   7
ATOM      7  C   UNL     1       3.808  -4.126  -0.696  0.00  0.00    -0.012 A 
ATOM      8  C   UNL     1       4.333  -3.386  -1.738  0.00  0.00    +0.115 A 
ATOM      9  N   UNL     1       4.038  -3.678  -2.990  0.00  0.00    -0.263 NA
ATOM     10  C   UNL     1       3.237  -4.679  -3.297  0.00  0.00    +0.111 A 
ATOM     11  C   UNL     1       2.675  -5.465  -2.309  0.00  0.00    +0.020 A 
ATOM     12  C   UNL     1       2.966  -5.191  -0.981  0.00  0.00    +0.008 A 
ENDBRANCH   3   7
TORSDOF 1
ENDMDL
MODEL 4
REMARK VINA RESULT:     0.000      6.577      8.713
REMARK INTER + INTRA:          -0.256
REMARK INTER:                   0.000
REMARK INTRA:                  -0.256
REMARK UNBOUND:                -0.256
REMARK  Name = Nicotine.pdb
REMARK  2 active torsions:
REMARK  status: ('A' for Active; 'I' for Inactive)
REMARK    1  A    between atoms: C_3  and  C_6
REMARK    2  A    between atoms: N_4  and  C_12
REMARK                            x       y       z     vdW  Elec       q    Type
REMARK                         _______ _______ _______ _____ _____    ______ ____
ROOT
ATOM      1  C   UNL     1       0.479  -1.960  -1.184  0.00  0.00    +0.017 C 
ATOM      2  C   UNL     1      -0.171  -0.630  -1.648  0.00  0.00    +0.025 C 
ATOM      3  C   UNL     1      -1.588  -1.067  -2.076  0.00  0.00    +0.088 C 
ATOM      4  N   UNL     1      -1.529  -2.509  -2.376  0.00  0.00    -0.298 NA
ATOM      5  C   UNL     1      -0.140  -2.974  -2.178  0.00  0.00    +0.085 C 
ATOM      6  C   UNL     1      -2.463  -3.262  -1.529  0.00  0.00    +0.105 C 
ENDROOT
BRANCH   3   7
ATOM      7  C   UNL     1      -2.011  -0.303  -3.304  0.00  0.00    -0.012 A 
ATOM      8  C   UNL     1      -3.350  -0.176  -3.621  0.00  0.00    +0.115 A 
ATOM      9  N   UNL     1      -3.729   0.490  -4.694  0.00  0.00    -0.263 NA
ATOM     10  C   UNL     1      -2.855   1.059  -5.501  0.00  0.00    +0.111 A 
ATOM     11  C   UNL     1      -1.499   0.975  -5.248  0.00  0.00    +0.020 A 
ATOM     12  C   UNL     1      -1.063   0.287  -4.126  0.00  0.00    +0.008 A 
ENDBRANCH   3   7
TORSDOF 1
ENDMDL
MODEL 5
REMARK VINA RESULT:     0.000      5.163      6.285
REMARK INTER + INTRA:          -0.256
REMARK INTER:                   0.000
REMARK INTRA:                  -0.256
REMARK UNBOUND:                -0.256
REMARK  Name = Nicotine.pdb
REMARK  2 active torsions:
REMARK  status: ('A' for Active; 'I' for Inactive)
REMARK    1  A    between atoms: C_3  and  C_6
REMARK    2  A    between atoms: N_4  and  C_12
REMARK                            x       y       z     vdW  Elec       q    Type
REMARK                         _______ _______ _______ _____ _____    ______ ____
ROOT
ATOM      1  C   UNL     1       0.756   1.088  -1.304  0.00  0.00    +0.017 C 
ATOM      2  C   UNL     1       0.340   0.404   0.025  0.00  0.00    +0.025 C 
ATOM      3  C   UNL     1       0.157  -1.072  -0.387  0.00  0.00    +0.088 C 
ATOM      4  N   UNL     1      -0.085  -1.093  -1.841  0.00  0.00    -0.298 NA
ATOM      5  C   UNL     1      -0.084   0.299  -2.339  0.00  0.00    +0.085 C 
ATOM      6  C   UNL     1       0.929  -1.900  -2.532  0.00  0.00    +0.105 C 
ENDROOT
BRANCH   3   7
ATOM      7  C   UNL     1      -1.024  -1.664   0.338  0.00  0.00    -0.012 A 
ATOM      8  C   UNL     1      -1.135  -3.034   0.491  0.00  0.00    +0.115 A 
ATOM      9  N   UNL     1      -2.165  -3.560   1.125  0.00  0.00    -0.263 NA
ATOM     10  C   UNL     1      -3.122  -2.810   1.635  0.00  0.00    +0.111 A 
ATOM     11  C   UNL     1      -3.078  -1.433   1.522  0.00  0.00    +0.020 A 
ATOM     12  C   UNL     1      -2.008  -0.843   0.867  0.00  0.00    +0.008 A 
ENDBRANCH   3   7
TORSDOF 1
ENDMDL
MODEL 6
REMARK VINA RESULT:     0.000      4.623      5.519
REMARK INTER + INTRA:          -0.256
REMARK INTER:                   0.000
REMARK INTRA:                  -0.256
REMARK UNBOUND:                -0.256
REMARK  Name = Nicotine.pdb
REMARK  2 active torsions:
REMARK  status: ('A' for Active; 'I' for Inactive)
REMARK    1  A    between atoms: C_3  and  C_6
REMARK    2  A    between atoms: N_4  and  C_12
REMARK                            x       y       z     vdW  Elec       q    Type
REMARK                         _______ _______ _______ _____ _____    ______ ____
ROOT
ATOM      1  C   UNL     1      -2.630   2.127   0.353  0.00  0.00    +0.017 C 
ATOM      2  C   UNL     1      -3.027   0.704   0.829  0.00  0.00    +0.025 C 
ATOM      3  C   UNL     1      -3.118   0.864   2.361  0.00  0.00    +0.088 C 
ATOM      4  N   UNL     1      -2.303   2.037   2.727  0.00  0.00    -0.298 NA
ATOM      5  C   UNL     1      -1.696   2.590   1.498  0.00  0.00    +0.085 C 
ATOM      6  C   UNL     1      -3.115   3.048   3.416  0.00  0.00    +0.105 C 
ENDROOT
BRANCH   3   7
ATOM      7  C   UNL     1      -2.577  -0.369   3.038  0.00  0.00    -0.012 A 
ATOM      8  C   UNL     1      -2.937  -0.667   4.339  0.00  0.00    +0.115 A 
ATOM      9  N   UNL     1      -2.468  -1.744   4.939  0.00  0.00    -0.263 NA
ATOM     10  C   UNL     1      -1.645  -2.574   4.329  0.00  0.00    +0.111 A 
ATOM     11  C   UNL     1      -1.242  -2.342   3.027  0.00  0.00    +0.020 A 
ATOM     12  C   UNL     1      -1.718  -1.222   2.362  0.00  0.00    +0.008 A 
ENDBRANCH   3   7
TORSDOF 1
ENDMDL
MODEL 7
REMARK VINA RESULT:     0.000      7.482      8.069
REMARK INTER + INTRA:          -0.256
REMARK INTER:                   0.000
REMARK INTRA:                  -0.256
REMARK UNBOUND:                -0.256
REMARK  Name = Nicotine.pdb
REMARK  2 active torsions:
REMARK  status: ('A' for Active; 'I' for Inactive)
REMARK    1  A    between atoms: C_3  and  C_6
REMARK    2  A    between atoms: N_4  and  C_12
REMARK                            x       y       z     vdW  Elec       q    Type
REMARK                         _______ _______ _______ _____ _____    ______ ____
ROOT
ATOM      1  C   UNL     1       5.872  -5.310  -2.098  0.00  0.00    +0.017 C 
ATOM      2  C   UNL     1       5.863  -5.367  -0.548  0.00  0.00    +0.025 C 
ATOM      3  C   UNL     1       4.358  -5.415  -0.211  0.00  0.00    +0.088 C 
ATOM      4  N   UNL     1       3.633  -4.855  -1.366  0.00  0.00    -0.298 NA
ATOM      5  C   UNL     1       4.621  -4.443  -2.386  0.00  0.00    +0.085 C 
ATOM      6  C   UNL     1       2.684  -5.832  -1.916  0.00  0.00    +0.105 C 
ENDROOT
BRANCH   3   7
ATOM      7  C   UNL     1       4.081  -4.589   1.019  0.00  0.00    -0.012 A 
ATOM      8  C   UNL     1       2.942  -4.811   1.769  0.00  0.00    +0.115 A 
ATOM      9  N   UNL     1       2.692  -4.092   2.846  0.00  0.00    -0.263 NA
ATOM     10  C   UNL     1       3.511  -3.141   3.249  0.00  0.00    +0.111 A 
ATOM     11  C   UNL     1       4.670  -2.861   2.550  0.00  0.00    +0.020 A 
ATOM     12  C   UNL     1       4.968  -3.600   1.415  0.00  0.00    +0.008 A 
ENDBRANCH   3   7
TORSDOF 1
ENDMDL
MODEL 8
REMARK VINA RESULT:     0.000      8.541      9.955
REMARK INTER + INTRA:          -0.256
REMARK INTER:                   0.000
REMARK INTRA:                  -0.256
REMARK UNBOUND:                -0.256
REMARK  Name = Nicotine.pdb
REMARK  2 active torsions:
REMARK  status: ('A' for Active; 'I' for Inactive)
REMARK    1  A    between atoms: C_3  and  C_6
REMARK    2  A    between atoms: N_4  and  C_12
REMARK                            x       y       z     vdW  Elec       q    Type
REMARK                         _______ _______ _______ _____ _____    ______ ____
ROOT
ATOM      1  C   UNL     1       6.737  -4.787  -6.121  0.00  0.00    +0.017 C 
ATOM      2  C   UNL     1       5.655  -3.677  -6.065  0.00  0.00    +0.025 C 
ATOM      3  C   UNL     1       6.053  -2.867  -4.813  0.00  0.00    +0.088 C 
ATOM      4  N   UNL     1       6.868  -3.752  -3.962  0.00  0.00    -0.298 NA
ATOM      5  C   UNL     1       6.970  -5.073  -4.617  0.00  0.00    +0.085 C 
ATOM      6  C   UNL     1       8.199  -3.177  -3.726  0.00  0.00    +0.105 C 
ENDROOT
BRANCH   3   7
ATOM      7  C   UNL     1       4.817  -2.433  -4.069  0.00  0.00    -0.012 A 
ATOM      8  C   UNL     1       4.866  -1.362  -3.197  0.00  0.00    +0.115 A 
ATOM      9  N   UNL     1       3.788  -0.976  -2.541  0.00  0.00    -0.263 NA
ATOM     10  C   UNL     1       2.631  -1.590  -2.688  0.00  0.00    +0.111 A 
ATOM     11  C   UNL     1       2.505  -2.669  -3.543  0.00  0.00    +0.020 A 
ATOM     12  C   UNL     1       3.615  -3.100  -4.253  0.00  0.00    +0.008 A 
ENDBRANCH   3   7
TORSDOF 1
ENDMDL
MODEL 9
REMARK VINA RESULT:     0.000      7.027      8.489
REMARK INTER + INTRA:          -0.256
REMARK INTER:                   0.000
REMARK INTRA:                  -0.256
REMARK UNBOUND:                -0.256
REMARK  Name = Nicotine.pdb
REMARK  2 active torsions:
REMARK  status: ('A' for Active; 'I' for Inactive)
REMARK    1  A    between atoms: C_3  and  C_6
REMARK    2  A    between atoms: N_4  and  C_12
REMARK                            x       y       z     vdW  Elec       q    Type
REMARK                         _______ _______ _______ _____ _____    ______ ____
ROOT
ATOM      1  C   UNL     1       6.811  -3.277   1.422  0.00  0.00    +0.017 C 
ATOM      2  C   UNL     1       7.072  -2.007   0.569  0.00  0.00    +0.025 C 
ATOM      3  C   UNL     1       5.859  -1.975  -0.385  0.00  0.00    +0.088 C 
ATOM      4  N   UNL     1       5.326  -3.347  -0.460  0.00  0.00    -0.298 NA
ATOM      5  C   UNL     1       6.166  -4.226   0.381  0.00  0.00    +0.085 C 
ATOM      6  C   UNL     1       3.922  -3.391  -0.030  0.00  0.00    +0.105 C 
ENDROOT
BRANCH   3   7
ATOM      7  C   UNL     1       6.295  -1.518  -1.753  0.00  0.00    -0.012 A 
ATOM      8  C   UNL     1       5.376  -0.991  -2.640  0.00  0.00    +0.115 A 
ATOM      9  N   UNL     1       5.749  -0.588  -3.839  0.00  0.00    -0.263 NA
ATOM     10  C   UNL     1       7.003  -0.670  -4.239  0.00  0.00    +0.111 A 
ATOM     11  C   UNL     1       7.978  -1.186  -3.406  0.00  0.00    +0.020 A 
ATOM     12  C   UNL     1       7.624  -1.614  -2.136  0.00  0.00    +0.008 A 
ENDBRANCH   3   7
TORSDOF 1
ENDMDL
MODEL 10
REMARK VINA RESULT:     0.000      3.810      5.445
REMARK INTER + INTRA:          -0.256
REMARK INTER:                   0.000
REMARK INTRA:                  -0.256
REMARK UNBOUND:                -0.256
REMARK  Name = Nicotine.pdb
REMARK  2 active torsions:
REMARK  status: ('A' for Active; 'I' for Inactive)
REMARK    1  A    between atoms: C_3  and  C_6
REMARK    2  A    between atoms: N_4  and  C_12
REMARK                            x       y       z     vdW  Elec       q    Type
REMARK                         _______ _______ _______ _____ _____    ______ ____
ROOT
ATOM      1  C   UNL     1       7.828   1.578   3.716  0.00  0.00    +0.017 C 
ATOM      2  C   UNL     1       7.377   0.723   2.502  0.00  0.00    +0.025 C 
ATOM      3  C   UNL     1       5.928   1.199   2.262  0.00  0.00    +0.088 C 
ATOM      4  N   UNL     1       5.446   1.787   3.524  0.00  0.00    -0.298 NA
ATOM      5  C   UNL     1       6.517   1.673   4.537  0.00  0.00    +0.085 C 
ATOM      6  C   UNL     1       5.046   3.187   3.335  0.00  0.00    +0.105 C 
ENDROOT
BRANCH   3   7
ATOM      7  C   UNL     1       5.062   0.029   1.875  0.00  0.00    -0.012 A 
ATOM      8  C   UNL     1       3.875   0.231   1.196  0.00  0.00    +0.115 A 
ATOM      9  N   UNL     1       3.111  -0.788   0.854  0.00  0.00    -0.263 NA
ATOM     10  C   UNL     1       3.443  -2.030   1.143  0.00  0.00    +0.111 A 
ATOM     11  C   UNL     1       4.615  -2.311   1.820  0.00  0.00    +0.020 A 
ATOM     12  C   UNL     1       5.447  -1.266   2.191  0.00  0.00    +0.008 A 
ENDBRANCH   3   7
TORSDOF 1
ENDMDL
