MODEL 1
REMARK VINA RESULT:    -4.228      0.000      0.000
REMARK INTER + INTRA:          -4.712
REMARK INTER:                  -4.475
REMARK INTRA:                  -0.237
REMARK UNBOUND:                -0.237
REMARK  Name = Nicotine.pdb
REMARK  2 active torsions:
REMARK  status: ('A' for Active; 'I' for Inactive)
REMARK    1  A    between atoms: C_3  and  C_6
REMARK    2  A    between atoms: N_4  and  C_12
REMARK                            x       y       z     vdW  Elec       q    Type
REMARK                         _______ _______ _______ _____ _____    ______ ____
ROOT
ATOM      1  C   UNL     1       5.684  -4.823  -0.817  0.00  0.00    +0.017 C 
ATOM      2  C   UNL     1       5.001  -3.502  -1.258  0.00  0.00    +0.025 C 
ATOM      3  C   UNL     1       3.542  -3.934  -1.517  0.00  0.00    +0.088 C 
ATOM      4  N   UNL     1       3.555  -5.387  -1.768  0.00  0.00    -0.298 NA
ATOM      5  C   UNL     1       4.953  -5.864  -1.701  0.00  0.00    +0.085 C 
ATOM      6  C   UNL     1       2.710  -6.097  -0.799  0.00  0.00    +0.105 C 
ENDROOT
BRANCH   3   7
ATOM      7  C   UNL     1       2.998  -3.210  -2.720  0.00  0.00    -0.012 A 
ATOM      8  C   UNL     1       1.718  -3.468  -3.172  0.00  0.00    +0.115 A 
ATOM      9  N   UNL     1       1.234  -2.838  -4.225  0.00  0.00    -0.263 NA
ATOM     10  C   UNL     1       1.944  -1.944  -4.884  0.00  0.00    +0.111 A 
ATOM     11  C   UNL     1       3.232  -1.633  -4.491  0.00  0.00    +0.020 A 
ATOM     12  C   UNL     1       3.773  -2.271  -3.385  0.00  0.00    +0.008 A 
ENDBRANCH   3   7
TORSDOF 1
ENDMDL
MODEL 2
REMARK VINA RESULT:    -4.018      1.047      4.478
REMARK INTER + INTRA:          -4.490
REMARK INTER:                  -4.276
REMARK INTRA:                  -0.214
REMARK UNBOUND:                -0.237
REMARK  Name = Nicotine.pdb
REMARK  2 active torsions:
REMARK  status: ('A' for Active; 'I' for Inactive)
REMARK    1  A    between atoms: C_3  and  C_6
REMARK    2  A    between atoms: N_4  and  C_12
REMARK                            x       y       z     vdW  Elec       q    Type
REMARK                         _______ _______ _______ _____ _____    ______ ____
ROOT
ATOM      1  C   UNL     1       0.477  -3.440  -3.660  0.00  0.00    +0.017 C 
ATOM      2  C   UNL     1       1.129  -3.674  -2.272  0.00  0.00    +0.025 C 
ATOM      3  C   UNL     1       2.542  -3.078  -2.448  0.00  0.00    +0.088 C 
ATOM      4  N   UNL     1       2.835  -3.066  -3.893  0.00  0.00    -0.298 NA
ATOM      5  C   UNL     1       1.682  -3.648  -4.612  0.00  0.00    +0.085 C 
ATOM      6  C   UNL     1       3.114  -1.703  -4.362  0.00  0.00    +0.105 C 
ENDROOT
BRANCH   3   7
ATOM      7  C   UNL     1       3.552  -3.932  -1.726  0.00  0.00    -0.012 A 
ATOM      8  C   UNL     1       3.205  -5.188  -1.266  0.00  0.00    +0.115 A 
ATOM      9  N   UNL     1       4.083  -5.942  -0.634  0.00  0.00    -0.263 NA
ATOM     10  C   UNL     1       5.317  -5.533  -0.415  0.00  0.00    +0.111 A 
ATOM     11  C   UNL     1       5.737  -4.289  -0.847  0.00  0.00    +0.020 A 
ATOM     12  C   UNL     1       4.843  -3.470  -1.520  0.00  0.00    +0.008 A 
ENDBRANCH   3   7
TORSDOF 1
ENDMDL
MODEL 3
REMARK VINA RESULT:    -3.869      1.085      1.741
REMARK INTER + INTRA:          -4.332
REMARK INTER:                  -4.117
REMARK INTRA:                  -0.215
REMARK UNBOUND:                -0.237
REMARK  Name = Nicotine.pdb
REMARK  2 active torsions:
REMARK  status: ('A' for Active; 'I' for Inactive)
REMARK    1  A    between atoms: C_3  and  C_6
REMARK    2  A    between atoms: N_4  and  C_12
REMARK                            x       y       z     vdW  Elec       q    Type
REMARK                         _______ _______ _______ _____ _____    ______ ____
ROOT
ATOM      1  C   UNL     1       5.768  -3.716  -0.894  0.00  0.00    +0.017 C 
ATOM      2  C   UNL     1       4.609  -2.823  -1.411  0.00  0.00    +0.025 C 
ATOM      3  C   UNL     1       3.368  -3.721  -1.220  0.00  0.00    +0.088 C 
ATOM      4  N   UNL     1       3.841  -5.116  -1.174  0.00  0.00    -0.298 NA
ATOM      5  C   UNL     1       5.308  -5.122  -1.353  0.00  0.00    +0.085 C 
ATOM      6  C   UNL     1       3.461  -5.760   0.090  0.00  0.00    +0.105 C 
ENDROOT
BRANCH   3   7
ATOM      7  C   UNL     1       2.419  -3.537  -2.376  0.00  0.00    -0.012 A 
ATOM      8  C   UNL     1       2.882  -3.073  -3.593  0.00  0.00    +0.115 A 
ATOM      9  N   UNL     1       2.059  -2.909  -4.610  0.00  0.00    -0.263 NA
ATOM     10  C   UNL     1       0.772  -3.178  -4.510  0.00  0.00    +0.111 A 
ATOM     11  C   UNL     1       0.237  -3.646  -3.324  0.00  0.00    +0.020 A 
ATOM     12  C   UNL     1       1.073  -3.836  -2.235  0.00  0.00    +0.008 A 
ENDBRANCH   3   7
TORSDOF 1
ENDMDL
MODEL 4
REMARK VINA RESULT:    -2.123      1.076      1.866
REMARK INTER + INTRA:          -2.483
REMARK INTER:                  -2.275
REMARK INTRA:                  -0.208
REMARK UNBOUND:                -0.237
REMARK  Name = Nicotine.pdb
REMARK  2 active torsions:
REMARK  status: ('A' for Active; 'I' for Inactive)
REMARK    1  A    between atoms: C_3  and  C_6
REMARK    2  A    between atoms: N_4  and  C_12
REMARK                            x       y       z     vdW  Elec       q    Type
REMARK                         _______ _______ _______ _____ _____    ______ ____
ROOT
ATOM      1  C   UNL     1       3.813  -6.097  -0.513  0.00  0.00    +0.017 C 
ATOM      2  C   UNL     1       3.396  -5.802  -1.978  0.00  0.00    +0.025 C 
ATOM      3  C   UNL     1       4.187  -4.520  -2.313  0.00  0.00    +0.088 C 
ATOM      4  N   UNL     1       4.519  -3.865  -1.035  0.00  0.00    -0.298 NA
ATOM      5  C   UNL     1       3.949  -4.667   0.067  0.00  0.00    +0.085 C 
ATOM      6  C   UNL     1       5.972  -3.715  -0.882  0.00  0.00    +0.105 C 
ENDROOT
BRANCH   3   7
ATOM      7  C   UNL     1       3.343  -3.602  -3.158  0.00  0.00    -0.012 A 
ATOM      8  C   UNL     1       2.022  -3.912  -3.421  0.00  0.00    +0.115 A 
ATOM      9  N   UNL     1       1.275  -3.113  -4.159  0.00  0.00    -0.263 NA
ATOM     10  C   UNL     1       1.753  -1.997  -4.672  0.00  0.00    +0.111 A 
ATOM     11  C   UNL     1       3.065  -1.621  -4.452  0.00  0.00    +0.020 A 
ATOM     12  C   UNL     1       3.878  -2.433  -3.676  0.00  0.00    +0.008 A 
ENDBRANCH   3   7
TORSDOF 1
ENDMDL
MODEL 5
REMARK VINA RESULT:    -1.843      1.489      4.488
REMARK INTER + INTRA:          -2.187
REMARK INTER:                  -1.967
REMARK INTRA:                  -0.221
REMARK UNBOUND:                -0.237
REMARK  Name = Nicotine.pdb
REMARK  2 active torsions:
REMARK  status: ('A' for Active; 'I' for Inactive)
REMARK    1  A    between atoms: C_3  and  C_6
REMARK    2  A    between atoms: N_4  and  C_12
REMARK                            x       y       z     vdW  Elec       q    Type
REMARK                         _______ _______ _______ _____ _____    ______ ____
ROOT
ATOM      1  C   UNL     1       3.443  -2.064  -3.577  0.00  0.00    +0.017 C 
ATOM      2  C   UNL     1       4.304  -3.270  -3.116  0.00  0.00    +0.025 C 
ATOM      3  C   UNL     1       3.263  -4.220  -2.487  0.00  0.00    +0.088 C 
ATOM      4  N   UNL     1       2.096  -3.401  -2.109  0.00  0.00    -0.298 NA
ATOM      5  C   UNL     1       2.380  -1.991  -2.452  0.00  0.00    +0.085 C 
ATOM      6  C   UNL     1       0.880  -3.873  -2.784  0.00  0.00    +0.105 C 
ENDROOT
BRANCH   3   7
ATOM      7  C   UNL     1       3.844  -4.880  -1.264  0.00  0.00    -0.012 A 
ATOM      8  C   UNL     1       3.021  -5.516  -0.355  0.00  0.00    +0.115 A 
ATOM      9  N   UNL     1       3.522  -6.097   0.718  0.00  0.00    -0.263 NA
ATOM     10  C   UNL     1       4.817  -6.096   0.966  0.00  0.00    +0.111 A 
ATOM     11  C   UNL     1       5.702  -5.480   0.101  0.00  0.00    +0.020 A 
ATOM     12  C   UNL     1       5.213  -4.864  -1.040  0.00  0.00    +0.008 A 
ENDBRANCH   3   7
TORSDOF 1
ENDMDL
