MODEL 1
REMARK VINA RESULT:    -3.408      0.000      0.000
REMARK INTER + INTRA:          -3.800
REMARK INTER:                  -3.607
REMARK INTRA:                  -0.192
REMARK UNBOUND:                -0.192
REMARK  Name = Nicotine.pdb
REMARK  2 active torsions:
REMARK  status: ('A' for Active; 'I' for Inactive)
REMARK    1  A    between atoms: C_3  and  C_6
REMARK    2  A    between atoms: N_4  and  C_12
REMARK                            x       y       z     vdW  Elec       q    Type
REMARK                         _______ _______ _______ _____ _____    ______ ____
ROOT
ATOM      1  C   UNL     1       2.743   5.866   3.683  0.00  0.00    +0.017 C 
ATOM      2  C   UNL     1       1.562   5.379   2.802  0.00  0.00    +0.025 C 
ATOM      3  C   UNL     1       0.607   4.734   3.829  0.00  0.00    +0.088 C 
ATOM      4  N   UNL     1       1.412   4.376   5.010  0.00  0.00    -0.298 NA
ATOM      5  C   UNL     1       2.820   4.747   4.751  0.00  0.00    +0.085 C 
ATOM      6  C   UNL     1       0.905   5.045   6.216  0.00  0.00    +0.105 C 
ENDROOT
BRANCH   3   7
ATOM      7  C   UNL     1      -0.019   3.496   3.240  0.00  0.00    -0.012 A 
ATOM      8  C   UNL     1       0.147   3.199   1.900  0.00  0.00    +0.115 A 
ATOM      9  N   UNL     1      -0.397   2.117   1.377  0.00  0.00    -0.263 NA
ATOM     10  C   UNL     1      -1.115   1.283   2.101  0.00  0.00    +0.111 A 
ATOM     11  C   UNL     1      -1.324   1.514   3.448  0.00  0.00    +0.020 A 
ATOM     12  C   UNL     1      -0.763   2.638   4.035  0.00  0.00    +0.008 A 
ENDBRANCH   3   7
TORSDOF 1
ENDMDL
MODEL 2
REMARK VINA RESULT:    -3.323      1.510      4.679
REMARK INTER + INTRA:          -3.710
REMARK INTER:                  -3.517
REMARK INTRA:                  -0.193
REMARK UNBOUND:                -0.192
REMARK  Name = Nicotine.pdb
REMARK  2 active torsions:
REMARK  status: ('A' for Active; 'I' for Inactive)
REMARK    1  A    between atoms: C_3  and  C_6
REMARK    2  A    between atoms: N_4  and  C_12
REMARK                            x       y       z     vdW  Elec       q    Type
REMARK                         _______ _______ _______ _____ _____    ______ ____
ROOT
ATOM      1  C   UNL     1      -1.615   1.162   1.819  0.00  0.00    +0.017 C 
ATOM      2  C   UNL     1      -0.993   1.407   3.219  0.00  0.00    +0.025 C 
ATOM      3  C   UNL     1      -1.339   2.885   3.500  0.00  0.00    +0.088 C 
ATOM      4  N   UNL     1      -1.584   3.530   2.197  0.00  0.00    -0.298 NA
ATOM      5  C   UNL     1      -1.380   2.529   1.129  0.00  0.00    +0.085 C 
ATOM      6  C   UNL     1      -2.937   4.098   2.136  0.00  0.00    +0.105 C 
ENDROOT
BRANCH   3   7
ATOM      7  C   UNL     1      -0.187   3.558   4.199  0.00  0.00    -0.012 A 
ATOM      8  C   UNL     1      -0.209   3.738   5.569  0.00  0.00    +0.115 A 
ATOM      9  N   UNL     1       0.795   4.326   6.189  0.00  0.00    -0.263 NA
ATOM     10  C   UNL     1       1.853   4.763   5.534  0.00  0.00    +0.111 A 
ATOM     11  C   UNL     1       1.947   4.617   4.163  0.00  0.00    +0.020 A 
ATOM     12  C   UNL     1       0.912   3.999   3.477  0.00  0.00    +0.008 A 
ENDBRANCH   3   7
TORSDOF 1
ENDMDL
MODEL 3
REMARK VINA RESULT:    -3.159      8.224     10.128
REMARK INTER + INTRA:          -3.536
REMARK INTER:                  -3.324
REMARK INTRA:                  -0.212
REMARK UNBOUND:                -0.192
REMARK  Name = Nicotine.pdb
REMARK  2 active torsions:
REMARK  status: ('A' for Active; 'I' for Inactive)
REMARK    1  A    between atoms: C_3  and  C_6
REMARK    2  A    between atoms: N_4  and  C_12
REMARK                            x       y       z     vdW  Elec       q    Type
REMARK                         _______ _______ _______ _____ _____    ______ ____
ROOT
ATOM      1  C   UNL     1       0.246  -4.163   1.076  0.00  0.00    +0.017 C 
ATOM      2  C   UNL     1       1.597  -3.448   1.340  0.00  0.00    +0.025 C 
ATOM      3  C   UNL     1       2.521  -4.041   0.256  0.00  0.00    +0.088 C 
ATOM      4  N   UNL     1       1.940  -5.331  -0.155  0.00  0.00    -0.298 NA
ATOM      5  C   UNL     1       0.718  -5.573   0.640  0.00  0.00    +0.085 C 
ATOM      6  C   UNL     1       1.644  -5.341  -1.594  0.00  0.00    +0.105 C 
ENDROOT
BRANCH   3   7
ATOM      7  C   UNL     1       3.902  -4.255   0.821  0.00  0.00    -0.012 A 
ATOM      8  C   UNL     1       4.066  -4.637   2.139  0.00  0.00    +0.115 A 
ATOM      9  N   UNL     1       5.271  -4.827   2.641  0.00  0.00    -0.263 NA
ATOM     10  C   UNL     1       6.358  -4.662   1.915  0.00  0.00    +0.111 A 
ATOM     11  C   UNL     1       6.272  -4.281   0.588  0.00  0.00    +0.020 A 
ATOM     12  C   UNL     1       5.023  -4.078   0.024  0.00  0.00    +0.008 A 
ENDBRANCH   3   7
TORSDOF 1
ENDMDL
MODEL 4
REMARK VINA RESULT:    -3.120      7.951      9.514
REMARK INTER + INTRA:          -3.494
REMARK INTER:                  -3.279
REMARK INTRA:                  -0.215
REMARK UNBOUND:                -0.192
REMARK  Name = Nicotine.pdb
REMARK  2 active torsions:
REMARK  status: ('A' for Active; 'I' for Inactive)
REMARK    1  A    between atoms: C_3  and  C_6
REMARK    2  A    between atoms: N_4  and  C_12
REMARK                            x       y       z     vdW  Elec       q    Type
REMARK                         _______ _______ _______ _____ _____    ______ ____
ROOT
ATOM      1  C   UNL     1      -0.209  -3.183  -0.890  0.00  0.00    +0.017 C 
ATOM      2  C   UNL     1       1.237  -3.722  -1.050  0.00  0.00    +0.025 C 
ATOM      3  C   UNL     1       1.384  -4.681   0.150  0.00  0.00    +0.088 C 
ATOM      4  N   UNL     1       0.391  -4.273   1.160  0.00  0.00    -0.298 NA
ATOM      5  C   UNL     1      -0.342  -3.095   0.651  0.00  0.00    +0.085 C 
ATOM      6  C   UNL     1      -0.531  -5.375   1.468  0.00  0.00    +0.105 C 
ENDROOT
BRANCH   3   7
ATOM      7  C   UNL     1       2.773  -4.576   0.723  0.00  0.00    -0.012 A 
ATOM      8  C   UNL     1       3.000  -4.841   2.061  0.00  0.00    +0.115 A 
ATOM      9  N   UNL     1       4.213  -4.751   2.571  0.00  0.00    -0.263 NA
ATOM     10  C   UNL     1       5.250  -4.408   1.834  0.00  0.00    +0.111 A 
ATOM     11  C   UNL     1       5.101  -4.128   0.488  0.00  0.00    +0.020 A 
ATOM     12  C   UNL     1       3.842  -4.217  -0.084  0.00  0.00    +0.008 A 
ENDBRANCH   3   7
TORSDOF 1
ENDMDL
MODEL 5
REMARK VINA RESULT:    -3.101      1.717      2.745
REMARK INTER + INTRA:          -3.475
REMARK INTER:                  -3.248
REMARK INTRA:                  -0.227
REMARK UNBOUND:                -0.192
REMARK  Name = Nicotine.pdb
REMARK  2 active torsions:
REMARK  status: ('A' for Active; 'I' for Inactive)
REMARK    1  A    between atoms: C_3  and  C_6
REMARK    2  A    between atoms: N_4  and  C_12
REMARK                            x       y       z     vdW  Elec       q    Type
REMARK                         _______ _______ _______ _____ _____    ______ ____
ROOT
ATOM      1  C   UNL     1      -1.552   5.812   4.071  0.00  0.00    +0.017 C 
ATOM      2  C   UNL     1      -2.138   4.396   4.317  0.00  0.00    +0.025 C 
ATOM      3  C   UNL     1      -0.922   3.473   4.088  0.00  0.00    +0.088 C 
ATOM      4  N   UNL     1       0.037   4.214   3.249  0.00  0.00    -0.298 NA
ATOM      5  C   UNL     1      -0.540   5.537   2.930  0.00  0.00    +0.085 C 
ATOM      6  C   UNL     1       1.332   4.353   3.927  0.00  0.00    +0.105 C 
ENDROOT
BRANCH   3   7
ATOM      7  C   UNL     1      -1.359   2.216   3.382  0.00  0.00    -0.012 A 
ATOM      8  C   UNL     1      -0.421   1.336   2.877  0.00  0.00    +0.115 A 
ATOM      9  N   UNL     1      -0.795   0.233   2.257  0.00  0.00    -0.263 NA
ATOM     10  C   UNL     1      -2.067  -0.073   2.094  0.00  0.00    +0.111 A 
ATOM     11  C   UNL     1      -3.062   0.759   2.573  0.00  0.00    +0.020 A 
ATOM     12  C   UNL     1      -2.707   1.924   3.235  0.00  0.00    +0.008 A 
ENDBRANCH   3   7
TORSDOF 1
ENDMDL
MODEL 6
REMARK VINA RESULT:    -3.094      2.006      5.139
REMARK INTER + INTRA:          -3.467
REMARK INTER:                  -3.244
REMARK INTRA:                  -0.223
REMARK UNBOUND:                -0.192
REMARK  Name = Nicotine.pdb
REMARK  2 active torsions:
REMARK  status: ('A' for Active; 'I' for Inactive)
REMARK    1  A    between atoms: C_3  and  C_6
REMARK    2  A    between atoms: N_4  and  C_12
REMARK                            x       y       z     vdW  Elec       q    Type
REMARK                         _______ _______ _______ _____ _____    ______ ____
ROOT
ATOM      1  C   UNL     1      -4.554   1.267   3.010  0.00  0.00    +0.017 C 
ATOM      2  C   UNL     1      -3.705   2.541   2.763  0.00  0.00    +0.025 C 
ATOM      3  C   UNL     1      -2.382   1.974   2.207  0.00  0.00    +0.088 C 
ATOM      4  N   UNL     1      -2.287   0.571   2.650  0.00  0.00    -0.298 NA
ATOM      5  C   UNL     1      -3.475   0.256   3.472  0.00  0.00    +0.085 C 
ATOM      6  C   UNL     1      -2.184  -0.338   1.501  0.00  0.00    +0.105 C 
ENDROOT
BRANCH   3   7
ATOM      7  C   UNL     1      -1.218   2.763   2.749  0.00  0.00    -0.012 A 
ATOM      8  C   UNL     1      -0.317   3.360   1.887  0.00  0.00    +0.115 A 
ATOM      9  N   UNL     1       0.705   4.053   2.353  0.00  0.00    -0.263 NA
ATOM     10  C   UNL     1       0.907   4.204   3.646  0.00  0.00    +0.111 A 
ATOM     11  C   UNL     1       0.048   3.636   4.568  0.00  0.00    +0.020 A 
ATOM     12  C   UNL     1      -1.040   2.905   4.116  0.00  0.00    +0.008 A 
ENDBRANCH   3   7
TORSDOF 1
ENDMDL
MODEL 7
REMARK VINA RESULT:    -3.069      2.354      3.010
REMARK INTER + INTRA:          -3.441
REMARK INTER:                  -3.185
REMARK INTRA:                  -0.256
REMARK UNBOUND:                -0.192
REMARK  Name = Nicotine.pdb
REMARK  2 active torsions:
REMARK  status: ('A' for Active; 'I' for Inactive)
REMARK    1  A    between atoms: C_3  and  C_6
REMARK    2  A    between atoms: N_4  and  C_12
REMARK                            x       y       z     vdW  Elec       q    Type
REMARK                         _______ _______ _______ _____ _____    ______ ____
ROOT
ATOM      1  C   UNL     1       0.933   3.963   3.742  0.00  0.00    +0.017 C 
ATOM      2  C   UNL     1      -0.052   3.242   2.785  0.00  0.00    +0.025 C 
ATOM      3  C   UNL     1      -1.429   3.767   3.244  0.00  0.00    +0.088 C 
ATOM      4  N   UNL     1      -1.278   4.235   4.633  0.00  0.00    -0.298 NA
ATOM      5  C   UNL     1       0.118   4.000   5.060  0.00  0.00    +0.085 C 
ATOM      6  C   UNL     1      -1.634   5.655   4.754  0.00  0.00    +0.105 C 
ENDROOT
BRANCH   3   7
ATOM      7  C   UNL     1      -2.447   2.658   3.183  0.00  0.00    -0.012 A 
ATOM      8  C   UNL     1      -3.795   2.950   3.093  0.00  0.00    +0.115 A 
ATOM      9  N   UNL     1      -4.693   1.986   3.039  0.00  0.00    -0.263 NA
ATOM     10  C   UNL     1      -4.346   0.714   3.068  0.00  0.00    +0.111 A 
ATOM     11  C   UNL     1      -3.016   0.345   3.157  0.00  0.00    +0.020 A 
ATOM     12  C   UNL     1      -2.044   1.332   3.210  0.00  0.00    +0.008 A 
ENDBRANCH   3   7
TORSDOF 1
ENDMDL
MODEL 8
REMARK VINA RESULT:    -3.037      1.445      4.591
REMARK INTER + INTRA:          -3.407
REMARK INTER:                  -3.224
REMARK INTRA:                  -0.183
REMARK UNBOUND:                -0.192
REMARK  Name = Nicotine.pdb
REMARK  2 active torsions:
REMARK  status: ('A' for Active; 'I' for Inactive)
REMARK    1  A    between atoms: C_3  and  C_6
REMARK    2  A    between atoms: N_4  and  C_12
REMARK                            x       y       z     vdW  Elec       q    Type
REMARK                         _______ _______ _______ _____ _____    ______ ____
ROOT
ATOM      1  C   UNL     1      -1.860   0.737   1.948  0.00  0.00    +0.017 C 
ATOM      2  C   UNL     1      -1.264   1.222   3.296  0.00  0.00    +0.025 C 
ATOM      3  C   UNL     1      -1.555   2.738   3.278  0.00  0.00    +0.088 C 
ATOM      4  N   UNL     1      -1.739   3.131   1.869  0.00  0.00    -0.298 NA
ATOM      5  C   UNL     1      -1.549   1.937   1.018  0.00  0.00    +0.085 C 
ATOM      6  C   UNL     1      -3.064   3.725   1.656  0.00  0.00    +0.105 C 
ENDROOT
BRANCH   3   7
ATOM      7  C   UNL     1      -0.394   3.490   3.875  0.00  0.00    -0.012 A 
ATOM      8  C   UNL     1       0.602   3.998   3.062  0.00  0.00    +0.115 A 
ATOM      9  N   UNL     1       1.621   4.657   3.576  0.00  0.00    -0.263 NA
ATOM     10  C   UNL     1       1.734   4.857   4.874  0.00  0.00    +0.111 A 
ATOM     11  C   UNL     1       0.776   4.379   5.749  0.00  0.00    +0.020 A 
ATOM     12  C   UNL     1      -0.313   3.686   5.245  0.00  0.00    +0.008 A 
ENDBRANCH   3   7
TORSDOF 1
ENDMDL
MODEL 9
REMARK VINA RESULT:    -3.017      8.275     10.034
REMARK INTER + INTRA:          -3.386
REMARK INTER:                  -3.155
REMARK INTRA:                  -0.231
REMARK UNBOUND:                -0.192
REMARK  Name = Nicotine.pdb
REMARK  2 active torsions:
REMARK  status: ('A' for Active; 'I' for Inactive)
REMARK    1  A    between atoms: C_3  and  C_6
REMARK    2  A    between atoms: N_4  and  C_12
REMARK                            x       y       z     vdW  Elec       q    Type
REMARK                         _______ _______ _______ _____ _____    ______ ____
ROOT
ATOM      1  C   UNL     1       1.643  -3.766  -0.052  0.00  0.00    +0.017 C 
ATOM      2  C   UNL     1       3.070  -4.299  -0.348  0.00  0.00    +0.025 C 
ATOM      3  C   UNL     1       3.501  -4.904   1.005  0.00  0.00    +0.088 C 
ATOM      4  N   UNL     1       2.683  -4.264   2.051  0.00  0.00    -0.298 NA
ATOM      5  C   UNL     1       1.789  -3.277   1.410  0.00  0.00    +0.085 C 
ATOM      6  C   UNL     1       1.913  -5.263   2.803  0.00  0.00    +0.105 C 
ENDROOT
BRANCH   3   7
ATOM      7  C   UNL     1       4.961  -4.624   1.250  0.00  0.00    -0.012 A 
ATOM      8  C   UNL     1       5.544  -4.960   2.457  0.00  0.00    +0.115 A 
ATOM      9  N   UNL     1       6.822  -4.718   2.679  0.00  0.00    -0.263 NA
ATOM     10  C   UNL     1       7.588  -4.151   1.769  0.00  0.00    +0.111 A 
ATOM     11  C   UNL     1       7.075  -3.787   0.538  0.00  0.00    +0.020 A 
ATOM     12  C   UNL     1       5.737  -4.031   0.266  0.00  0.00    +0.008 A 
ENDBRANCH   3   7
TORSDOF 1
ENDMDL
MODEL 10
REMARK VINA RESULT:    -3.015      8.751      9.897
REMARK INTER + INTRA:          -3.383
REMARK INTER:                  -3.133
REMARK INTRA:                  -0.250
REMARK UNBOUND:                -0.192
REMARK  Name = Nicotine.pdb
REMARK  2 active torsions:
REMARK  status: ('A' for Active; 'I' for Inactive)
REMARK    1  A    between atoms: C_3  and  C_6
REMARK    2  A    between atoms: N_4  and  C_12
REMARK                            x       y       z     vdW  Elec       q    Type
REMARK                         _______ _______ _______ _____ _____    ______ ____
ROOT
ATOM      1  C   UNL     1       7.935  -4.511   2.266  0.00  0.00    +0.017 C 
ATOM      2  C   UNL     1       6.467  -5.010   2.316  0.00  0.00    +0.025 C 
ATOM      3  C   UNL     1       6.004  -4.875   0.850  0.00  0.00    +0.088 C 
ATOM      4  N   UNL     1       6.881  -3.882   0.204  0.00  0.00    -0.298 NA
ATOM      5  C   UNL     1       7.845  -3.382   1.208  0.00  0.00    +0.085 C 
ATOM      6  C   UNL     1       7.578  -4.466  -0.950  0.00  0.00    +0.105 C 
ENDROOT
BRANCH   3   7
ATOM      7  C   UNL     1       4.574  -4.402   0.806  0.00  0.00    -0.012 A 
ATOM      8  C   UNL     1       3.886  -4.366  -0.393  0.00  0.00    +0.115 A 
ATOM      9  N   UNL     1       2.634  -3.954  -0.440  0.00  0.00    -0.263 NA
ATOM     10  C   UNL     1       1.992  -3.563   0.642  0.00  0.00    +0.111 A 
ATOM     11  C   UNL     1       2.614  -3.572   1.877  0.00  0.00    +0.020 A 
ATOM     12  C   UNL     1       3.929  -4.004   1.967  0.00  0.00    +0.008 A 
ENDBRANCH   3   7
TORSDOF 1
ENDMDL
