MODEL 1
REMARK VINA RESULT:    17.749      0.000      0.000
REMARK INTER + INTRA:          18.579
REMARK INTER:                  18.787
REMARK INTRA:                  -0.208
REMARK UNBOUND:                -0.208
REMARK  Name = Nicotine.pdb
REMARK  2 active torsions:
REMARK  status: ('A' for Active; 'I' for Inactive)
REMARK    1  A    between atoms: C_3  and  C_6
REMARK    2  A    between atoms: N_4  and  C_12
REMARK                            x       y       z     vdW  Elec       q    Type
REMARK                         _______ _______ _______ _____ _____    ______ ____
ROOT
ATOM      1  C   UNL     1      -4.286   3.495   2.120  0.00  0.00    +0.017 C 
ATOM      2  C   UNL     1      -4.351   3.240   0.591  0.00  0.00    +0.025 C 
ATOM      3  C   UNL     1      -3.820   1.797   0.456  0.00  0.00    +0.088 C 
ATOM      4  N   UNL     1      -3.013   1.515   1.657  0.00  0.00    -0.298 NA
ATOM      5  C   UNL     1      -3.001   2.722   2.511  0.00  0.00    +0.085 C 
ATOM      6  C   UNL     1      -3.543   0.357   2.389  0.00  0.00    +0.105 C 
ENDROOT
BRANCH   3   7
ATOM      7  C   UNL     1      -2.964   1.679  -0.778  0.00  0.00    -0.012 A 
ATOM      8  C   UNL     1      -3.543   1.673  -2.032  0.00  0.00    +0.115 A 
ATOM      9  N   UNL     1      -2.801   1.570  -3.118  0.00  0.00    -0.263 NA
ATOM     10  C   UNL     1      -1.488   1.469  -3.052  0.00  0.00    +0.111 A 
ATOM     11  C   UNL     1      -0.838   1.468  -1.832  0.00  0.00    +0.020 A 
ATOM     12  C   UNL     1      -1.585   1.580  -0.670  0.00  0.00    +0.008 A 
ENDBRANCH   3   7
TORSDOF 1
ENDMDL
MODEL 2
REMARK VINA RESULT:    17.852      1.029      1.918
REMARK INTER + INTRA:          18.687
REMARK INTER:                  18.906
REMARK INTRA:                  -0.219
REMARK UNBOUND:                -0.208
REMARK  Name = Nicotine.pdb
REMARK  2 active torsions:
REMARK  status: ('A' for Active; 'I' for Inactive)
REMARK    1  A    between atoms: C_3  and  C_6
REMARK    2  A    between atoms: N_4  and  C_12
REMARK                            x       y       z     vdW  Elec       q    Type
REMARK                         _______ _______ _______ _____ _____    ______ ____
ROOT
ATOM      1  C   UNL     1      -2.917   0.853   2.568  0.00  0.00    +0.017 C 
ATOM      2  C   UNL     1      -1.857   0.996   1.445  0.00  0.00    +0.025 C 
ATOM      3  C   UNL     1      -2.465   2.079   0.529  0.00  0.00    +0.088 C 
ATOM      4  N   UNL     1      -3.918   2.096   0.777  0.00  0.00    -0.298 NA
ATOM      5  C   UNL     1      -4.236   1.059   1.782  0.00  0.00    +0.085 C 
ATOM      6  C   UNL     1      -4.360   3.421   1.230  0.00  0.00    +0.105 C 
ENDROOT
BRANCH   3   7
ATOM      7  C   UNL     1      -2.193   1.742  -0.914  0.00  0.00    -0.012 A 
ATOM      8  C   UNL     1      -3.199   1.843  -1.856  0.00  0.00    +0.115 A 
ATOM      9  N   UNL     1      -2.970   1.550  -3.122  0.00  0.00    -0.263 NA
ATOM     10  C   UNL     1      -1.783   1.152  -3.537  0.00  0.00    +0.111 A 
ATOM     11  C   UNL     1      -0.729   1.028  -2.652  0.00  0.00    +0.020 A 
ATOM     12  C   UNL     1      -0.931   1.333  -1.314  0.00  0.00    +0.008 A 
ENDBRANCH   3   7
TORSDOF 1
ENDMDL
MODEL 3
REMARK VINA RESULT:    18.624      1.438      4.462
REMARK INTER + INTRA:          19.505
REMARK INTER:                  19.719
REMARK INTRA:                  -0.214
REMARK UNBOUND:                -0.208
REMARK  Name = Nicotine.pdb
REMARK  2 active torsions:
REMARK  status: ('A' for Active; 'I' for Inactive)
REMARK    1  A    between atoms: C_3  and  C_6
REMARK    2  A    between atoms: N_4  and  C_12
REMARK                            x       y       z     vdW  Elec       q    Type
REMARK                         _______ _______ _______ _____ _____    ______ ____
ROOT
ATOM      1  C   UNL     1      -1.679   1.407  -3.328  0.00  0.00    +0.017 C 
ATOM      2  C   UNL     1      -2.691   1.832  -2.231  0.00  0.00    +0.025 C 
ATOM      3  C   UNL     1      -1.786   2.106  -1.012  0.00  0.00    +0.088 C 
ATOM      4  N   UNL     1      -0.531   1.362  -1.223  0.00  0.00    -0.298 NA
ATOM      5  C   UNL     1      -0.630   0.624  -2.500  0.00  0.00    +0.085 C 
ATOM      6  C   UNL     1       0.625   2.268  -1.227  0.00  0.00    +0.105 C 
ENDROOT
BRANCH   3   7
ATOM      7  C   UNL     1      -2.462   1.628   0.247  0.00  0.00    -0.012 A 
ATOM      8  C   UNL     1      -3.665   2.177   0.646  0.00  0.00    +0.115 A 
ATOM      9  N   UNL     1      -4.264   1.764   1.746  0.00  0.00    -0.263 NA
ATOM     10  C   UNL     1      -3.745   0.818   2.504  0.00  0.00    +0.111 A 
ATOM     11  C   UNL     1      -2.544   0.221   2.168  0.00  0.00    +0.020 A 
ATOM     12  C   UNL     1      -1.888   0.626   1.016  0.00  0.00    +0.008 A 
ENDBRANCH   3   7
TORSDOF 1
ENDMDL
MODEL 4
REMARK VINA RESULT:    19.995      1.149      4.478
REMARK INTER + INTRA:          20.956
REMARK INTER:                  21.180
REMARK INTRA:                  -0.224
REMARK UNBOUND:                -0.208
REMARK  Name = Nicotine.pdb
REMARK  2 active torsions:
REMARK  status: ('A' for Active; 'I' for Inactive)
REMARK    1  A    between atoms: C_3  and  C_6
REMARK    2  A    between atoms: N_4  and  C_12
REMARK                            x       y       z     vdW  Elec       q    Type
REMARK                         _______ _______ _______ _____ _____    ______ ____
ROOT
ATOM      1  C   UNL     1      -1.056   1.264  -2.744  0.00  0.00    +0.017 C 
ATOM      2  C   UNL     1      -1.299   1.094  -1.221  0.00  0.00    +0.025 C 
ATOM      3  C   UNL     1      -2.838   1.103  -1.112  0.00  0.00    +0.088 C 
ATOM      4  N   UNL     1      -3.357   1.783  -2.312  0.00  0.00    -0.298 NA
ATOM      5  C   UNL     1      -2.212   2.216  -3.141  0.00  0.00    +0.085 C 
ATOM      6  C   UNL     1      -4.254   0.902  -3.071  0.00  0.00    +0.105 C 
ENDROOT
BRANCH   3   7
ATOM      7  C   UNL     1      -3.260   1.851   0.126  0.00  0.00    -0.012 A 
ATOM      8  C   UNL     1      -4.111   2.936   0.031  0.00  0.00    +0.115 A 
ATOM      9  N   UNL     1      -4.486   3.596   1.110  0.00  0.00    -0.263 NA
ATOM     10  C   UNL     1      -4.068   3.252   2.312  0.00  0.00    +0.111 A 
ATOM     11  C   UNL     1      -3.216   2.178   2.485  0.00  0.00    +0.020 A 
ATOM     12  C   UNL     1      -2.805   1.456   1.375  0.00  0.00    +0.008 A 
ENDBRANCH   3   7
TORSDOF 1
ENDMDL
