MODEL 1
REMARK VINA RESULT:    -3.208      0.000      0.000
REMARK INTER + INTRA:          -3.610
REMARK INTER:                  -3.395
REMARK INTRA:                  -0.215
REMARK UNBOUND:                -0.215
REMARK  Name = Nicotine.pdb
REMARK  2 active torsions:
REMARK  status: ('A' for Active; 'I' for Inactive)
REMARK    1  A    between atoms: C_3  and  C_6
REMARK    2  A    between atoms: N_4  and  C_12
REMARK                            x       y       z     vdW  Elec       q    Type
REMARK                         _______ _______ _______ _____ _____    ______ ____
ROOT
ATOM      1  C   UNL     1      -3.361   2.562  -1.207  0.00  0.00    +0.017 C 
ATOM      2  C   UNL     1      -1.866   2.200  -1.407  0.00  0.00    +0.025 C 
ATOM      3  C   UNL     1      -1.508   2.922  -2.724  0.00  0.00    +0.088 C 
ATOM      4  N   UNL     1      -2.767   3.144  -3.457  0.00  0.00    -0.298 NA
ATOM      5  C   UNL     1      -3.879   2.573  -2.667  0.00  0.00    +0.085 C 
ATOM      6  C   UNL     1      -2.983   4.574  -3.712  0.00  0.00    +0.105 C 
ENDROOT
BRANCH   3   7
ATOM      7  C   UNL     1      -0.581   2.062  -3.544  0.00  0.00    -0.012 A 
ATOM      8  C   UNL     1      -0.407   0.727  -3.232  0.00  0.00    +0.115 A 
ATOM      9  N   UNL     1       0.402  -0.033  -3.945  0.00  0.00    -0.263 NA
ATOM     10  C   UNL     1       1.073   0.445  -4.974  0.00  0.00    +0.111 A 
ATOM     11  C   UNL     1       0.949   1.770  -5.347  0.00  0.00    +0.020 A 
ATOM     12  C   UNL     1       0.103   2.598  -4.624  0.00  0.00    +0.008 A 
ENDBRANCH   3   7
TORSDOF 1
ENDMDL
MODEL 2
REMARK VINA RESULT:    -3.178      4.545      6.533
REMARK INTER + INTRA:          -3.579
REMARK INTER:                  -3.390
REMARK INTRA:                  -0.188
REMARK UNBOUND:                -0.215
REMARK  Name = Nicotine.pdb
REMARK  2 active torsions:
REMARK  status: ('A' for Active; 'I' for Inactive)
REMARK    1  A    between atoms: C_3  and  C_6
REMARK    2  A    between atoms: N_4  and  C_12
REMARK                            x       y       z     vdW  Elec       q    Type
REMARK                         _______ _______ _______ _____ _____    ______ ____
ROOT
ATOM      1  C   UNL     1       3.678  -1.067  -0.615  0.00  0.00    +0.017 C 
ATOM      2  C   UNL     1       2.505  -0.868  -1.610  0.00  0.00    +0.025 C 
ATOM      3  C   UNL     1       2.714  -2.011  -2.626  0.00  0.00    +0.088 C 
ATOM      4  N   UNL     1       4.131  -2.409  -2.550  0.00  0.00    -0.298 NA
ATOM      5  C   UNL     1       4.809  -1.550  -1.557  0.00  0.00    +0.085 C 
ATOM      6  C   UNL     1       4.262  -3.829  -2.196  0.00  0.00    +0.105 C 
ENDROOT
BRANCH   3   7
ATOM      7  C   UNL     1       2.390  -1.528  -4.016  0.00  0.00    -0.012 A 
ATOM      8  C   UNL     1       1.385  -0.600  -4.217  0.00  0.00    +0.115 A 
ATOM      9  N   UNL     1       1.094  -0.172  -5.430  0.00  0.00    -0.263 NA
ATOM     10  C   UNL     1       1.743  -0.607  -6.492  0.00  0.00    +0.111 A 
ATOM     11  C   UNL     1       2.761  -1.535  -6.369  0.00  0.00    +0.020 A 
ATOM     12  C   UNL     1       3.098  -2.004  -5.109  0.00  0.00    +0.008 A 
ENDBRANCH   3   7
TORSDOF 1
ENDMDL
MODEL 3
REMARK VINA RESULT:    -3.056      4.082      6.170
REMARK INTER + INTRA:          -3.450
REMARK INTER:                  -3.207
REMARK INTRA:                  -0.242
REMARK UNBOUND:                -0.215
REMARK  Name = Nicotine.pdb
REMARK  2 active torsions:
REMARK  status: ('A' for Active; 'I' for Inactive)
REMARK    1  A    between atoms: C_3  and  C_6
REMARK    2  A    between atoms: N_4  and  C_12
REMARK                            x       y       z     vdW  Elec       q    Type
REMARK                         _______ _______ _______ _____ _____    ______ ____
ROOT
ATOM      1  C   UNL     1       2.937  -0.612  -7.178  0.00  0.00    +0.017 C 
ATOM      2  C   UNL     1       2.700  -1.735  -6.133  0.00  0.00    +0.025 C 
ATOM      3  C   UNL     1       1.963  -0.999  -4.994  0.00  0.00    +0.088 C 
ATOM      4  N   UNL     1       2.283   0.434  -5.121  0.00  0.00    -0.298 NA
ATOM      5  C   UNL     1       3.200   0.613  -6.266  0.00  0.00    +0.085 C 
ATOM      6  C   UNL     1       1.062   1.233  -5.294  0.00  0.00    +0.105 C 
ENDROOT
BRANCH   3   7
ATOM      7  C   UNL     1       2.436  -1.515  -3.660  0.00  0.00    -0.012 A 
ATOM      8  C   UNL     1       1.884  -1.033  -2.488  0.00  0.00    +0.115 A 
ATOM      9  N   UNL     1       2.292  -1.479  -1.316  0.00  0.00    -0.263 NA
ATOM     10  C   UNL     1       3.234  -2.395  -1.214  0.00  0.00    +0.111 A 
ATOM     11  C   UNL     1       3.833  -2.925  -2.342  0.00  0.00    +0.020 A 
ATOM     12  C   UNL     1       3.426  -2.484  -3.592  0.00  0.00    +0.008 A 
ENDBRANCH   3   7
TORSDOF 1
ENDMDL
MODEL 4
REMARK VINA RESULT:    -3.049      2.884      5.642
REMARK INTER + INTRA:          -3.442
REMARK INTER:                  -3.215
REMARK INTRA:                  -0.227
REMARK UNBOUND:                -0.215
REMARK  Name = Nicotine.pdb
REMARK  2 active torsions:
REMARK  status: ('A' for Active; 'I' for Inactive)
REMARK    1  A    between atoms: C_3  and  C_6
REMARK    2  A    between atoms: N_4  and  C_12
REMARK                            x       y       z     vdW  Elec       q    Type
REMARK                         _______ _______ _______ _____ _____    ______ ____
ROOT
ATOM      1  C   UNL     1       3.170  -0.780  -7.220  0.00  0.00    +0.017 C 
ATOM      2  C   UNL     1       3.027   0.742  -6.959  0.00  0.00    +0.025 C 
ATOM      3  C   UNL     1       2.231   0.795  -5.637  0.00  0.00    +0.088 C 
ATOM      4  N   UNL     1       1.517  -0.489  -5.506  0.00  0.00    -0.298 NA
ATOM      5  C   UNL     1       1.816  -1.317  -6.694  0.00  0.00    +0.085 C 
ATOM      6  C   UNL     1       1.903  -1.182  -4.270  0.00  0.00    +0.105 C 
ENDROOT
BRANCH   3   7
ATOM      7  C   UNL     1       1.242   1.931  -5.679  0.00  0.00    -0.012 A 
ATOM      8  C   UNL     1       0.270   2.048  -4.703  0.00  0.00    +0.115 A 
ATOM      9  N   UNL     1      -0.599   3.039  -4.732  0.00  0.00    -0.263 NA
ATOM     10  C   UNL     1      -0.579   3.951  -5.684  0.00  0.00    +0.111 A 
ATOM     11  C   UNL     1       0.364   3.899  -6.694  0.00  0.00    +0.020 A 
ATOM     12  C   UNL     1       1.298   2.874  -6.693  0.00  0.00    +0.008 A 
ENDBRANCH   3   7
TORSDOF 1
ENDMDL
MODEL 5
REMARK VINA RESULT:    -3.039      4.328      5.274
REMARK INTER + INTRA:          -3.431
REMARK INTER:                  -3.208
REMARK INTRA:                  -0.224
REMARK UNBOUND:                -0.215
REMARK  Name = Nicotine.pdb
REMARK  2 active torsions:
REMARK  status: ('A' for Active; 'I' for Inactive)
REMARK    1  A    between atoms: C_3  and  C_6
REMARK    2  A    between atoms: N_4  and  C_12
REMARK                            x       y       z     vdW  Elec       q    Type
REMARK                         _______ _______ _______ _____ _____    ______ ____
ROOT
ATOM      1  C   UNL     1       2.304  -1.947  -0.227  0.00  0.00    +0.017 C 
ATOM      2  C   UNL     1       2.925  -2.211  -1.624  0.00  0.00    +0.025 C 
ATOM      3  C   UNL     1       2.869  -0.823  -2.297  0.00  0.00    +0.088 C 
ATOM      4  N   UNL     1       1.823  -0.046  -1.609  0.00  0.00    -0.298 NA
ATOM      5  C   UNL     1       1.216  -0.896  -0.563  0.00  0.00    +0.085 C 
ATOM      6  C   UNL     1       2.375   1.187  -1.032  0.00  0.00    +0.105 C 
ENDROOT
BRANCH   3   7
ATOM      7  C   UNL     1       2.522  -0.974  -3.756  0.00  0.00    -0.012 A 
ATOM      8  C   UNL     1       1.448  -0.291  -4.293  0.00  0.00    +0.115 A 
ATOM      9  N   UNL     1       1.137  -0.417  -5.568  0.00  0.00    -0.263 NA
ATOM     10  C   UNL     1       1.830  -1.194  -6.377  0.00  0.00    +0.111 A 
ATOM     11  C   UNL     1       2.918  -1.909  -5.911  0.00  0.00    +0.020 A 
ATOM     12  C   UNL     1       3.278  -1.797  -4.577  0.00  0.00    +0.008 A 
ENDBRANCH   3   7
TORSDOF 1
ENDMDL
MODEL 6
REMARK VINA RESULT:    -3.036      1.118      4.498
REMARK INTER + INTRA:          -3.428
REMARK INTER:                  -3.172
REMARK INTRA:                  -0.256
REMARK UNBOUND:                -0.215
REMARK  Name = Nicotine.pdb
REMARK  2 active torsions:
REMARK  status: ('A' for Active; 'I' for Inactive)
REMARK    1  A    between atoms: C_3  and  C_6
REMARK    2  A    between atoms: N_4  and  C_12
REMARK                            x       y       z     vdW  Elec       q    Type
REMARK                         _______ _______ _______ _____ _____    ______ ____
ROOT
ATOM      1  C   UNL     1       1.981   2.123  -5.001  0.00  0.00    +0.017 C 
ATOM      2  C   UNL     1       1.038   2.947  -4.085  0.00  0.00    +0.025 C 
ATOM      3  C   UNL     1       0.227   1.858  -3.351  0.00  0.00    +0.088 C 
ATOM      4  N   UNL     1       0.287   0.638  -4.177  0.00  0.00    -0.298 NA
ATOM      5  C   UNL     1       1.073   0.931  -5.394  0.00  0.00    +0.085 C 
ATOM      6  C   UNL     1       0.875  -0.478  -3.426  0.00  0.00    +0.105 C 
ENDROOT
BRANCH   3   7
ATOM      7  C   UNL     1      -1.204   2.302  -3.194  0.00  0.00    -0.012 A 
ATOM      8  C   UNL     1      -2.021   1.708  -2.251  0.00  0.00    +0.115 A 
ATOM      9  N   UNL     1      -3.274   2.091  -2.106  0.00  0.00    -0.263 NA
ATOM     10  C   UNL     1      -3.796   3.048  -2.848  0.00  0.00    +0.111 A 
ATOM     11  C   UNL     1      -3.040   3.689  -3.811  0.00  0.00    +0.020 A 
ATOM     12  C   UNL     1      -1.716   3.317  -3.988  0.00  0.00    +0.008 A 
ENDBRANCH   3   7
TORSDOF 1
ENDMDL
MODEL 7
REMARK VINA RESULT:    -2.979      1.230      1.999
REMARK INTER + INTRA:          -3.368
REMARK INTER:                  -3.173
REMARK INTRA:                  -0.196
REMARK UNBOUND:                -0.215
REMARK  Name = Nicotine.pdb
REMARK  2 active torsions:
REMARK  status: ('A' for Active; 'I' for Inactive)
REMARK    1  A    between atoms: C_3  and  C_6
REMARK    2  A    between atoms: N_4  and  C_12
REMARK                            x       y       z     vdW  Elec       q    Type
REMARK                         _______ _______ _______ _____ _____    ______ ____
ROOT
ATOM      1  C   UNL     1      -1.934   3.819  -0.797  0.00  0.00    +0.017 C 
ATOM      2  C   UNL     1      -0.821   3.523  -1.837  0.00  0.00    +0.025 C 
ATOM      3  C   UNL     1      -1.532   2.606  -2.854  0.00  0.00    +0.088 C 
ATOM      4  N   UNL     1      -2.682   1.995  -2.163  0.00  0.00    -0.298 NA
ATOM      5  C   UNL     1      -2.698   2.472  -0.764  0.00  0.00    +0.085 C 
ATOM      6  C   UNL     1      -3.941   2.320  -2.846  0.00  0.00    +0.105 C 
ENDROOT
BRANCH   3   7
ATOM      7  C   UNL     1      -0.586   1.532  -3.325  0.00  0.00    -0.012 A 
ATOM      8  C   UNL     1       0.012   1.622  -4.568  0.00  0.00    +0.115 A 
ATOM      9  N   UNL     1       0.842   0.687  -4.987  0.00  0.00    -0.263 NA
ATOM     10  C   UNL     1       1.133  -0.364  -4.246  0.00  0.00    +0.111 A 
ATOM     11  C   UNL     1       0.574  -0.522  -2.992  0.00  0.00    +0.020 A 
ATOM     12  C   UNL     1      -0.299   0.444  -2.515  0.00  0.00    +0.008 A 
ENDBRANCH   3   7
TORSDOF 1
ENDMDL
MODEL 8
REMARK VINA RESULT:    -2.877      2.084      5.511
REMARK INTER + INTRA:          -3.260
REMARK INTER:                  -3.043
REMARK INTRA:                  -0.217
REMARK UNBOUND:                -0.215
REMARK  Name = Nicotine.pdb
REMARK  2 active torsions:
REMARK  status: ('A' for Active; 'I' for Inactive)
REMARK    1  A    between atoms: C_3  and  C_6
REMARK    2  A    between atoms: N_4  and  C_12
REMARK                            x       y       z     vdW  Elec       q    Type
REMARK                         _______ _______ _______ _____ _____    ______ ____
ROOT
ATOM      1  C   UNL     1       3.419  -1.666  -4.259  0.00  0.00    +0.017 C 
ATOM      2  C   UNL     1       1.940  -1.320  -3.944  0.00  0.00    +0.025 C 
ATOM      3  C   UNL     1       1.566  -0.334  -5.071  0.00  0.00    +0.088 C 
ATOM      4  N   UNL     1       2.823   0.247  -5.577  0.00  0.00    -0.298 NA
ATOM      5  C   UNL     1       3.948  -0.315  -4.800  0.00  0.00    +0.085 C 
ATOM      6  C   UNL     1       2.987  -0.021  -7.011  0.00  0.00    +0.105 C 
ENDROOT
BRANCH   3   7
ATOM      7  C   UNL     1       0.679   0.755  -4.525  0.00  0.00    -0.012 A 
ATOM      8  C   UNL     1       0.559   1.959  -5.194  0.00  0.00    +0.115 A 
ATOM      9  N   UNL     1      -0.215   2.918  -4.724  0.00  0.00    -0.263 NA
ATOM     10  C   UNL     1      -0.900   2.770  -3.607  0.00  0.00    +0.111 A 
ATOM     11  C   UNL     1      -0.830   1.593  -2.884  0.00  0.00    +0.020 A 
ATOM     12  C   UNL     1      -0.031   0.561  -3.350  0.00  0.00    +0.008 A 
ENDBRANCH   3   7
TORSDOF 1
ENDMDL
MODEL 9
REMARK VINA RESULT:    -2.844      2.224      3.706
REMARK INTER + INTRA:          -3.225
REMARK INTER:                  -3.057
REMARK INTRA:                  -0.168
REMARK UNBOUND:                -0.215
REMARK  Name = Nicotine.pdb
REMARK  2 active torsions:
REMARK  status: ('A' for Active; 'I' for Inactive)
REMARK    1  A    between atoms: C_3  and  C_6
REMARK    2  A    between atoms: N_4  and  C_12
REMARK                            x       y       z     vdW  Elec       q    Type
REMARK                         _______ _______ _______ _____ _____    ______ ____
ROOT
ATOM      1  C   UNL     1      -1.143   1.488  -2.676  0.00  0.00    +0.017 C 
ATOM      2  C   UNL     1      -0.440   0.148  -3.017  0.00  0.00    +0.025 C 
ATOM      3  C   UNL     1       1.038   0.563  -3.180  0.00  0.00    +0.088 C 
ATOM      4  N   UNL     1       1.055   2.005  -3.484  0.00  0.00    -0.298 NA
ATOM      5  C   UNL     1      -0.340   2.491  -3.541  0.00  0.00    +0.085 C 
ATOM      6  C   UNL     1       1.831   2.746  -2.481  0.00  0.00    +0.105 C 
ENDROOT
BRANCH   3   7
ATOM      7  C   UNL     1       1.665  -0.208  -4.312  0.00  0.00    -0.012 A 
ATOM      8  C   UNL     1       1.395   0.131  -5.624  0.00  0.00    +0.115 A 
ATOM      9  N   UNL     1       1.940  -0.539  -6.620  0.00  0.00    -0.263 NA
ATOM     10  C   UNL     1       2.758  -1.551  -6.409  0.00  0.00    +0.111 A 
ATOM     11  C   UNL     1       3.076  -1.948  -5.124  0.00  0.00    +0.020 A 
ATOM     12  C   UNL     1       2.526  -1.264  -4.051  0.00  0.00    +0.008 A 
ENDBRANCH   3   7
TORSDOF 1
ENDMDL
MODEL 10
REMARK VINA RESULT:    -2.588      2.251      3.967
REMARK INTER + INTRA:          -2.954
REMARK INTER:                  -2.717
REMARK INTRA:                  -0.237
REMARK UNBOUND:                -0.215
REMARK  Name = Nicotine.pdb
REMARK  2 active torsions:
REMARK  status: ('A' for Active; 'I' for Inactive)
REMARK    1  A    between atoms: C_3  and  C_6
REMARK    2  A    between atoms: N_4  and  C_12
REMARK                            x       y       z     vdW  Elec       q    Type
REMARK                         _______ _______ _______ _____ _____    ______ ____
ROOT
ATOM      1  C   UNL     1      -4.046   2.527  -2.756  0.00  0.00    +0.017 C 
ATOM      2  C   UNL     1      -3.590   3.527  -3.850  0.00  0.00    +0.025 C 
ATOM      3  C   UNL     1      -2.059   3.336  -3.879  0.00  0.00    +0.088 C 
ATOM      4  N   UNL     1      -1.665   2.763  -2.579  0.00  0.00    -0.298 NA
ATOM      5  C   UNL     1      -2.876   2.616  -1.744  0.00  0.00    +0.085 C 
ATOM      6  C   UNL     1      -0.987   1.473  -2.756  0.00  0.00    +0.105 C 
ENDROOT
BRANCH   3   7
ATOM      7  C   UNL     1      -1.380   4.666  -4.081  0.00  0.00    -0.012 A 
ATOM      8  C   UNL     1      -0.000   4.751  -4.100  0.00  0.00    +0.115 A 
ATOM      9  N   UNL     1       0.602   5.911  -4.276  0.00  0.00    -0.263 NA
ATOM     10  C   UNL     1      -0.080   7.028  -4.440  0.00  0.00    +0.111 A 
ATOM     11  C   UNL     1      -1.462   7.021  -4.433  0.00  0.00    +0.020 A 
ATOM     12  C   UNL     1      -2.130   5.819  -4.255  0.00  0.00    +0.008 A 
ENDBRANCH   3   7
TORSDOF 1
ENDMDL
