MODEL 1
REMARK VINA RESULT:    -2.609      0.000      0.000
REMARK INTER + INTRA:          -2.973
REMARK INTER:                  -2.762
REMARK INTRA:                  -0.211
REMARK UNBOUND:                -0.211
REMARK  Name = Nicotine.pdb
REMARK  2 active torsions:
REMARK  status: ('A' for Active; 'I' for Inactive)
REMARK    1  A    between atoms: C_3  and  C_6
REMARK    2  A    between atoms: N_4  and  C_12
REMARK                            x       y       z     vdW  Elec       q    Type
REMARK                         _______ _______ _______ _____ _____    ______ ____
ROOT
ATOM      1  C   UNL     1      10.705   7.020  -1.761  0.00  0.00    +0.017 C 
ATOM      2  C   UNL     1      10.953   6.367  -3.147  0.00  0.00    +0.025 C 
ATOM      3  C   UNL     1       9.732   5.439  -3.316  0.00  0.00    +0.088 C 
ATOM      4  N   UNL     1       9.203   5.162  -1.969  0.00  0.00    -0.298 NA
ATOM      5  C   UNL     1      10.055   5.853  -0.977  0.00  0.00    +0.085 C 
ATOM      6  C   UNL     1       7.804   5.591  -1.853  0.00  0.00    +0.105 C 
ENDROOT
BRANCH   3   7
ATOM      7  C   UNL     1      10.154   4.152  -3.978  0.00  0.00    -0.012 A 
ATOM      8  C   UNL     1      10.549   4.144  -5.302  0.00  0.00    +0.115 A 
ATOM      9  N   UNL     1      10.920   3.022  -5.888  0.00  0.00    -0.263 NA
ATOM     10  C   UNL     1      10.929   1.873  -5.243  0.00  0.00    +0.111 A 
ATOM     11  C   UNL     1      10.548   1.804  -3.916  0.00  0.00    +0.020 A 
ATOM     12  C   UNL     1      10.156   2.963  -3.264  0.00  0.00    +0.008 A 
ENDBRANCH   3   7
TORSDOF 1
ENDMDL
MODEL 2
REMARK VINA RESULT:    -2.424      1.704      4.674
REMARK INTER + INTRA:          -2.777
REMARK INTER:                  -2.594
REMARK INTRA:                  -0.182
REMARK UNBOUND:                -0.211
REMARK  Name = Nicotine.pdb
REMARK  2 active torsions:
REMARK  status: ('A' for Active; 'I' for Inactive)
REMARK    1  A    between atoms: C_3  and  C_6
REMARK    2  A    between atoms: N_4  and  C_12
REMARK                            x       y       z     vdW  Elec       q    Type
REMARK                         _______ _______ _______ _____ _____    ______ ____
ROOT
ATOM      1  C   UNL     1      10.444   3.626  -4.661  0.00  0.00    +0.017 C 
ATOM      2  C   UNL     1       9.804   3.761  -3.254  0.00  0.00    +0.025 C 
ATOM      3  C   UNL     1       9.200   5.181  -3.283  0.00  0.00    +0.088 C 
ATOM      4  N   UNL     1       9.920   5.942  -4.320  0.00  0.00    -0.298 NA
ATOM      5  C   UNL     1      10.954   5.067  -4.913  0.00  0.00    +0.085 C 
ATOM      6  C   UNL     1       8.995   6.436  -5.349  0.00  0.00    +0.105 C 
ENDROOT
BRANCH   3   7
ATOM      7  C   UNL     1       9.381   5.843  -1.942  0.00  0.00    -0.012 A 
ATOM      8  C   UNL     1      10.645   6.008  -1.409  0.00  0.00    +0.115 A 
ATOM      9  N   UNL     1      10.813   6.586  -0.235  0.00  0.00    -0.263 NA
ATOM     10  C   UNL     1       9.791   7.026   0.472  0.00  0.00    +0.111 A 
ATOM     11  C   UNL     1       8.497   6.897   0.003  0.00  0.00    +0.020 A 
ATOM     12  C   UNL     1       8.282   6.299  -1.229  0.00  0.00    +0.008 A 
ENDBRANCH   3   7
TORSDOF 1
ENDMDL
MODEL 3
REMARK VINA RESULT:    -1.870      1.370      2.072
REMARK INTER + INTRA:          -2.191
REMARK INTER:                  -1.975
REMARK INTRA:                  -0.216
REMARK UNBOUND:                -0.211
REMARK  Name = Nicotine.pdb
REMARK  2 active torsions:
REMARK  status: ('A' for Active; 'I' for Inactive)
REMARK    1  A    between atoms: C_3  and  C_6
REMARK    2  A    between atoms: N_4  and  C_12
REMARK                            x       y       z     vdW  Elec       q    Type
REMARK                         _______ _______ _______ _____ _____    ______ ____
ROOT
ATOM      1  C   UNL     1       9.395   5.295  -1.822  0.00  0.00    +0.017 C 
ATOM      2  C   UNL     1      10.212   4.028  -2.189  0.00  0.00    +0.025 C 
ATOM      3  C   UNL     1      10.885   4.423  -3.521  0.00  0.00    +0.088 C 
ATOM      4  N   UNL     1      10.084   5.512  -4.109  0.00  0.00    -0.298 NA
ATOM      5  C   UNL     1       8.937   5.788  -3.217  0.00  0.00    +0.085 C 
ATOM      6  C   UNL     1      10.899   6.717  -4.308  0.00  0.00    +0.105 C 
ENDROOT
BRANCH   3   7
ATOM      7  C   UNL     1      10.909   3.241  -4.454  0.00  0.00    -0.012 A 
ATOM      8  C   UNL     1      10.931   3.431  -5.823  0.00  0.00    +0.115 A 
ATOM      9  N   UNL     1      10.952   2.401  -6.647  0.00  0.00    -0.263 NA
ATOM     10  C   UNL     1      10.953   1.159  -6.204  0.00  0.00    +0.111 A 
ATOM     11  C   UNL     1      10.933   0.891  -4.848  0.00  0.00    +0.020 A 
ATOM     12  C   UNL     1      10.915   1.949  -3.951  0.00  0.00    +0.008 A 
ENDBRANCH   3   7
TORSDOF 1
ENDMDL
MODEL 4
REMARK VINA RESULT:    -1.194      1.308      2.551
REMARK INTER + INTRA:          -1.476
REMARK INTER:                  -1.260
REMARK INTRA:                  -0.216
REMARK UNBOUND:                -0.211
REMARK  Name = Nicotine.pdb
REMARK  2 active torsions:
REMARK  status: ('A' for Active; 'I' for Inactive)
REMARK    1  A    between atoms: C_3  and  C_6
REMARK    2  A    between atoms: N_4  and  C_12
REMARK                            x       y       z     vdW  Elec       q    Type
REMARK                         _______ _______ _______ _____ _____    ______ ____
ROOT
ATOM      1  C   UNL     1       7.955   6.361  -0.813  0.00  0.00    +0.017 C 
ATOM      2  C   UNL     1       8.019   5.395  -2.025  0.00  0.00    +0.025 C 
ATOM      3  C   UNL     1       9.490   4.928  -2.019  0.00  0.00    +0.088 C 
ATOM      4  N   UNL     1      10.269   5.945  -1.290  0.00  0.00    -0.298 NA
ATOM      5  C   UNL     1       9.353   7.026  -0.869  0.00  0.00    +0.085 C 
ATOM      6  C   UNL     1      10.954   5.354  -0.133  0.00  0.00    +0.105 C 
ENDROOT
BRANCH   3   7
ATOM      7  C   UNL     1       9.996   4.810  -3.434  0.00  0.00    -0.012 A 
ATOM      8  C   UNL     1      10.445   3.595  -3.916  0.00  0.00    +0.115 A 
ATOM      9  N   UNL     1      10.890   3.483  -5.153  0.00  0.00    -0.263 NA
ATOM     10  C   UNL     1      10.924   4.515  -5.973  0.00  0.00    +0.111 A 
ATOM     11  C   UNL     1      10.490   5.761  -5.561  0.00  0.00    +0.020 A 
ATOM     12  C   UNL     1      10.012   5.916  -4.269  0.00  0.00    +0.008 A 
ENDBRANCH   3   7
TORSDOF 1
ENDMDL
MODEL 5
REMARK VINA RESULT:    -0.106      3.042      6.267
REMARK INTER + INTRA:          -0.324
REMARK INTER:                  -0.107
REMARK INTRA:                  -0.216
REMARK UNBOUND:                -0.211
REMARK  Name = Nicotine.pdb
REMARK  2 active torsions:
REMARK  status: ('A' for Active; 'I' for Inactive)
REMARK    1  A    between atoms: C_3  and  C_6
REMARK    2  A    between atoms: N_4  and  C_12
REMARK                            x       y       z     vdW  Elec       q    Type
REMARK                         _______ _______ _______ _____ _____    ______ ____
ROOT
ATOM      1  C   UNL     1       7.948   5.623  -2.024  0.00  0.00    +0.017 C 
ATOM      2  C   UNL     1       7.710   6.422  -0.715  0.00  0.00    +0.025 C 
ATOM      3  C   UNL     1       9.100   7.025  -0.419  0.00  0.00    +0.088 C 
ATOM      4  N   UNL     1      10.095   6.194  -1.119  0.00  0.00    -0.298 NA
ATOM      5  C   UNL     1       9.388   5.094  -1.810  0.00  0.00    +0.085 C 
ATOM      6  C   UNL     1      10.878   6.996  -2.069  0.00  0.00    +0.105 C 
ENDROOT
BRANCH   3   7
ATOM      7  C   UNL     1       9.363   7.003   1.064  0.00  0.00    -0.012 A 
ATOM      8  C   UNL     1      10.659   7.027   1.544  0.00  0.00    +0.115 A 
ATOM      9  N   UNL     1      10.898   7.009   2.841  0.00  0.00    -0.263 NA
ATOM     10  C   UNL     1       9.922   6.966   3.725  0.00  0.00    +0.111 A 
ATOM     11  C   UNL     1       8.600   6.940   3.320  0.00  0.00    +0.020 A 
ATOM     12  C   UNL     1       8.310   6.964   1.964  0.00  0.00    +0.008 A 
ENDBRANCH   3   7
TORSDOF 1
ENDMDL
MODEL 6
REMARK VINA RESULT:     0.147      2.797      6.069
REMARK INTER + INTRA:          -0.056
REMARK INTER:                   0.129
REMARK INTRA:                  -0.185
REMARK UNBOUND:                -0.211
REMARK  Name = Nicotine.pdb
REMARK  2 active torsions:
REMARK  status: ('A' for Active; 'I' for Inactive)
REMARK    1  A    between atoms: C_3  and  C_6
REMARK    2  A    between atoms: N_4  and  C_12
REMARK                            x       y       z     vdW  Elec       q    Type
REMARK                         _______ _______ _______ _____ _____    ______ ____
ROOT
ATOM      1  C   UNL     1       7.907   5.505  -2.458  0.00  0.00    +0.017 C 
ATOM      2  C   UNL     1       7.670   6.384  -1.202  0.00  0.00    +0.025 C 
ATOM      3  C   UNL     1       9.082   6.916  -0.880  0.00  0.00    +0.088 C 
ATOM      4  N   UNL     1      10.049   5.990  -1.495  0.00  0.00    -0.298 NA
ATOM      5  C   UNL     1       9.302   4.901  -2.159  0.00  0.00    +0.085 C 
ATOM      6  C   UNL     1      10.917   6.691  -2.451  0.00  0.00    +0.105 C 
ENDROOT
BRANCH   3   7
ATOM      7  C   UNL     1       9.287   6.956   0.612  0.00  0.00    -0.012 A 
ATOM      8  C   UNL     1       8.201   6.967   1.467  0.00  0.00    +0.115 A 
ATOM      9  N   UNL     1       8.371   7.002   2.774  0.00  0.00    -0.263 NA
ATOM     10  C   UNL     1       9.573   7.028   3.316  0.00  0.00    +0.111 A 
ATOM     11  C   UNL     1      10.706   7.018   2.525  0.00  0.00    +0.020 A 
ATOM     12  C   UNL     1      10.567   6.976   1.146  0.00  0.00    +0.008 A 
ENDBRANCH   3   7
TORSDOF 1
ENDMDL
