MODEL 1
REMARK VINA RESULT:     2.076      0.000      0.000
REMARK INTER + INTRA:           1.974
REMARK INTER:                   2.198
REMARK INTRA:                  -0.223
REMARK UNBOUND:                -0.223
REMARK  Name = Nicotine.pdb
REMARK  2 active torsions:
REMARK  status: ('A' for Active; 'I' for Inactive)
REMARK    1  A    between atoms: C_3  and  C_6
REMARK    2  A    between atoms: N_4  and  C_12
REMARK                            x       y       z     vdW  Elec       q    Type
REMARK                         _______ _______ _______ _____ _____    ______ ____
ROOT
ATOM      1  C   UNL     1       6.535  -5.661   1.689  0.00  0.00    +0.017 C 
ATOM      2  C   UNL     1       7.778  -4.761   1.460  0.00  0.00    +0.025 C 
ATOM      3  C   UNL     1       7.461  -4.066   0.119  0.00  0.00    +0.088 C 
ATOM      4  N   UNL     1       6.478  -4.906  -0.588  0.00  0.00    -0.298 NA
ATOM      5  C   UNL     1       6.194  -6.097   0.242  0.00  0.00    +0.085 C 
ATOM      6  C   UNL     1       5.248  -4.155  -0.870  0.00  0.00    +0.105 C 
ENDROOT
BRANCH   3   7
ATOM      7  C   UNL     1       8.718  -3.942  -0.704  0.00  0.00    -0.012 A 
ATOM      8  C   UNL     1       8.786  -4.506  -1.964  0.00  0.00    +0.115 A 
ATOM      9  N   UNL     1       9.882  -4.402  -2.690  0.00  0.00    -0.263 NA
ATOM     10  C   UNL     1      10.948  -3.764  -2.250  0.00  0.00    +0.111 A 
ATOM     11  C   UNL     1      10.953  -3.175  -0.999  0.00  0.00    +0.020 A 
ATOM     12  C   UNL     1       9.817  -3.258  -0.209  0.00  0.00    +0.008 A 
ENDBRANCH   3   7
TORSDOF 1
ENDMDL
MODEL 2
REMARK VINA RESULT:     2.523      0.817      1.382
REMARK INTER + INTRA:           2.448
REMARK INTER:                   2.650
REMARK INTRA:                  -0.203
REMARK UNBOUND:                -0.223
REMARK  Name = Nicotine.pdb
REMARK  2 active torsions:
REMARK  status: ('A' for Active; 'I' for Inactive)
REMARK    1  A    between atoms: C_3  and  C_6
REMARK    2  A    between atoms: N_4  and  C_12
REMARK                            x       y       z     vdW  Elec       q    Type
REMARK                         _______ _______ _______ _____ _____    ______ ____
ROOT
ATOM      1  C   UNL     1       6.483  -5.476   1.924  0.00  0.00    +0.017 C 
ATOM      2  C   UNL     1       7.683  -4.543   1.612  0.00  0.00    +0.025 C 
ATOM      3  C   UNL     1       7.362  -4.027   0.193  0.00  0.00    +0.088 C 
ATOM      4  N   UNL     1       6.441  -4.997  -0.426  0.00  0.00    -0.298 NA
ATOM      5  C   UNL     1       6.199  -6.096   0.533  0.00  0.00    +0.085 C 
ATOM      6  C   UNL     1       5.181  -4.351  -0.817  0.00  0.00    +0.105 C 
ENDROOT
BRANCH   3   7
ATOM      7  C   UNL     1       8.630  -3.933  -0.616  0.00  0.00    -0.012 A 
ATOM      8  C   UNL     1       9.747  -3.309  -0.095  0.00  0.00    +0.115 A 
ATOM      9  N   UNL     1      10.861  -3.222  -0.796  0.00  0.00    -0.263 NA
ATOM     10  C   UNL     1      10.954  -3.722  -2.013  0.00  0.00    +0.111 A 
ATOM     11  C   UNL     1       9.878  -4.361  -2.600  0.00  0.00    +0.020 A 
ATOM     12  C   UNL     1       8.692  -4.476  -1.891  0.00  0.00    +0.008 A 
ENDBRANCH   3   7
TORSDOF 1
ENDMDL
MODEL 3
REMARK VINA RESULT:     2.553      1.337      4.439
REMARK INTER + INTRA:           2.479
REMARK INTER:                   2.685
REMARK INTRA:                  -0.206
REMARK UNBOUND:                -0.223
REMARK  Name = Nicotine.pdb
REMARK  2 active torsions:
REMARK  status: ('A' for Active; 'I' for Inactive)
REMARK    1  A    between atoms: C_3  and  C_6
REMARK    2  A    between atoms: N_4  and  C_12
REMARK                            x       y       z     vdW  Elec       q    Type
REMARK                         _______ _______ _______ _____ _____    ______ ____
ROOT
ATOM      1  C   UNL     1      10.795  -2.671   0.619  0.00  0.00    +0.017 C 
ATOM      2  C   UNL     1       9.936  -3.851   1.144  0.00  0.00    +0.025 C 
ATOM      3  C   UNL     1       9.360  -4.463  -0.151  0.00  0.00    +0.088 C 
ATOM      4  N   UNL     1       9.402  -3.415  -1.186  0.00  0.00    -0.298 NA
ATOM      5  C   UNL     1       9.953  -2.182  -0.586  0.00  0.00    +0.085 C 
ATOM      6  C   UNL     1      10.207  -3.845  -2.338  0.00  0.00    +0.105 C 
ENDROOT
BRANCH   3   7
ATOM      7  C   UNL     1       7.937  -4.902   0.078  0.00  0.00    -0.012 A 
ATOM      8  C   UNL     1       7.618  -5.705   1.157  0.00  0.00    +0.115 A 
ATOM      9  N   UNL     1       6.374  -6.094   1.365  0.00  0.00    -0.263 NA
ATOM     10  C   UNL     1       5.393  -5.735   0.561  0.00  0.00    +0.111 A 
ATOM     11  C   UNL     1       5.636  -4.932  -0.538  0.00  0.00    +0.020 A 
ATOM     12  C   UNL     1       6.929  -4.500  -0.786  0.00  0.00    +0.008 A 
ENDBRANCH   3   7
TORSDOF 1
ENDMDL
MODEL 4
REMARK VINA RESULT:     4.544      1.715      2.483
REMARK INTER + INTRA:           4.586
REMARK INTER:                   4.839
REMARK INTRA:                  -0.252
REMARK UNBOUND:                -0.223
REMARK  Name = Nicotine.pdb
REMARK  2 active torsions:
REMARK  status: ('A' for Active; 'I' for Inactive)
REMARK    1  A    between atoms: C_3  and  C_6
REMARK    2  A    between atoms: N_4  and  C_12
REMARK                            x       y       z     vdW  Elec       q    Type
REMARK                         _______ _______ _______ _____ _____    ______ ____
ROOT
ATOM      1  C   UNL     1       5.506  -6.097  -0.098  0.00  0.00    +0.017 C 
ATOM      2  C   UNL     1       7.040  -6.097  -0.335  0.00  0.00    +0.025 C 
ATOM      3  C   UNL     1       7.585  -5.393   0.926  0.00  0.00    +0.088 C 
ATOM      4  N   UNL     1       6.487  -4.585   1.486  0.00  0.00    -0.298 NA
ATOM      5  C   UNL     1       5.300  -4.738   0.617  0.00  0.00    +0.085 C 
ATOM      6  C   UNL     1       6.186  -4.989   2.865  0.00  0.00    +0.105 C 
ENDROOT
BRANCH   3   7
ATOM      7  C   UNL     1       8.741  -4.500   0.554  0.00  0.00    -0.012 A 
ATOM      8  C   UNL     1       9.818  -4.359   1.410  0.00  0.00    +0.115 A 
ATOM      9  N   UNL     1      10.834  -3.580   1.092  0.00  0.00    -0.263 NA
ATOM     10  C   UNL     1      10.865  -2.910  -0.043  0.00  0.00    +0.111 A 
ATOM     11  C   UNL     1       9.825  -3.002  -0.948  0.00  0.00    +0.020 A 
ATOM     12  C   UNL     1       8.742  -3.816  -0.651  0.00  0.00    +0.008 A 
ENDBRANCH   3   7
TORSDOF 1
ENDMDL
