MODEL 1
REMARK VINA RESULT:     4.208      0.000      0.000
REMARK INTER + INTRA:           4.232
REMARK INTER:                   4.454
REMARK INTRA:                  -0.222
REMARK UNBOUND:                -0.222
REMARK  Name = Nicotine.pdb
REMARK  2 active torsions:
REMARK  status: ('A' for Active; 'I' for Inactive)
REMARK    1  A    between atoms: C_3  and  C_6
REMARK    2  A    between atoms: N_4  and  C_12
REMARK                            x       y       z     vdW  Elec       q    Type
REMARK                         _______ _______ _______ _____ _____    ______ ____
ROOT
ATOM      1  C   UNL     1      -1.652  -2.392   1.348  0.00  0.00    +0.017 C 
ATOM      2  C   UNL     1      -0.163  -1.959   1.401  0.00  0.00    +0.025 C 
ATOM      3  C   UNL     1      -0.252  -0.422   1.504  0.00  0.00    +0.088 C 
ATOM      4  N   UNL     1      -1.570  -0.024   0.977  0.00  0.00    -0.298 NA
ATOM      5  C   UNL     1      -2.285  -1.239   0.531  0.00  0.00    +0.085 C 
ATOM      6  C   UNL     1      -2.346   0.702   1.990  0.00  0.00    +0.105 C 
ENDROOT
BRANCH   3   7
ATOM      7  C   UNL     1       0.842   0.212   0.684  0.00  0.00    -0.012 A 
ATOM      8  C   UNL     1       0.530   1.053  -0.367  0.00  0.00    +0.115 A 
ATOM      9  N   UNL     1       1.482   1.611  -1.089  0.00  0.00    -0.263 NA
ATOM     10  C   UNL     1       2.758   1.393  -0.842  0.00  0.00    +0.111 A 
ATOM     11  C   UNL     1       3.146   0.564   0.194  0.00  0.00    +0.020 A 
ATOM     12  C   UNL     1       2.174  -0.037   0.978  0.00  0.00    +0.008 A 
ENDBRANCH   3   7
TORSDOF 1
ENDMDL
MODEL 2
REMARK VINA RESULT:     4.979      1.033      1.698
REMARK INTER + INTRA:           5.048
REMARK INTER:                   5.258
REMARK INTRA:                  -0.210
REMARK UNBOUND:                -0.222
REMARK  Name = Nicotine.pdb
REMARK  2 active torsions:
REMARK  status: ('A' for Active; 'I' for Inactive)
REMARK    1  A    between atoms: C_3  and  C_6
REMARK    2  A    between atoms: N_4  and  C_12
REMARK                            x       y       z     vdW  Elec       q    Type
REMARK                         _______ _______ _______ _____ _____    ______ ____
ROOT
ATOM      1  C   UNL     1      -1.669  -0.541   2.661  0.00  0.00    +0.017 C 
ATOM      2  C   UNL     1      -0.809   0.605   2.068  0.00  0.00    +0.025 C 
ATOM      3  C   UNL     1      -0.528   0.119   0.630  0.00  0.00    +0.088 C 
ATOM      4  N   UNL     1      -0.692  -1.346   0.624  0.00  0.00    -0.298 NA
ATOM      5  C   UNL     1      -1.036  -1.787   1.993  0.00  0.00    +0.085 C 
ATOM      6  C   UNL     1      -1.724  -1.756  -0.337  0.00  0.00    +0.105 C 
ENDROOT
BRANCH   3   7
ATOM      7  C   UNL     1       0.880   0.480   0.233  0.00  0.00    -0.012 A 
ATOM      8  C   UNL     1       1.110   1.349  -0.817  0.00  0.00    +0.115 A 
ATOM      9  N   UNL     1       2.339   1.671  -1.170  0.00  0.00    -0.263 NA
ATOM     10  C   UNL     1       3.391   1.180  -0.545  0.00  0.00    +0.111 A 
ATOM     11  C   UNL     1       3.239   0.305   0.515  0.00  0.00    +0.020 A 
ATOM     12  C   UNL     1       1.962  -0.051   0.919  0.00  0.00    +0.008 A 
ENDBRANCH   3   7
TORSDOF 1
ENDMDL
MODEL 3
REMARK VINA RESULT:     5.452      1.401      4.662
REMARK INTER + INTRA:           5.548
REMARK INTER:                   5.729
REMARK INTRA:                  -0.180
REMARK UNBOUND:                -0.222
REMARK  Name = Nicotine.pdb
REMARK  2 active torsions:
REMARK  status: ('A' for Active; 'I' for Inactive)
REMARK    1  A    between atoms: C_3  and  C_6
REMARK    2  A    between atoms: N_4  and  C_12
REMARK                            x       y       z     vdW  Elec       q    Type
REMARK                         _______ _______ _______ _____ _____    ______ ____
ROOT
ATOM      1  C   UNL     1       2.352   1.945  -1.694  0.00  0.00    +0.017 C 
ATOM      2  C   UNL     1       1.017   1.804  -0.917  0.00  0.00    +0.025 C 
ATOM      3  C   UNL     1       1.460   1.181   0.424  0.00  0.00    +0.088 C 
ATOM      4  N   UNL     1       2.755   0.517   0.191  0.00  0.00    -0.298 NA
ATOM      5  C   UNL     1       3.118   0.679  -1.233  0.00  0.00    +0.085 C 
ATOM      6  C   UNL     1       3.797   1.071   1.066  0.00  0.00    +0.105 C 
ENDROOT
BRANCH   3   7
ATOM      7  C   UNL     1       0.440   0.171   0.883  0.00  0.00    -0.012 A 
ATOM      8  C   UNL     1       0.575  -1.162   0.544  0.00  0.00    +0.115 A 
ATOM      9  N   UNL     1      -0.313  -2.052   0.941  0.00  0.00    -0.263 NA
ATOM     10  C   UNL     1      -1.357  -1.712   1.670  0.00  0.00    +0.111 A 
ATOM     11  C   UNL     1      -1.558  -0.397   2.048  0.00  0.00    +0.020 A 
ATOM     12  C   UNL     1      -0.643   0.566   1.653  0.00  0.00    +0.008 A 
ENDBRANCH   3   7
TORSDOF 1
ENDMDL
MODEL 4
REMARK VINA RESULT:     5.603      1.101      4.441
REMARK INTER + INTRA:           5.708
REMARK INTER:                   5.888
REMARK INTRA:                  -0.180
REMARK UNBOUND:                -0.222
REMARK  Name = Nicotine.pdb
REMARK  2 active torsions:
REMARK  status: ('A' for Active; 'I' for Inactive)
REMARK    1  A    between atoms: C_3  and  C_6
REMARK    2  A    between atoms: N_4  and  C_12
REMARK                            x       y       z     vdW  Elec       q    Type
REMARK                         _______ _______ _______ _____ _____    ______ ____
ROOT
ATOM      1  C   UNL     1       3.675   0.986   0.238  0.00  0.00    +0.017 C 
ATOM      2  C   UNL     1       2.755  -0.201   0.628  0.00  0.00    +0.025 C 
ATOM      3  C   UNL     1       1.453   0.100  -0.144  0.00  0.00    +0.088 C 
ATOM      4  N   UNL     1       1.441   1.545  -0.432  0.00  0.00    -0.298 NA
ATOM      5  C   UNL     1       2.659   2.152   0.146  0.00  0.00    +0.085 C 
ATOM      6  C   UNL     1       1.364   1.794  -1.878  0.00  0.00    +0.105 C 
ENDROOT
BRANCH   3   7
ATOM      7  C   UNL     1       0.260  -0.266   0.701  0.00  0.00    -0.012 A 
ATOM      8  C   UNL     1      -0.346   0.683   1.502  0.00  0.00    +0.115 A 
ATOM      9  N   UNL     1      -1.391   0.371   2.244  0.00  0.00    -0.263 NA
ATOM     10  C   UNL     1      -1.896  -0.847   2.253  0.00  0.00    +0.111 A 
ATOM     11  C   UNL     1      -1.343  -1.848   1.476  0.00  0.00    +0.020 A 
ATOM     12  C   UNL     1      -0.247  -1.556   0.679  0.00  0.00    +0.008 A 
ENDBRANCH   3   7
TORSDOF 1
ENDMDL
MODEL 5
REMARK VINA RESULT:     6.676      1.908      5.145
REMARK INTER + INTRA:           6.845
REMARK INTER:                   7.100
REMARK INTRA:                  -0.255
REMARK UNBOUND:                -0.222
REMARK  Name = Nicotine.pdb
REMARK  2 active torsions:
REMARK  status: ('A' for Active; 'I' for Inactive)
REMARK    1  A    between atoms: C_3  and  C_6
REMARK    2  A    between atoms: N_4  and  C_12
REMARK                            x       y       z     vdW  Elec       q    Type
REMARK                         _______ _______ _______ _____ _____    ______ ____
ROOT
ATOM      1  C   UNL     1       0.222   0.859   1.690  0.00  0.00    +0.017 C 
ATOM      2  C   UNL     1      -1.163   0.270   2.065  0.00  0.00    +0.025 C 
ATOM      3  C   UNL     1      -1.072  -1.183   1.552  0.00  0.00    +0.088 C 
ATOM      4  N   UNL     1      -0.029  -1.215   0.512  0.00  0.00    -0.298 NA
ATOM      5  C   UNL     1       0.508   0.152   0.342  0.00  0.00    +0.085 C 
ATOM      6  C   UNL     1       1.038  -2.161   0.864  0.00  0.00    +0.105 C 
ENDROOT
BRANCH   3   7
ATOM      7  C   UNL     1      -2.395  -1.604   0.967  0.00  0.00    -0.012 A 
ATOM      8  C   UNL     1      -2.783  -2.930   0.998  0.00  0.00    +0.115 A 
ATOM      9  N   UNL     1      -3.940  -3.307   0.488  0.00  0.00    -0.263 NA
ATOM     10  C   UNL     1      -4.766  -2.443  -0.068  0.00  0.00    +0.111 A 
ATOM     11  C   UNL     1      -4.446  -1.100  -0.135  0.00  0.00    +0.020 A 
ATOM     12  C   UNL     1      -3.241  -0.666   0.396  0.00  0.00    +0.008 A 
ENDBRANCH   3   7
TORSDOF 1
ENDMDL
