MODEL 1
REMARK VINA RESULT:    -3.983      0.000      0.000
REMARK INTER + INTRA:          -4.424
REMARK INTER:                  -4.216
REMARK INTRA:                  -0.208
REMARK UNBOUND:                -0.208
REMARK  Name = Nicotine.pdb
REMARK  2 active torsions:
REMARK  status: ('A' for Active; 'I' for Inactive)
REMARK    1  A    between atoms: C_3  and  C_6
REMARK    2  A    between atoms: N_4  and  C_12
REMARK                            x       y       z     vdW  Elec       q    Type
REMARK                         _______ _______ _______ _____ _____    ______ ____
ROOT
ATOM      1  C   UNL     1      10.344  -1.066  -3.644  0.00  0.00    +0.017 C 
ATOM      2  C   UNL     1       9.503  -0.125  -2.743  0.00  0.00    +0.025 C 
ATOM      3  C   UNL     1       8.967   0.924  -3.741  0.00  0.00    +0.088 C 
ATOM      4  N   UNL     1       9.868   0.916  -4.908  0.00  0.00    -0.298 NA
ATOM      5  C   UNL     1      10.944  -0.067  -4.665  0.00  0.00    +0.085 C 
ATOM      6  C   UNL     1       9.132   0.600  -6.139  0.00  0.00    +0.105 C 
ENDROOT
BRANCH   3   7
ATOM      7  C   UNL     1       8.967   2.288  -3.101  0.00  0.00    -0.012 A 
ATOM      8  C   UNL     1       7.778   2.957  -2.881  0.00  0.00    +0.115 A 
ATOM      9  N   UNL     1       7.769   4.151  -2.321  0.00  0.00    -0.263 NA
ATOM     10  C   UNL     1       8.883   4.751  -1.951  0.00  0.00    +0.111 A 
ATOM     11  C   UNL     1      10.111   4.143  -2.138  0.00  0.00    +0.020 A 
ATOM     12  C   UNL     1      10.159   2.885  -2.719  0.00  0.00    +0.008 A 
ENDBRANCH   3   7
TORSDOF 1
ENDMDL
MODEL 2
REMARK VINA RESULT:    -3.730      0.959      1.263
REMARK INTER + INTRA:          -4.156
REMARK INTER:                  -3.948
REMARK INTRA:                  -0.207
REMARK UNBOUND:                -0.208
REMARK  Name = Nicotine.pdb
REMARK  2 active torsions:
REMARK  status: ('A' for Active; 'I' for Inactive)
REMARK    1  A    between atoms: C_3  and  C_6
REMARK    2  A    between atoms: N_4  and  C_12
REMARK                            x       y       z     vdW  Elec       q    Type
REMARK                         _______ _______ _______ _____ _____    ______ ____
ROOT
ATOM      1  C   UNL     1      10.083  -0.685  -3.429  0.00  0.00    +0.017 C 
ATOM      2  C   UNL     1       9.076   0.283  -2.754  0.00  0.00    +0.025 C 
ATOM      3  C   UNL     1       8.733   1.272  -3.888  0.00  0.00    +0.088 C 
ATOM      4  N   UNL     1       9.839   1.225  -4.860  0.00  0.00    -0.298 NA
ATOM      5  C   UNL     1      10.858   0.274  -4.367  0.00  0.00    +0.085 C 
ATOM      6  C   UNL     1       9.356   0.836  -6.191  0.00  0.00    +0.105 C 
ENDROOT
BRANCH   3   7
ATOM      7  C   UNL     1       8.599   2.665  -3.330  0.00  0.00    -0.012 A 
ATOM      8  C   UNL     1       8.878   2.915  -1.999  0.00  0.00    +0.115 A 
ATOM      9  N   UNL     1       8.763   4.132  -1.503  0.00  0.00    -0.263 NA
ATOM     10  C   UNL     1       8.381   5.151  -2.246  0.00  0.00    +0.111 A 
ATOM     11  C   UNL     1       8.085   4.977  -3.586  0.00  0.00    +0.020 A 
ATOM     12  C   UNL     1       8.199   3.714  -4.144  0.00  0.00    +0.008 A 
ENDBRANCH   3   7
TORSDOF 1
ENDMDL
MODEL 3
REMARK VINA RESULT:    -3.601      1.313      4.562
REMARK INTER + INTRA:          -4.019
REMARK INTER:                  -3.805
REMARK INTRA:                  -0.214
REMARK UNBOUND:                -0.208
REMARK  Name = Nicotine.pdb
REMARK  2 active torsions:
REMARK  status: ('A' for Active; 'I' for Inactive)
REMARK    1  A    between atoms: C_3  and  C_6
REMARK    2  A    between atoms: N_4  and  C_12
REMARK                            x       y       z     vdW  Elec       q    Type
REMARK                         _______ _______ _______ _____ _____    ______ ____
ROOT
ATOM      1  C   UNL     1       7.583   4.805  -4.207  0.00  0.00    +0.017 C 
ATOM      2  C   UNL     1       7.340   3.274  -4.246  0.00  0.00    +0.025 C 
ATOM      3  C   UNL     1       8.323   2.739  -3.183  0.00  0.00    +0.088 C 
ATOM      4  N   UNL     1       9.380   3.753  -3.015  0.00  0.00    -0.298 NA
ATOM      5  C   UNL     1       9.108   4.873  -3.941  0.00  0.00    +0.085 C 
ATOM      6  C   UNL     1       9.445   4.222  -1.625  0.00  0.00    +0.105 C 
ENDROOT
BRANCH   3   7
ATOM      7  C   UNL     1       8.927   1.440  -3.650  0.00  0.00    -0.012 A 
ATOM      8  C   UNL     1       9.087   1.189  -5.000  0.00  0.00    +0.115 A 
ATOM      9  N   UNL     1       9.615   0.055  -5.418  0.00  0.00    -0.263 NA
ATOM     10  C   UNL     1      10.008  -0.878  -4.574  0.00  0.00    +0.111 A 
ATOM     11  C   UNL     1       9.881  -0.698  -3.209  0.00  0.00    +0.020 A 
ATOM     12  C   UNL     1       9.335   0.484  -2.733  0.00  0.00    +0.008 A 
ENDBRANCH   3   7
TORSDOF 1
ENDMDL
MODEL 4
REMARK VINA RESULT:    -3.599      1.944      4.913
REMARK INTER + INTRA:          -4.017
REMARK INTER:                  -3.806
REMARK INTRA:                  -0.210
REMARK UNBOUND:                -0.208
REMARK  Name = Nicotine.pdb
REMARK  2 active torsions:
REMARK  status: ('A' for Active; 'I' for Inactive)
REMARK    1  A    between atoms: C_3  and  C_6
REMARK    2  A    between atoms: N_4  and  C_12
REMARK                            x       y       z     vdW  Elec       q    Type
REMARK                         _______ _______ _______ _____ _____    ______ ____
ROOT
ATOM      1  C   UNL     1       8.422   2.197  -2.852  0.00  0.00    +0.017 C 
ATOM      2  C   UNL     1       8.960   0.783  -2.510  0.00  0.00    +0.025 C 
ATOM      3  C   UNL     1      10.102   0.590  -3.531  0.00  0.00    +0.088 C 
ATOM      4  N   UNL     1       9.838   1.502  -4.659  0.00  0.00    -0.298 NA
ATOM      5  C   UNL     1       8.578   2.227  -4.393  0.00  0.00    +0.085 C 
ATOM      6  C   UNL     1      10.954   2.437  -4.852  0.00  0.00    +0.105 C 
ENDROOT
BRANCH   3   7
ATOM      7  C   UNL     1      10.120  -0.836  -4.017  0.00  0.00    -0.012 A 
ATOM      8  C   UNL     1       9.749  -1.138  -5.314  0.00  0.00    +0.115 A 
ATOM      9  N   UNL     1       9.762  -2.384  -5.747  0.00  0.00    -0.263 NA
ATOM     10  C   UNL     1      10.125  -3.384  -4.968  0.00  0.00    +0.111 A 
ATOM     11  C   UNL     1      10.509  -3.159  -3.660  0.00  0.00    +0.020 A 
ATOM     12  C   UNL     1      10.513  -1.862  -3.171  0.00  0.00    +0.008 A 
ENDBRANCH   3   7
TORSDOF 1
ENDMDL
MODEL 5
REMARK VINA RESULT:    -3.579      1.345      4.509
REMARK INTER + INTRA:          -3.996
REMARK INTER:                  -3.741
REMARK INTRA:                  -0.255
REMARK UNBOUND:                -0.208
REMARK  Name = Nicotine.pdb
REMARK  2 active torsions:
REMARK  status: ('A' for Active; 'I' for Inactive)
REMARK    1  A    between atoms: C_3  and  C_6
REMARK    2  A    between atoms: N_4  and  C_12
REMARK                            x       y       z     vdW  Elec       q    Type
REMARK                         _______ _______ _______ _____ _____    ______ ____
ROOT
ATOM      1  C   UNL     1       9.487   3.592  -2.214  0.00  0.00    +0.017 C 
ATOM      2  C   UNL     1      10.383   2.576  -2.970  0.00  0.00    +0.025 C 
ATOM      3  C   UNL     1       9.468   2.089  -4.113  0.00  0.00    +0.088 C 
ATOM      4  N   UNL     1       8.077   2.339  -3.695  0.00  0.00    -0.298 NA
ATOM      5  C   UNL     1       8.091   2.933  -2.342  0.00  0.00    +0.085 C 
ATOM      6  C   UNL     1       7.390   3.219  -4.650  0.00  0.00    +0.105 C 
ENDROOT
BRANCH   3   7
ATOM      7  C   UNL     1       9.678   0.615  -4.345  0.00  0.00    -0.012 A 
ATOM      8  C   UNL     1       9.473   0.068  -5.598  0.00  0.00    +0.115 A 
ATOM      9  N   UNL     1       9.655  -1.221  -5.809  0.00  0.00    -0.263 NA
ATOM     10  C   UNL     1      10.036  -2.035  -4.844  0.00  0.00    +0.111 A 
ATOM     11  C   UNL     1      10.261  -1.560  -3.566  0.00  0.00    +0.020 A 
ATOM     12  C   UNL     1      10.085  -0.209  -3.307  0.00  0.00    +0.008 A 
ENDBRANCH   3   7
TORSDOF 1
ENDMDL
MODEL 6
REMARK VINA RESULT:    -3.300      2.229      4.525
REMARK INTER + INTRA:          -3.700
REMARK INTER:                  -3.508
REMARK INTRA:                  -0.192
REMARK UNBOUND:                -0.208
REMARK  Name = Nicotine.pdb
REMARK  2 active torsions:
REMARK  status: ('A' for Active; 'I' for Inactive)
REMARK    1  A    between atoms: C_3  and  C_6
REMARK    2  A    between atoms: N_4  and  C_12
REMARK                            x       y       z     vdW  Elec       q    Type
REMARK                         _______ _______ _______ _____ _____    ______ ____
ROOT
ATOM      1  C   UNL     1       8.347   5.516  -5.373  0.00  0.00    +0.017 C 
ATOM      2  C   UNL     1       9.173   4.208  -5.489  0.00  0.00    +0.025 C 
ATOM      3  C   UNL     1       8.096   3.107  -5.380  0.00  0.00    +0.088 C 
ATOM      4  N   UNL     1       6.932   3.701  -4.699  0.00  0.00    -0.298 NA
ATOM      5  C   UNL     1       7.249   5.105  -4.361  0.00  0.00    +0.085 C 
ATOM      6  C   UNL     1       5.731   3.620  -5.540  0.00  0.00    +0.105 C 
ENDROOT
BRANCH   3   7
ATOM      7  C   UNL     1       8.627   1.949  -4.576  0.00  0.00    -0.012 A 
ATOM      8  C   UNL     1       9.151   0.839  -5.211  0.00  0.00    +0.115 A 
ATOM      9  N   UNL     1       9.618  -0.179  -4.515  0.00  0.00    -0.263 NA
ATOM     10  C   UNL     1       9.604  -0.182  -3.197  0.00  0.00    +0.111 A 
ATOM     11  C   UNL     1       9.095   0.894  -2.492  0.00  0.00    +0.020 A 
ATOM     12  C   UNL     1       8.601   1.984  -3.190  0.00  0.00    +0.008 A 
ENDBRANCH   3   7
TORSDOF 1
ENDMDL
MODEL 7
REMARK VINA RESULT:    -3.283      2.895      4.105
REMARK INTER + INTRA:          -3.683
REMARK INTER:                  -3.483
REMARK INTRA:                  -0.200
REMARK UNBOUND:                -0.208
REMARK  Name = Nicotine.pdb
REMARK  2 active torsions:
REMARK  status: ('A' for Active; 'I' for Inactive)
REMARK    1  A    between atoms: C_3  and  C_6
REMARK    2  A    between atoms: N_4  and  C_12
REMARK                            x       y       z     vdW  Elec       q    Type
REMARK                         _______ _______ _______ _____ _____    ______ ____
ROOT
ATOM      1  C   UNL     1       5.678   4.952  -6.013  0.00  0.00    +0.017 C 
ATOM      2  C   UNL     1       6.808   5.607  -5.175  0.00  0.00    +0.025 C 
ATOM      3  C   UNL     1       7.862   4.484  -5.076  0.00  0.00    +0.088 C 
ATOM      4  N   UNL     1       7.163   3.206  -5.303  0.00  0.00    -0.298 NA
ATOM      5  C   UNL     1       5.726   3.487  -5.511  0.00  0.00    +0.085 C 
ATOM      6  C   UNL     1       7.732   2.490  -6.451  0.00  0.00    +0.105 C 
ENDROOT
BRANCH   3   7
ATOM      7  C   UNL     1       8.491   4.490  -3.707  0.00  0.00    -0.012 A 
ATOM      8  C   UNL     1       8.133   3.539  -2.769  0.00  0.00    +0.115 A 
ATOM      9  N   UNL     1       8.678   3.538  -1.568  0.00  0.00    -0.263 NA
ATOM     10  C   UNL     1       9.578   4.434  -1.214  0.00  0.00    +0.111 A 
ATOM     11  C   UNL     1       9.986   5.415  -2.099  0.00  0.00    +0.020 A 
ATOM     12  C   UNL     1       9.439   5.445  -3.372  0.00  0.00    +0.008 A 
ENDBRANCH   3   7
TORSDOF 1
ENDMDL
MODEL 8
REMARK VINA RESULT:    -3.094      2.672      4.227
REMARK INTER + INTRA:          -3.483
REMARK INTER:                  -3.286
REMARK INTRA:                  -0.197
REMARK UNBOUND:                -0.208
REMARK  Name = Nicotine.pdb
REMARK  2 active torsions:
REMARK  status: ('A' for Active; 'I' for Inactive)
REMARK    1  A    between atoms: C_3  and  C_6
REMARK    2  A    between atoms: N_4  and  C_12
REMARK                            x       y       z     vdW  Elec       q    Type
REMARK                         _______ _______ _______ _____ _____    ______ ____
ROOT
ATOM      1  C   UNL     1       9.695   3.986  -1.780  0.00  0.00    +0.017 C 
ATOM      2  C   UNL     1       8.446   4.539  -2.516  0.00  0.00    +0.025 C 
ATOM      3  C   UNL     1       7.932   3.311  -3.297  0.00  0.00    +0.088 C 
ATOM      4  N   UNL     1       9.068   2.385  -3.452  0.00  0.00    -0.298 NA
ATOM      5  C   UNL     1      10.261   2.994  -2.826  0.00  0.00    +0.085 C 
ATOM      6  C   UNL     1       8.768   1.078  -2.853  0.00  0.00    +0.105 C 
ENDROOT
BRANCH   3   7
ATOM      7  C   UNL     1       7.430   3.739  -4.652  0.00  0.00    -0.012 A 
ATOM      8  C   UNL     1       8.195   4.566  -5.452  0.00  0.00    +0.115 A 
ATOM      9  N   UNL     1       7.763   4.945  -6.639  0.00  0.00    -0.263 NA
ATOM     10  C   UNL     1       6.594   4.555  -7.108  0.00  0.00    +0.111 A 
ATOM     11  C   UNL     1       5.774   3.727  -6.364  0.00  0.00    +0.020 A 
ATOM     12  C   UNL     1       6.197   3.303  -5.114  0.00  0.00    +0.008 A 
ENDBRANCH   3   7
TORSDOF 1
ENDMDL
MODEL 9
REMARK VINA RESULT:    -3.090      2.705      3.703
REMARK INTER + INTRA:          -3.479
REMARK INTER:                  -3.308
REMARK INTRA:                  -0.170
REMARK UNBOUND:                -0.208
REMARK  Name = Nicotine.pdb
REMARK  2 active torsions:
REMARK  status: ('A' for Active; 'I' for Inactive)
REMARK    1  A    between atoms: C_3  and  C_6
REMARK    2  A    between atoms: N_4  and  C_12
REMARK                            x       y       z     vdW  Elec       q    Type
REMARK                         _______ _______ _______ _____ _____    ______ ____
ROOT
ATOM      1  C   UNL     1       9.031   2.029  -2.320  0.00  0.00    +0.017 C 
ATOM      2  C   UNL     1       7.648   2.513  -2.830  0.00  0.00    +0.025 C 
ATOM      3  C   UNL     1       7.914   2.821  -4.318  0.00  0.00    +0.088 C 
ATOM      4  N   UNL     1       9.363   3.052  -4.464  0.00  0.00    -0.298 NA
ATOM      5  C   UNL     1       9.996   2.927  -3.134  0.00  0.00    +0.085 C 
ATOM      6  C   UNL     1       9.954   2.107  -5.421  0.00  0.00    +0.105 C 
ENDROOT
BRANCH   3   7
ATOM      7  C   UNL     1       7.153   4.053  -4.732  0.00  0.00    -0.012 A 
ATOM      8  C   UNL     1       7.537   5.299  -4.273  0.00  0.00    +0.115 A 
ATOM      9  N   UNL     1       6.876   6.383  -4.630  0.00  0.00    -0.263 NA
ATOM     10  C   UNL     1       5.830   6.325  -5.431  0.00  0.00    +0.111 A 
ATOM     11  C   UNL     1       5.387   5.114  -5.930  0.00  0.00    +0.020 A 
ATOM     12  C   UNL     1       6.061   3.953  -5.580  0.00  0.00    +0.008 A 
ENDBRANCH   3   7
TORSDOF 1
ENDMDL
MODEL 10
REMARK VINA RESULT:    -2.945      1.772      4.967
REMARK INTER + INTRA:          -3.325
REMARK INTER:                  -3.118
REMARK INTRA:                  -0.207
REMARK UNBOUND:                -0.208
REMARK  Name = Nicotine.pdb
REMARK  2 active torsions:
REMARK  status: ('A' for Active; 'I' for Inactive)
REMARK    1  A    between atoms: C_3  and  C_6
REMARK    2  A    between atoms: N_4  and  C_12
REMARK                            x       y       z     vdW  Elec       q    Type
REMARK                         _______ _______ _______ _____ _____    ______ ____
ROOT
ATOM      1  C   UNL     1       8.575   6.791  -2.806  0.00  0.00    +0.017 C 
ATOM      2  C   UNL     1       8.076   5.322  -2.812  0.00  0.00    +0.025 C 
ATOM      3  C   UNL     1       9.095   4.605  -1.902  0.00  0.00    +0.088 C 
ATOM      4  N   UNL     1      10.319   5.426  -1.885  0.00  0.00    -0.298 NA
ATOM      5  C   UNL     1      10.111   6.599  -2.760  0.00  0.00    +0.085 C 
ATOM      6  C   UNL     1      10.657   5.842  -0.518  0.00  0.00    +0.105 C 
ENDROOT
BRANCH   3   7
ATOM      7  C   UNL     1       9.402   3.237  -2.453  0.00  0.00    -0.012 A 
ATOM      8  C   UNL     1       8.485   2.211  -2.326  0.00  0.00    +0.115 A 
ATOM      9  N   UNL     1       8.745   1.010  -2.806  0.00  0.00    -0.263 NA
ATOM     10  C   UNL     1       9.880   0.740  -3.421  0.00  0.00    +0.111 A 
ATOM     11  C   UNL     1      10.844   1.717  -3.586  0.00  0.00    +0.020 A 
ATOM     12  C   UNL     1      10.604   2.992  -3.099  0.00  0.00    +0.008 A 
ENDBRANCH   3   7
TORSDOF 1
ENDMDL
