MODEL 1
REMARK VINA RESULT:    -3.569      0.000      0.000
REMARK INTER + INTRA:          -3.981
REMARK INTER:                  -3.778
REMARK INTRA:                  -0.204
REMARK UNBOUND:                -0.204
REMARK  Name = Nicotine.pdb
REMARK  2 active torsions:
REMARK  status: ('A' for Active; 'I' for Inactive)
REMARK    1  A    between atoms: C_3  and  C_6
REMARK    2  A    between atoms: N_4  and  C_12
REMARK                            x       y       z     vdW  Elec       q    Type
REMARK                         _______ _______ _______ _____ _____    ______ ____
ROOT
ATOM      1  C   UNL     1       9.529   2.147  -2.509  0.00  0.00    +0.017 C 
ATOM      2  C   UNL     1       8.703   2.432  -1.228  0.00  0.00    +0.025 C 
ATOM      3  C   UNL     1       8.901   3.948  -1.017  0.00  0.00    +0.088 C 
ATOM      4  N   UNL     1      10.138   4.329  -1.721  0.00  0.00    -0.298 NA
ATOM      5  C   UNL     1      10.724   3.117  -2.334  0.00  0.00    +0.085 C 
ATOM      6  C   UNL     1       9.871   5.356  -2.736  0.00  0.00    +0.105 C 
ENDROOT
BRANCH   3   7
ATOM      7  C   UNL     1       9.033   4.248   0.454  0.00  0.00    -0.012 A 
ATOM      8  C   UNL     1       8.118   3.740   1.356  0.00  0.00    +0.115 A 
ATOM      9  N   UNL     1       8.227   3.997   2.645  0.00  0.00    -0.263 NA
ATOM     10  C   UNL     1       9.204   4.743   3.123  0.00  0.00    +0.111 A 
ATOM     11  C   UNL     1      10.156   5.286   2.281  0.00  0.00    +0.020 A 
ATOM     12  C   UNL     1      10.077   5.032   0.920  0.00  0.00    +0.008 A 
ENDBRANCH   3   7
TORSDOF 1
ENDMDL
MODEL 2
REMARK VINA RESULT:    -3.538      1.587      1.798
REMARK INTER + INTRA:          -3.948
REMARK INTER:                  -3.692
REMARK INTRA:                  -0.256
REMARK UNBOUND:                -0.204
REMARK  Name = Nicotine.pdb
REMARK  2 active torsions:
REMARK  status: ('A' for Active; 'I' for Inactive)
REMARK    1  A    between atoms: C_3  and  C_6
REMARK    2  A    between atoms: N_4  and  C_12
REMARK                            x       y       z     vdW  Elec       q    Type
REMARK                         _______ _______ _______ _____ _____    ______ ____
ROOT
ATOM      1  C   UNL     1       9.132   2.519  -1.922  0.00  0.00    +0.017 C 
ATOM      2  C   UNL     1       8.494   2.486  -0.509  0.00  0.00    +0.025 C 
ATOM      3  C   UNL     1       7.612   3.753  -0.497  0.00  0.00    +0.088 C 
ATOM      4  N   UNL     1       8.150   4.670  -1.517  0.00  0.00    -0.298 NA
ATOM      5  C   UNL     1       9.335   4.040  -2.139  0.00  0.00    +0.085 C 
ATOM      6  C   UNL     1       7.133   4.990  -2.527  0.00  0.00    +0.105 C 
ENDROOT
BRANCH   3   7
ATOM      7  C   UNL     1       7.669   4.405   0.861  0.00  0.00    -0.012 A 
ATOM      8  C   UNL     1       6.650   5.239   1.279  0.00  0.00    +0.115 A 
ATOM      9  N   UNL     1       6.692   5.813   2.466  0.00  0.00    -0.263 NA
ATOM     10  C   UNL     1       7.698   5.618   3.295  0.00  0.00    +0.111 A 
ATOM     11  C   UNL     1       8.753   4.796   2.946  0.00  0.00    +0.020 A 
ATOM     12  C   UNL     1       8.741   4.171   1.708  0.00  0.00    +0.008 A 
ENDBRANCH   3   7
TORSDOF 1
ENDMDL
MODEL 3
REMARK VINA RESULT:    -3.495      1.123      4.710
REMARK INTER + INTRA:          -3.903
REMARK INTER:                  -3.691
REMARK INTRA:                  -0.211
REMARK UNBOUND:                -0.204
REMARK  Name = Nicotine.pdb
REMARK  2 active torsions:
REMARK  status: ('A' for Active; 'I' for Inactive)
REMARK    1  A    between atoms: C_3  and  C_6
REMARK    2  A    between atoms: N_4  and  C_12
REMARK                            x       y       z     vdW  Elec       q    Type
REMARK                         _______ _______ _______ _____ _____    ______ ____
ROOT
ATOM      1  C   UNL     1      10.105   5.348   3.636  0.00  0.00    +0.017 C 
ATOM      2  C   UNL     1      10.552   5.175   2.160  0.00  0.00    +0.025 C 
ATOM      3  C   UNL     1       9.223   5.276   1.381  0.00  0.00    +0.088 C 
ATOM      4  N   UNL     1       8.138   4.947   2.322  0.00  0.00    -0.298 NA
ATOM      5  C   UNL     1       8.736   4.623   3.635  0.00  0.00    +0.085 C 
ATOM      6  C   UNL     1       7.185   6.058   2.437  0.00  0.00    +0.105 C 
ENDROOT
BRANCH   3   7
ATOM      7  C   UNL     1       9.225   4.298   0.235  0.00  0.00    -0.012 A 
ATOM      8  C   UNL     1      10.057   4.494  -0.851  0.00  0.00    +0.115 A 
ATOM      9  N   UNL     1      10.064   3.643  -1.858  0.00  0.00    -0.263 NA
ATOM     10  C   UNL     1       9.286   2.579  -1.871  0.00  0.00    +0.111 A 
ATOM     11  C   UNL     1       8.427   2.316  -0.820  0.00  0.00    +0.020 A 
ATOM     12  C   UNL     1       8.396   3.187   0.259  0.00  0.00    +0.008 A 
ENDBRANCH   3   7
TORSDOF 1
ENDMDL
MODEL 4
REMARK VINA RESULT:    -3.479      1.375      4.495
REMARK INTER + INTRA:          -3.886
REMARK INTER:                  -3.666
REMARK INTRA:                  -0.221
REMARK UNBOUND:                -0.204
REMARK  Name = Nicotine.pdb
REMARK  2 active torsions:
REMARK  status: ('A' for Active; 'I' for Inactive)
REMARK    1  A    between atoms: C_3  and  C_6
REMARK    2  A    between atoms: N_4  and  C_12
REMARK                            x       y       z     vdW  Elec       q    Type
REMARK                         _______ _______ _______ _____ _____    ______ ____
ROOT
ATOM      1  C   UNL     1       6.048   5.262   1.053  0.00  0.00    +0.017 C 
ATOM      2  C   UNL     1       6.538   4.106   0.141  0.00  0.00    +0.025 C 
ATOM      3  C   UNL     1       7.941   3.793   0.702  0.00  0.00    +0.088 C 
ATOM      4  N   UNL     1       8.403   4.995   1.420  0.00  0.00    -0.298 NA
ATOM      5  C   UNL     1       7.363   6.040   1.306  0.00  0.00    +0.085 C 
ATOM      6  C   UNL     1       8.692   4.690   2.827  0.00  0.00    +0.105 C 
ENDROOT
BRANCH   3   7
ATOM      7  C   UNL     1       8.886   3.475  -0.428  0.00  0.00    -0.012 A 
ATOM      8  C   UNL     1       9.990   4.272  -0.662  0.00  0.00    +0.115 A 
ATOM      9  N   UNL     1      10.821   4.000  -1.649  0.00  0.00    -0.263 NA
ATOM     10  C   UNL     1      10.636   2.967  -2.446  0.00  0.00    +0.111 A 
ATOM     11  C   UNL     1       9.555   2.124  -2.273  0.00  0.00    +0.020 A 
ATOM     12  C   UNL     1       8.662   2.375  -1.242  0.00  0.00    +0.008 A 
ENDBRANCH   3   7
TORSDOF 1
ENDMDL
MODEL 5
REMARK VINA RESULT:    -3.273      1.573      2.486
REMARK INTER + INTRA:          -3.668
REMARK INTER:                  -3.497
REMARK INTRA:                  -0.171
REMARK UNBOUND:                -0.204
REMARK  Name = Nicotine.pdb
REMARK  2 active torsions:
REMARK  status: ('A' for Active; 'I' for Inactive)
REMARK    1  A    between atoms: C_3  and  C_6
REMARK    2  A    between atoms: N_4  and  C_12
REMARK                            x       y       z     vdW  Elec       q    Type
REMARK                         _______ _______ _______ _____ _____    ______ ____
ROOT
ATOM      1  C   UNL     1       7.104   5.273  -1.542  0.00  0.00    +0.017 C 
ATOM      2  C   UNL     1       8.160   5.852  -0.564  0.00  0.00    +0.025 C 
ATOM      3  C   UNL     1       8.948   4.601  -0.122  0.00  0.00    +0.088 C 
ATOM      4  N   UNL     1       8.076   3.434  -0.347  0.00  0.00    -0.298 NA
ATOM      5  C   UNL     1       6.782   3.909  -0.881  0.00  0.00    +0.085 C 
ATOM      6  C   UNL     1       8.705   2.475  -1.263  0.00  0.00    +0.105 C 
ENDROOT
BRANCH   3   7
ATOM      7  C   UNL     1       9.299   4.706   1.339  0.00  0.00    -0.012 A 
ATOM      8  C   UNL     1       8.381   4.344   2.307  0.00  0.00    +0.115 A 
ATOM      9  N   UNL     1       8.681   4.433   3.588  0.00  0.00    -0.263 NA
ATOM     10  C   UNL     1       9.856   4.868   3.997  0.00  0.00    +0.111 A 
ATOM     11  C   UNL     1      10.825   5.247   3.087  0.00  0.00    +0.020 A 
ATOM     12  C   UNL     1      10.549   5.162   1.731  0.00  0.00    +0.008 A 
ENDBRANCH   3   7
TORSDOF 1
ENDMDL
MODEL 6
REMARK VINA RESULT:    -3.213      2.866      5.199
REMARK INTER + INTRA:          -3.605
REMARK INTER:                  -3.381
REMARK INTRA:                  -0.224
REMARK UNBOUND:                -0.204
REMARK  Name = Nicotine.pdb
REMARK  2 active torsions:
REMARK  status: ('A' for Active; 'I' for Inactive)
REMARK    1  A    between atoms: C_3  and  C_6
REMARK    2  A    between atoms: N_4  and  C_12
REMARK                            x       y       z     vdW  Elec       q    Type
REMARK                         _______ _______ _______ _____ _____    ______ ____
ROOT
ATOM      1  C   UNL     1       8.452   2.947   0.167  0.00  0.00    +0.017 C 
ATOM      2  C   UNL     1       8.809   3.030  -1.341  0.00  0.00    +0.025 C 
ATOM      3  C   UNL     1       8.420   4.477  -1.711  0.00  0.00    +0.088 C 
ATOM      4  N   UNL     1       7.436   4.934  -0.713  0.00  0.00    -0.298 NA
ATOM      5  C   UNL     1       7.181   3.830   0.237  0.00  0.00    +0.085 C 
ATOM      6  C   UNL     1       7.914   6.133  -0.012  0.00  0.00    +0.105 C 
ENDROOT
BRANCH   3   7
ATOM      7  C   UNL     1       7.809   4.508  -3.087  0.00  0.00    -0.012 A 
ATOM      8  C   UNL     1       6.550   5.043  -3.281  0.00  0.00    +0.115 A 
ATOM      9  N   UNL     1       6.008   5.074  -4.483  0.00  0.00    -0.263 NA
ATOM     10  C   UNL     1       6.638   4.600  -5.540  0.00  0.00    +0.111 A 
ATOM     11  C   UNL     1       7.901   4.050  -5.424  0.00  0.00    +0.020 A 
ATOM     12  C   UNL     1       8.505   4.005  -4.177  0.00  0.00    +0.008 A 
ENDBRANCH   3   7
TORSDOF 1
ENDMDL
MODEL 7
REMARK VINA RESULT:    -3.150      1.692      4.834
REMARK INTER + INTRA:          -3.538
REMARK INTER:                  -3.321
REMARK INTRA:                  -0.218
REMARK UNBOUND:                -0.204
REMARK  Name = Nicotine.pdb
REMARK  2 active torsions:
REMARK  status: ('A' for Active; 'I' for Inactive)
REMARK    1  A    between atoms: C_3  and  C_6
REMARK    2  A    between atoms: N_4  and  C_12
REMARK                            x       y       z     vdW  Elec       q    Type
REMARK                         _______ _______ _______ _____ _____    ______ ____
ROOT
ATOM      1  C   UNL     1       9.274   4.856   1.389  0.00  0.00    +0.017 C 
ATOM      2  C   UNL     1       9.711   5.013  -0.091  0.00  0.00    +0.025 C 
ATOM      3  C   UNL     1       8.435   4.634  -0.872  0.00  0.00    +0.088 C 
ATOM      4  N   UNL     1       7.605   3.808   0.022  0.00  0.00    -0.298 NA
ATOM      5  C   UNL     1       8.319   3.639   1.305  0.00  0.00    +0.085 C 
ATOM      6  C   UNL     1       6.285   4.418   0.230  0.00  0.00    +0.105 C 
ENDROOT
BRANCH   3   7
ATOM      7  C   UNL     1       8.803   3.849  -2.104  0.00  0.00    -0.012 A 
ATOM      8  C   UNL     1       8.452   4.311  -3.359  0.00  0.00    +0.115 A 
ATOM      9  N   UNL     1       8.769   3.629  -4.442  0.00  0.00    -0.263 NA
ATOM     10  C   UNL     1       9.429   2.490  -4.376  0.00  0.00    +0.111 A 
ATOM     11  C   UNL     1       9.814   1.965  -3.156  0.00  0.00    +0.020 A 
ATOM     12  C   UNL     1       9.502   2.656  -1.995  0.00  0.00    +0.008 A 
ENDBRANCH   3   7
TORSDOF 1
ENDMDL
MODEL 8
REMARK VINA RESULT:    -3.051      2.259      4.540
REMARK INTER + INTRA:          -3.433
REMARK INTER:                  -3.178
REMARK INTRA:                  -0.255
REMARK UNBOUND:                -0.204
REMARK  Name = Nicotine.pdb
REMARK  2 active torsions:
REMARK  status: ('A' for Active; 'I' for Inactive)
REMARK    1  A    between atoms: C_3  and  C_6
REMARK    2  A    between atoms: N_4  and  C_12
REMARK                            x       y       z     vdW  Elec       q    Type
REMARK                         _______ _______ _______ _____ _____    ______ ____
ROOT
ATOM      1  C   UNL     1       8.752   4.365   2.177  0.00  0.00    +0.017 C 
ATOM      2  C   UNL     1       7.986   3.716   0.994  0.00  0.00    +0.025 C 
ATOM      3  C   UNL     1       8.758   4.227  -0.241  0.00  0.00    +0.088 C 
ATOM      4  N   UNL     1       9.467   5.454   0.163  0.00  0.00    -0.298 NA
ATOM      5  C   UNL     1       9.147   5.738   1.579  0.00  0.00    +0.085 C 
ATOM      6  C   UNL     1      10.915   5.316  -0.033  0.00  0.00    +0.105 C 
ENDROOT
BRANCH   3   7
ATOM      7  C   UNL     1       7.794   4.533  -1.358  0.00  0.00    -0.012 A 
ATOM      8  C   UNL     1       8.254   4.708  -2.650  0.00  0.00    +0.115 A 
ATOM      9  N   UNL     1       7.417   4.976  -3.633  0.00  0.00    -0.263 NA
ATOM     10  C   UNL     1       6.120   5.089  -3.428  0.00  0.00    +0.111 A 
ATOM     11  C   UNL     1       5.587   4.927  -2.162  0.00  0.00    +0.020 A 
ATOM     12  C   UNL     1       6.435   4.639  -1.105  0.00  0.00    +0.008 A 
ENDBRANCH   3   7
TORSDOF 1
ENDMDL
MODEL 9
REMARK VINA RESULT:    -3.011      2.385      2.771
REMARK INTER + INTRA:          -3.390
REMARK INTER:                  -3.191
REMARK INTRA:                  -0.200
REMARK UNBOUND:                -0.204
REMARK  Name = Nicotine.pdb
REMARK  2 active torsions:
REMARK  status: ('A' for Active; 'I' for Inactive)
REMARK    1  A    between atoms: C_3  and  C_6
REMARK    2  A    between atoms: N_4  and  C_12
REMARK                            x       y       z     vdW  Elec       q    Type
REMARK                         _______ _______ _______ _____ _____    ______ ____
ROOT
ATOM      1  C   UNL     1       5.698   5.113  -2.362  0.00  0.00    +0.017 C 
ATOM      2  C   UNL     1       5.671   5.332  -0.827  0.00  0.00    +0.025 C 
ATOM      3  C   UNL     1       6.999   6.071  -0.558  0.00  0.00    +0.088 C 
ATOM      4  N   UNL     1       7.903   5.766  -1.681  0.00  0.00    -0.298 NA
ATOM      5  C   UNL     1       7.205   4.857  -2.615  0.00  0.00    +0.085 C 
ATOM      6  C   UNL     1       8.330   6.995  -2.363  0.00  0.00    +0.105 C 
ENDROOT
BRANCH   3   7
ATOM      7  C   UNL     1       7.603   5.585   0.734  0.00  0.00    -0.012 A 
ATOM      8  C   UNL     1       7.677   4.232   1.006  0.00  0.00    +0.115 A 
ATOM      9  N   UNL     1       8.204   3.798   2.135  0.00  0.00    -0.263 NA
ATOM     10  C   UNL     1       8.678   4.629   3.042  0.00  0.00    +0.111 A 
ATOM     11  C   UNL     1       8.639   5.996   2.840  0.00  0.00    +0.020 A 
ATOM     12  C   UNL     1       8.097   6.488   1.663  0.00  0.00    +0.008 A 
ENDBRANCH   3   7
TORSDOF 1
ENDMDL
MODEL 10
REMARK VINA RESULT:    -2.947      2.999      4.171
REMARK INTER + INTRA:          -3.323
REMARK INTER:                  -3.067
REMARK INTRA:                  -0.256
REMARK UNBOUND:                -0.204
REMARK  Name = Nicotine.pdb
REMARK  2 active torsions:
REMARK  status: ('A' for Active; 'I' for Inactive)
REMARK    1  A    between atoms: C_3  and  C_6
REMARK    2  A    between atoms: N_4  and  C_12
REMARK                            x       y       z     vdW  Elec       q    Type
REMARK                         _______ _______ _______ _____ _____    ______ ____
ROOT
ATOM      1  C   UNL     1       6.203   4.736  -1.064  0.00  0.00    +0.017 C 
ATOM      2  C   UNL     1       6.179   5.922  -0.066  0.00  0.00    +0.025 C 
ATOM      3  C   UNL     1       7.213   5.500   1.000  0.00  0.00    +0.088 C 
ATOM      4  N   UNL     1       7.342   4.034   0.927  0.00  0.00    -0.298 NA
ATOM      5  C   UNL     1       6.420   3.531  -0.114  0.00  0.00    +0.085 C 
ATOM      6  C   UNL     1       8.727   3.640   0.639  0.00  0.00    +0.105 C 
ENDROOT
BRANCH   3   7
ATOM      7  C   UNL     1       6.732   5.906   2.369  0.00  0.00    -0.012 A 
ATOM      8  C   UNL     1       7.608   5.936   3.437  0.00  0.00    +0.115 A 
ATOM      9  N   UNL     1       7.196   6.291   4.639  0.00  0.00    -0.263 NA
ATOM     10  C   UNL     1       5.942   6.627   4.870  0.00  0.00    +0.111 A 
ATOM     11  C   UNL     1       5.008   6.621   3.851  0.00  0.00    +0.020 A 
ATOM     12  C   UNL     1       5.407   6.259   2.573  0.00  0.00    +0.008 A 
ENDBRANCH   3   7
TORSDOF 1
ENDMDL
