MODEL 1
REMARK VINA RESULT:    -3.385      0.000      0.000
REMARK INTER + INTRA:          -3.805
REMARK INTER:                  -3.583
REMARK INTRA:                  -0.222
REMARK UNBOUND:                -0.222
REMARK  Name = Nicotine.pdb
REMARK  2 active torsions:
REMARK  status: ('A' for Active; 'I' for Inactive)
REMARK    1  A    between atoms: C_3  and  C_6
REMARK    2  A    between atoms: N_4  and  C_12
REMARK                            x       y       z     vdW  Elec       q    Type
REMARK                         _______ _______ _______ _____ _____    ______ ____
ROOT
ATOM      1  C   UNL     1       9.576  -4.550   0.990  0.00  0.00    +0.017 C 
ATOM      2  C   UNL     1       9.497  -3.010   1.166  0.00  0.00    +0.025 C 
ATOM      3  C   UNL     1       9.441  -2.839   2.699  0.00  0.00    +0.088 C 
ATOM      4  N   UNL     1       8.950  -4.109   3.263  0.00  0.00    -0.298 NA
ATOM      5  C   UNL     1       8.677  -5.044   2.151  0.00  0.00    +0.085 C 
ATOM      6  C   UNL     1       9.922  -4.679   4.205  0.00  0.00    +0.105 C 
ENDROOT
BRANCH   3   7
ATOM      7  C   UNL     1       8.497  -1.720   3.055  0.00  0.00    -0.012 A 
ATOM      8  C   UNL     1       7.493  -1.920   3.984  0.00  0.00    +0.115 A 
ATOM      9  N   UNL     1       6.663  -0.946   4.301  0.00  0.00    -0.263 NA
ATOM     10  C   UNL     1       6.755   0.249   3.752  0.00  0.00    +0.111 A 
ATOM     11  C   UNL     1       7.734   0.524   2.816  0.00  0.00    +0.020 A 
ATOM     12  C   UNL     1       8.628  -0.474   2.461  0.00  0.00    +0.008 A 
ENDBRANCH   3   7
TORSDOF 1
ENDMDL
MODEL 2
REMARK VINA RESULT:    -3.338      8.582     10.447
REMARK INTER + INTRA:          -3.755
REMARK INTER:                  -3.562
REMARK INTRA:                  -0.192
REMARK UNBOUND:                -0.222
REMARK  Name = Nicotine.pdb
REMARK  2 active torsions:
REMARK  status: ('A' for Active; 'I' for Inactive)
REMARK    1  A    between atoms: C_3  and  C_6
REMARK    2  A    between atoms: N_4  and  C_12
REMARK                            x       y       z     vdW  Elec       q    Type
REMARK                         _______ _______ _______ _____ _____    ______ ____
ROOT
ATOM      1  C   UNL     1       6.813   5.876  -4.665  0.00  0.00    +0.017 C 
ATOM      2  C   UNL     1       7.089   4.565  -3.884  0.00  0.00    +0.025 C 
ATOM      3  C   UNL     1       8.609   4.366  -4.064  0.00  0.00    +0.088 C 
ATOM      4  N   UNL     1       9.008   5.119  -5.266  0.00  0.00    -0.298 NA
ATOM      5  C   UNL     1       7.805   5.749  -5.849  0.00  0.00    +0.085 C 
ATOM      6  C   UNL     1      10.027   6.126  -4.943  0.00  0.00    +0.105 C 
ENDROOT
BRANCH   3   7
ATOM      7  C   UNL     1       8.917   2.903  -4.248  0.00  0.00    -0.012 A 
ATOM      8  C   UNL     1       7.931   1.952  -4.062  0.00  0.00    +0.115 A 
ATOM      9  N   UNL     1       8.192   0.669  -4.221  0.00  0.00    -0.263 NA
ATOM     10  C   UNL     1       9.392   0.243  -4.560  0.00  0.00    +0.111 A 
ATOM     11  C   UNL     1      10.429   1.135  -4.763  0.00  0.00    +0.020 A 
ATOM     12  C   UNL     1      10.191   2.493  -4.610  0.00  0.00    +0.008 A 
ENDBRANCH   3   7
TORSDOF 1
ENDMDL
MODEL 3
REMARK VINA RESULT:    -3.327      8.280      9.196
REMARK INTER + INTRA:          -3.743
REMARK INTER:                  -3.547
REMARK INTRA:                  -0.196
REMARK UNBOUND:                -0.222
REMARK  Name = Nicotine.pdb
REMARK  2 active torsions:
REMARK  status: ('A' for Active; 'I' for Inactive)
REMARK    1  A    between atoms: C_3  and  C_6
REMARK    2  A    between atoms: N_4  and  C_12
REMARK                            x       y       z     vdW  Elec       q    Type
REMARK                         _______ _______ _______ _____ _____    ______ ____
ROOT
ATOM      1  C   UNL     1       7.921  -0.756  -6.092  0.00  0.00    +0.017 C 
ATOM      2  C   UNL     1       7.536   0.704  -6.447  0.00  0.00    +0.025 C 
ATOM      3  C   UNL     1       8.516   1.539  -5.595  0.00  0.00    +0.088 C 
ATOM      4  N   UNL     1       8.965   0.683  -4.482  0.00  0.00    -0.298 NA
ATOM      5  C   UNL     1       8.289  -0.627  -4.593  0.00  0.00    +0.085 C 
ATOM      6  C   UNL     1      10.425   0.526  -4.493  0.00  0.00    +0.105 C 
ENDROOT
BRANCH   3   7
ATOM      7  C   UNL     1       7.816   2.759  -5.056  0.00  0.00    -0.012 A 
ATOM      8  C   UNL     1       7.748   3.916  -5.809  0.00  0.00    +0.115 A 
ATOM      9  N   UNL     1       7.138   4.989  -5.345  0.00  0.00    -0.263 NA
ATOM     10  C   UNL     1       6.571   5.003  -4.154  0.00  0.00    +0.111 A 
ATOM     11  C   UNL     1       6.598   3.882  -3.344  0.00  0.00    +0.020 A 
ATOM     12  C   UNL     1       7.227   2.734  -3.801  0.00  0.00    +0.008 A 
ENDBRANCH   3   7
TORSDOF 1
ENDMDL
MODEL 4
REMARK VINA RESULT:    -3.313      1.800      4.588
REMARK INTER + INTRA:          -3.729
REMARK INTER:                  -3.508
REMARK INTRA:                  -0.221
REMARK UNBOUND:                -0.222
REMARK  Name = Nicotine.pdb
REMARK  2 active torsions:
REMARK  status: ('A' for Active; 'I' for Inactive)
REMARK    1  A    between atoms: C_3  and  C_6
REMARK    2  A    between atoms: N_4  and  C_12
REMARK                            x       y       z     vdW  Elec       q    Type
REMARK                         _______ _______ _______ _____ _____    ______ ____
ROOT
ATOM      1  C   UNL     1       7.027   0.327   4.505  0.00  0.00    +0.017 C 
ATOM      2  C   UNL     1       7.161  -1.124   3.974  0.00  0.00    +0.025 C 
ATOM      3  C   UNL     1       8.689  -1.340   3.936  0.00  0.00    +0.088 C 
ATOM      4  N   UNL     1       9.317  -0.008   3.875  0.00  0.00    -0.298 NA
ATOM      5  C   UNL     1       8.250   1.015   3.849  0.00  0.00    +0.085 C 
ATOM      6  C   UNL     1      10.220   0.201   5.014  0.00  0.00    +0.105 C 
ENDROOT
BRANCH   3   7
ATOM      7  C   UNL     1       9.063  -2.141   2.715  0.00  0.00    -0.012 A 
ATOM      8  C   UNL     1       9.886  -1.597   1.747  0.00  0.00    +0.115 A 
ATOM      9  N   UNL     1      10.218  -2.291   0.676  0.00  0.00    -0.263 NA
ATOM     10  C   UNL     1       9.784  -3.521   0.485  0.00  0.00    +0.111 A 
ATOM     11  C   UNL     1       8.958  -4.131   1.411  0.00  0.00    +0.020 A 
ATOM     12  C   UNL     1       8.591  -3.434   2.552  0.00  0.00    +0.008 A 
ENDBRANCH   3   7
TORSDOF 1
ENDMDL
MODEL 5
REMARK VINA RESULT:    -3.090      1.590      4.694
REMARK INTER + INTRA:          -3.493
REMARK INTER:                  -3.304
REMARK INTRA:                  -0.189
REMARK UNBOUND:                -0.222
REMARK  Name = Nicotine.pdb
REMARK  2 active torsions:
REMARK  status: ('A' for Active; 'I' for Inactive)
REMARK    1  A    between atoms: C_3  and  C_6
REMARK    2  A    between atoms: N_4  and  C_12
REMARK                            x       y       z     vdW  Elec       q    Type
REMARK                         _______ _______ _______ _____ _____    ______ ____
ROOT
ATOM      1  C   UNL     1       8.713   1.273   3.216  0.00  0.00    +0.017 C 
ATOM      2  C   UNL     1       8.405  -0.183   2.780  0.00  0.00    +0.025 C 
ATOM      3  C   UNL     1       7.623  -0.748   3.984  0.00  0.00    +0.088 C 
ATOM      4  N   UNL     1       7.972   0.074   5.157  0.00  0.00    -0.298 NA
ATOM      5  C   UNL     1       8.950   1.101   4.737  0.00  0.00    +0.085 C 
ATOM      6  C   UNL     1       6.776   0.693   5.741  0.00  0.00    +0.105 C 
ENDROOT
BRANCH   3   7
ATOM      7  C   UNL     1       8.019  -2.182   4.226  0.00  0.00    -0.012 A 
ATOM      8  C   UNL     1       8.728  -2.882   3.268  0.00  0.00    +0.115 A 
ATOM      9  N   UNL     1       9.078  -4.137   3.472  0.00  0.00    -0.263 NA
ATOM     10  C   UNL     1       8.771  -4.771   4.586  0.00  0.00    +0.111 A 
ATOM     11  C   UNL     1       8.065  -4.134   5.590  0.00  0.00    +0.020 A 
ATOM     12  C   UNL     1       7.684  -2.813   5.414  0.00  0.00    +0.008 A 
ENDBRANCH   3   7
TORSDOF 1
ENDMDL
MODEL 6
REMARK VINA RESULT:    -3.052      1.491      4.391
REMARK INTER + INTRA:          -3.452
REMARK INTER:                  -3.259
REMARK INTRA:                  -0.193
REMARK UNBOUND:                -0.222
REMARK  Name = Nicotine.pdb
REMARK  2 active torsions:
REMARK  status: ('A' for Active; 'I' for Inactive)
REMARK    1  A    between atoms: C_3  and  C_6
REMARK    2  A    between atoms: N_4  and  C_12
REMARK                            x       y       z     vdW  Elec       q    Type
REMARK                         _______ _______ _______ _____ _____    ______ ____
ROOT
ATOM      1  C   UNL     1       8.134  -1.561   5.302  0.00  0.00    +0.017 C 
ATOM      2  C   UNL     1       9.243  -2.299   4.507  0.00  0.00    +0.025 C 
ATOM      3  C   UNL     1       9.317  -1.497   3.190  0.00  0.00    +0.088 C 
ATOM      4  N   UNL     1       8.029  -0.798   3.030  0.00  0.00    -0.298 NA
ATOM      5  C   UNL     1       7.158  -1.151   4.172  0.00  0.00    +0.085 C 
ATOM      6  C   UNL     1       8.225   0.655   2.946  0.00  0.00    +0.105 C 
ENDROOT
BRANCH   3   7
ATOM      7  C   UNL     1       9.540  -2.434   2.031  0.00  0.00    -0.012 A 
ATOM      8  C   UNL     1       8.730  -3.541   1.862  0.00  0.00    +0.115 A 
ATOM      9  N   UNL     1       8.919  -4.366   0.850  0.00  0.00    -0.263 NA
ATOM     10  C   UNL     1       9.878  -4.172  -0.033  0.00  0.00    +0.111 A 
ATOM     11  C   UNL     1      10.727  -3.086   0.071  0.00  0.00    +0.020 A 
ATOM     12  C   UNL     1      10.556  -2.194   1.118  0.00  0.00    +0.008 A 
ENDBRANCH   3   7
TORSDOF 1
ENDMDL
MODEL 7
REMARK VINA RESULT:    -2.971      1.918      4.470
REMARK INTER + INTRA:          -3.367
REMARK INTER:                  -3.152
REMARK INTRA:                  -0.214
REMARK UNBOUND:                -0.222
REMARK  Name = Nicotine.pdb
REMARK  2 active torsions:
REMARK  status: ('A' for Active; 'I' for Inactive)
REMARK    1  A    between atoms: C_3  and  C_6
REMARK    2  A    between atoms: N_4  and  C_12
REMARK                            x       y       z     vdW  Elec       q    Type
REMARK                         _______ _______ _______ _____ _____    ______ ____
ROOT
ATOM      1  C   UNL     1       7.469   0.204   3.273  0.00  0.00    +0.017 C 
ATOM      2  C   UNL     1       7.089  -0.895   4.300  0.00  0.00    +0.025 C 
ATOM      3  C   UNL     1       8.451  -1.539   4.639  0.00  0.00    +0.088 C 
ATOM      4  N   UNL     1       9.363  -1.248   3.518  0.00  0.00    -0.298 NA
ATOM      5  C   UNL     1       8.622  -0.480   2.495  0.00  0.00    +0.085 C 
ATOM      6  C   UNL     1      10.545  -0.510   3.979  0.00  0.00    +0.105 C 
ENDROOT
BRANCH   3   7
ATOM      7  C   UNL     1       8.288  -3.028   4.797  0.00  0.00    -0.012 A 
ATOM      8  C   UNL     1       8.854  -3.894   3.881  0.00  0.00    +0.115 A 
ATOM      9  N   UNL     1       8.717  -5.199   4.012  0.00  0.00    -0.263 NA
ATOM     10  C   UNL     1       8.040  -5.728   5.012  0.00  0.00    +0.111 A 
ATOM     11  C   UNL     1       7.446  -4.925   5.967  0.00  0.00    +0.020 A 
ATOM     12  C   UNL     1       7.574  -3.548   5.866  0.00  0.00    +0.008 A 
ENDBRANCH   3   7
TORSDOF 1
ENDMDL
MODEL 8
REMARK VINA RESULT:    -2.829      7.562      8.337
REMARK INTER + INTRA:          -3.216
REMARK INTER:                  -3.024
REMARK INTRA:                  -0.193
REMARK UNBOUND:                -0.222
REMARK  Name = Nicotine.pdb
REMARK  2 active torsions:
REMARK  status: ('A' for Active; 'I' for Inactive)
REMARK    1  A    between atoms: C_3  and  C_6
REMARK    2  A    between atoms: N_4  and  C_12
REMARK                            x       y       z     vdW  Elec       q    Type
REMARK                         _______ _______ _______ _____ _____    ______ ____
ROOT
ATOM      1  C   UNL     1       7.343  -1.405  -6.008  0.00  0.00    +0.017 C 
ATOM      2  C   UNL     1       7.812   0.057  -6.234  0.00  0.00    +0.025 C 
ATOM      3  C   UNL     1       9.027   0.181  -5.291  0.00  0.00    +0.088 C 
ATOM      4  N   UNL     1       8.883  -0.855  -4.253  0.00  0.00    -0.298 NA
ATOM      5  C   UNL     1       7.626  -1.594  -4.497  0.00  0.00    +0.085 C 
ATOM      6  C   UNL     1      10.037  -1.764  -4.252  0.00  0.00    +0.105 C 
ENDROOT
BRANCH   3   7
ATOM      7  C   UNL     1       9.045   1.547  -4.655  0.00  0.00    -0.012 A 
ATOM      8  C   UNL     1       7.917   2.041  -4.029  0.00  0.00    +0.115 A 
ATOM      9  N   UNL     1       7.923   3.235  -3.469  0.00  0.00    -0.263 NA
ATOM     10  C   UNL     1       8.996   4.001  -3.485  0.00  0.00    +0.111 A 
ATOM     11  C   UNL     1      10.162   3.575  -4.092  0.00  0.00    +0.020 A 
ATOM     12  C   UNL     1      10.194   2.322  -4.686  0.00  0.00    +0.008 A 
ENDBRANCH   3   7
TORSDOF 1
ENDMDL
MODEL 9
REMARK VINA RESULT:    -2.753      1.679      2.408
REMARK INTER + INTRA:          -3.136
REMARK INTER:                  -2.931
REMARK INTRA:                  -0.205
REMARK UNBOUND:                -0.222
REMARK  Name = Nicotine.pdb
REMARK  2 active torsions:
REMARK  status: ('A' for Active; 'I' for Inactive)
REMARK    1  A    between atoms: C_3  and  C_6
REMARK    2  A    between atoms: N_4  and  C_12
REMARK                            x       y       z     vdW  Elec       q    Type
REMARK                         _______ _______ _______ _____ _____    ______ ____
ROOT
ATOM      1  C   UNL     1       9.477  -4.874   3.793  0.00  0.00    +0.017 C 
ATOM      2  C   UNL     1       8.714  -3.591   4.216  0.00  0.00    +0.025 C 
ATOM      3  C   UNL     1       8.793  -2.708   2.953  0.00  0.00    +0.088 C 
ATOM      4  N   UNL     1       9.944  -3.179   2.162  0.00  0.00    -0.298 NA
ATOM      5  C   UNL     1      10.592  -4.291   2.889  0.00  0.00    +0.085 C 
ATOM      6  C   UNL     1       9.524  -3.601   0.819  0.00  0.00    +0.105 C 
ENDROOT
BRANCH   3   7
ATOM      7  C   UNL     1       8.994  -1.268   3.346  0.00  0.00    -0.012 A 
ATOM      8  C   UNL     1       9.887  -0.934   4.346  0.00  0.00    +0.115 A 
ATOM      9  N   UNL     1      10.069   0.324   4.696  0.00  0.00    -0.263 NA
ATOM     10  C   UNL     1       9.413   1.308   4.113  0.00  0.00    +0.111 A 
ATOM     11  C   UNL     1       8.503   1.051   3.104  0.00  0.00    +0.020 A 
ATOM     12  C   UNL     1       8.289  -0.260   2.706  0.00  0.00    +0.008 A 
ENDBRANCH   3   7
TORSDOF 1
ENDMDL
MODEL 10
REMARK VINA RESULT:    -2.751      1.809      2.869
REMARK INTER + INTRA:          -3.134
REMARK INTER:                  -2.913
REMARK INTRA:                  -0.221
REMARK UNBOUND:                -0.222
REMARK  Name = Nicotine.pdb
REMARK  2 active torsions:
REMARK  status: ('A' for Active; 'I' for Inactive)
REMARK    1  A    between atoms: C_3  and  C_6
REMARK    2  A    between atoms: N_4  and  C_12
REMARK                            x       y       z     vdW  Elec       q    Type
REMARK                         _______ _______ _______ _____ _____    ______ ____
ROOT
ATOM      1  C   UNL     1       8.572  -4.546   6.233  0.00  0.00    +0.017 C 
ATOM      2  C   UNL     1       7.663  -3.471   5.581  0.00  0.00    +0.025 C 
ATOM      3  C   UNL     1       8.382  -3.170   4.249  0.00  0.00    +0.088 C 
ATOM      4  N   UNL     1       9.791  -3.569   4.413  0.00  0.00    -0.298 NA
ATOM      5  C   UNL     1       9.980  -4.076   5.789  0.00  0.00    +0.085 C 
ATOM      6  C   UNL     1      10.171  -4.582   3.420  0.00  0.00    +0.105 C 
ENDROOT
BRANCH   3   7
ATOM      7  C   UNL     1       8.297  -1.697   3.942  0.00  0.00    -0.012 A 
ATOM      8  C   UNL     1       9.427  -0.994   3.572  0.00  0.00    +0.115 A 
ATOM      9  N   UNL     1       9.362   0.295   3.301  0.00  0.00    -0.263 NA
ATOM     10  C   UNL     1       8.226   0.961   3.372  0.00  0.00    +0.111 A 
ATOM     11  C   UNL     1       7.054   0.325   3.735  0.00  0.00    +0.020 A 
ATOM     12  C   UNL     1       7.083  -1.032   4.021  0.00  0.00    +0.008 A 
ENDBRANCH   3   7
TORSDOF 1
ENDMDL
