MODEL 1
REMARK VINA RESULT:    -3.351      0.000      0.000
REMARK INTER + INTRA:          -3.803
REMARK INTER:                  -3.547
REMARK INTRA:                  -0.256
REMARK UNBOUND:                -0.256
REMARK  Name = Nicotine.pdb
REMARK  2 active torsions:
REMARK  status: ('A' for Active; 'I' for Inactive)
REMARK    1  A    between atoms: C_3  and  C_6
REMARK    2  A    between atoms: N_4  and  C_12
REMARK                            x       y       z     vdW  Elec       q    Type
REMARK                         _______ _______ _______ _____ _____    ______ ____
ROOT
ATOM      1  C   UNL     1       4.625   3.321  -6.199  0.00  0.00    +0.017 C 
ATOM      2  C   UNL     1       3.100   3.340  -6.483  0.00  0.00    +0.025 C 
ATOM      3  C   UNL     1       2.797   4.844  -6.651  0.00  0.00    +0.088 C 
ATOM      4  N   UNL     1       3.870   5.586  -5.964  0.00  0.00    -0.298 NA
ATOM      5  C   UNL     1       4.803   4.611  -5.360  0.00  0.00    +0.085 C 
ATOM      6  C   UNL     1       4.570   6.481  -6.893  0.00  0.00    +0.105 C 
ENDROOT
BRANCH   3   7
ATOM      7  C   UNL     1       1.465   5.172  -6.027  0.00  0.00    -0.012 A 
ATOM      8  C   UNL     1       0.825   6.359  -6.328  0.00  0.00    +0.115 A 
ATOM      9  N   UNL     1      -0.341   6.653  -5.786  0.00  0.00    -0.263 NA
ATOM     10  C   UNL     1      -0.940   5.835  -4.944  0.00  0.00    +0.111 A 
ATOM     11  C   UNL     1      -0.361   4.629  -4.597  0.00  0.00    +0.020 A 
ATOM     12  C   UNL     1       0.862   4.283  -5.150  0.00  0.00    +0.008 A 
ENDBRANCH   3   7
TORSDOF 1
ENDMDL
MODEL 2
REMARK VINA RESULT:    -2.840      1.279      4.623
REMARK INTER + INTRA:          -3.261
REMARK INTER:                  -3.056
REMARK INTRA:                  -0.206
REMARK UNBOUND:                -0.256
REMARK  Name = Nicotine.pdb
REMARK  2 active torsions:
REMARK  status: ('A' for Active; 'I' for Inactive)
REMARK    1  A    between atoms: C_3  and  C_6
REMARK    2  A    between atoms: N_4  and  C_12
REMARK                            x       y       z     vdW  Elec       q    Type
REMARK                         _______ _______ _______ _____ _____    ______ ____
ROOT
ATOM      1  C   UNL     1      -0.259   6.672  -6.740  0.00  0.00    +0.017 C 
ATOM      2  C   UNL     1       0.974   5.884  -7.256  0.00  0.00    +0.025 C 
ATOM      3  C   UNL     1       1.253   4.888  -6.111  0.00  0.00    +0.088 C 
ATOM      4  N   UNL     1       0.648   5.447  -4.888  0.00  0.00    -0.298 NA
ATOM      5  C   UNL     1       0.032   6.749  -5.220  0.00  0.00    +0.085 C 
ATOM      6  C   UNL     1      -0.344   4.523  -4.322  0.00  0.00    +0.105 C 
ENDROOT
BRANCH   3   7
ATOM      7  C   UNL     1       2.740   4.729  -5.922  0.00  0.00    -0.012 A 
ATOM      8  C   UNL     1       3.352   3.519  -6.189  0.00  0.00    +0.115 A 
ATOM      9  N   UNL     1       4.653   3.371  -6.026  0.00  0.00    -0.263 NA
ATOM     10  C   UNL     1       5.416   4.360  -5.606  0.00  0.00    +0.111 A 
ATOM     11  C   UNL     1       4.874   5.599  -5.319  0.00  0.00    +0.020 A 
ATOM     12  C   UNL     1       3.511   5.794  -5.483  0.00  0.00    +0.008 A 
ENDBRANCH   3   7
TORSDOF 1
ENDMDL
MODEL 3
REMARK VINA RESULT:    -2.821      2.742      6.274
REMARK INTER + INTRA:          -3.241
REMARK INTER:                  -3.044
REMARK INTRA:                  -0.198
REMARK UNBOUND:                -0.256
REMARK  Name = Nicotine.pdb
REMARK  2 active torsions:
REMARK  status: ('A' for Active; 'I' for Inactive)
REMARK    1  A    between atoms: C_3  and  C_6
REMARK    2  A    between atoms: N_4  and  C_12
REMARK                            x       y       z     vdW  Elec       q    Type
REMARK                         _______ _______ _______ _____ _____    ______ ____
ROOT
ATOM      1  C   UNL     1      -5.143   6.446  -4.481  0.00  0.00    +0.017 C 
ATOM      2  C   UNL     1      -3.721   7.028  -4.703  0.00  0.00    +0.025 C 
ATOM      3  C   UNL     1      -3.108   6.060  -5.737  0.00  0.00    +0.088 C 
ATOM      4  N   UNL     1      -3.853   4.791  -5.643  0.00  0.00    -0.298 NA
ATOM      5  C   UNL     1      -4.878   4.924  -4.586  0.00  0.00    +0.085 C 
ATOM      6  C   UNL     1      -4.468   4.445  -6.932  0.00  0.00    +0.105 C 
ENDROOT
BRANCH   3   7
ATOM      7  C   UNL     1      -1.654   5.826  -5.420  0.00  0.00    -0.012 A 
ATOM      8  C   UNL     1      -0.687   6.692  -5.894  0.00  0.00    +0.115 A 
ATOM      9  N   UNL     1       0.588   6.495  -5.621  0.00  0.00    -0.263 NA
ATOM     10  C   UNL     1       0.991   5.472  -4.893  0.00  0.00    +0.111 A 
ATOM     11  C   UNL     1       0.081   4.564  -4.385  0.00  0.00    +0.020 A 
ATOM     12  C   UNL     1      -1.268   4.742  -4.646  0.00  0.00    +0.008 A 
ENDBRANCH   3   7
TORSDOF 1
ENDMDL
MODEL 4
REMARK VINA RESULT:    -2.703      2.676      5.859
REMARK INTER + INTRA:          -3.117
REMARK INTER:                  -2.906
REMARK INTRA:                  -0.211
REMARK UNBOUND:                -0.256
REMARK  Name = Nicotine.pdb
REMARK  2 active torsions:
REMARK  status: ('A' for Active; 'I' for Inactive)
REMARK    1  A    between atoms: C_3  and  C_6
REMARK    2  A    between atoms: N_4  and  C_12
REMARK                            x       y       z     vdW  Elec       q    Type
REMARK                         _______ _______ _______ _____ _____    ______ ____
ROOT
ATOM      1  C   UNL     1       3.611   6.692  -6.347  0.00  0.00    +0.017 C 
ATOM      2  C   UNL     1       4.975   6.290  -6.967  0.00  0.00    +0.025 C 
ATOM      3  C   UNL     1       4.961   4.750  -6.867  0.00  0.00    +0.088 C 
ATOM      4  N   UNL     1       4.006   4.390  -5.803  0.00  0.00    -0.298 NA
ATOM      5  C   UNL     1       3.451   5.633  -5.228  0.00  0.00    +0.085 C 
ATOM      6  C   UNL     1       2.937   3.528  -6.325  0.00  0.00    +0.105 C 
ENDROOT
BRANCH   3   7
ATOM      7  C   UNL     1       6.337   4.246  -6.514  0.00  0.00    -0.012 A 
ATOM      8  C   UNL     1       7.339   5.133  -6.169  0.00  0.00    +0.115 A 
ATOM      9  N   UNL     1       8.545   4.701  -5.859  0.00  0.00    -0.263 NA
ATOM     10  C   UNL     1       8.844   3.417  -5.865  0.00  0.00    +0.111 A 
ATOM     11  C   UNL     1       7.893   2.470  -6.199  0.00  0.00    +0.020 A 
ATOM     12  C   UNL     1       6.612   2.887  -6.525  0.00  0.00    +0.008 A 
ENDBRANCH   3   7
TORSDOF 1
ENDMDL
MODEL 5
REMARK VINA RESULT:    -2.621      5.625      7.748
REMARK INTER + INTRA:          -3.029
REMARK INTER:                  -2.782
REMARK INTRA:                  -0.248
REMARK UNBOUND:                -0.256
REMARK  Name = Nicotine.pdb
REMARK  2 active torsions:
REMARK  status: ('A' for Active; 'I' for Inactive)
REMARK    1  A    between atoms: C_3  and  C_6
REMARK    2  A    between atoms: N_4  and  C_12
REMARK                            x       y       z     vdW  Elec       q    Type
REMARK                         _______ _______ _______ _____ _____    ______ ____
ROOT
ATOM      1  C   UNL     1       9.474  -1.083  -6.326  0.00  0.00    +0.017 C 
ATOM      2  C   UNL     1       9.423   0.323  -6.981  0.00  0.00    +0.025 C 
ATOM      3  C   UNL     1       9.583   1.273  -5.775  0.00  0.00    +0.088 C 
ATOM      4  N   UNL     1       9.174   0.526  -4.572  0.00  0.00    -0.298 NA
ATOM      5  C   UNL     1       8.746  -0.829  -4.982  0.00  0.00    +0.085 C 
ATOM      6  C   UNL     1      10.268   0.460  -3.595  0.00  0.00    +0.105 C 
ENDROOT
BRANCH   3   7
ATOM      7  C   UNL     1       8.701   2.482  -5.954  0.00  0.00    -0.012 A 
ATOM      8  C   UNL     1       9.160   3.739  -5.610  0.00  0.00    +0.115 A 
ATOM      9  N   UNL     1       8.395   4.802  -5.764  0.00  0.00    -0.263 NA
ATOM     10  C   UNL     1       7.172   4.711  -6.247  0.00  0.00    +0.111 A 
ATOM     11  C   UNL     1       6.645   3.487  -6.614  0.00  0.00    +0.020 A 
ATOM     12  C   UNL     1       7.422   2.348  -6.472  0.00  0.00    +0.008 A 
ENDBRANCH   3   7
TORSDOF 1
ENDMDL
MODEL 6
REMARK VINA RESULT:    -2.607      3.829      5.726
REMARK INTER + INTRA:          -3.015
REMARK INTER:                  -2.766
REMARK INTRA:                  -0.249
REMARK UNBOUND:                -0.256
REMARK  Name = Nicotine.pdb
REMARK  2 active torsions:
REMARK  status: ('A' for Active; 'I' for Inactive)
REMARK    1  A    between atoms: C_3  and  C_6
REMARK    2  A    between atoms: N_4  and  C_12
REMARK                            x       y       z     vdW  Elec       q    Type
REMARK                         _______ _______ _______ _____ _____    ______ ____
ROOT
ATOM      1  C   UNL     1       9.553   1.683  -5.532  0.00  0.00    +0.017 C 
ATOM      2  C   UNL     1       8.231   2.129  -6.212  0.00  0.00    +0.025 C 
ATOM      3  C   UNL     1       8.440   3.644  -6.416  0.00  0.00    +0.088 C 
ATOM      4  N   UNL     1       9.464   4.079  -5.450  0.00  0.00    -0.298 NA
ATOM      5  C   UNL     1       9.877   2.910  -4.644  0.00  0.00    +0.085 C 
ATOM      6  C   UNL     1      10.616   4.679  -6.136  0.00  0.00    +0.105 C 
ENDROOT
BRANCH   3   7
ATOM      7  C   UNL     1       7.149   4.379  -6.162  0.00  0.00    -0.012 A 
ATOM      8  C   UNL     1       7.053   5.733  -6.420  0.00  0.00    +0.115 A 
ATOM      9  N   UNL     1       5.926   6.383  -6.201  0.00  0.00    -0.263 NA
ATOM     10  C   UNL     1       4.856   5.775  -5.730  0.00  0.00    +0.111 A 
ATOM     11  C   UNL     1       4.876   4.421  -5.449  0.00  0.00    +0.020 A 
ATOM     12  C   UNL     1       6.041   3.704  -5.672  0.00  0.00    +0.008 A 
ENDBRANCH   3   7
TORSDOF 1
ENDMDL
MODEL 7
REMARK VINA RESULT:    -2.547      1.250      2.243
REMARK INTER + INTRA:          -2.951
REMARK INTER:                  -2.759
REMARK INTRA:                  -0.193
REMARK UNBOUND:                -0.256
REMARK  Name = Nicotine.pdb
REMARK  2 active torsions:
REMARK  status: ('A' for Active; 'I' for Inactive)
REMARK    1  A    between atoms: C_3  and  C_6
REMARK    2  A    between atoms: N_4  and  C_12
REMARK                            x       y       z     vdW  Elec       q    Type
REMARK                         _______ _______ _______ _____ _____    ______ ____
ROOT
ATOM      1  C   UNL     1       4.716   5.596  -5.830  0.00  0.00    +0.017 C 
ATOM      2  C   UNL     1       3.397   5.798  -5.040  0.00  0.00    +0.025 C 
ATOM      3  C   UNL     1       2.440   4.780  -5.696  0.00  0.00    +0.088 C 
ATOM      4  N   UNL     1       2.967   4.490  -7.042  0.00  0.00    -0.298 NA
ATOM      5  C   UNL     1       4.186   5.299  -7.255  0.00  0.00    +0.085 C 
ATOM      6  C   UNL     1       3.250   3.058  -7.199  0.00  0.00    +0.105 C 
ENDROOT
BRANCH   3   7
ATOM      7  C   UNL     1       1.058   5.369  -5.801  0.00  0.00    -0.012 A 
ATOM      8  C   UNL     1       0.129   5.156  -4.800  0.00  0.00    +0.115 A 
ATOM      9  N   UNL     1      -1.084   5.668  -4.883  0.00  0.00    -0.263 NA
ATOM     10  C   UNL     1      -1.457   6.398  -5.916  0.00  0.00    +0.111 A 
ATOM     11  C   UNL     1      -0.583   6.655  -6.955  0.00  0.00    +0.020 A 
ATOM     12  C   UNL     1       0.702   6.137  -6.899  0.00  0.00    +0.008 A 
ENDBRANCH   3   7
TORSDOF 1
ENDMDL
MODEL 8
REMARK VINA RESULT:    -2.501      5.637      8.317
REMARK INTER + INTRA:          -2.903
REMARK INTER:                  -2.688
REMARK INTRA:                  -0.215
REMARK UNBOUND:                -0.256
REMARK  Name = Nicotine.pdb
REMARK  2 active torsions:
REMARK  status: ('A' for Active; 'I' for Inactive)
REMARK    1  A    between atoms: C_3  and  C_6
REMARK    2  A    between atoms: N_4  and  C_12
REMARK                            x       y       z     vdW  Elec       q    Type
REMARK                         _______ _______ _______ _____ _____    ______ ____
ROOT
ATOM      1  C   UNL     1       8.356   4.727  -6.259  0.00  0.00    +0.017 C 
ATOM      2  C   UNL     1       9.382   3.572  -6.116  0.00  0.00    +0.025 C 
ATOM      3  C   UNL     1       8.522   2.313  -6.360  0.00  0.00    +0.088 C 
ATOM      4  N   UNL     1       7.123   2.679  -6.077  0.00  0.00    -0.298 NA
ATOM      5  C   UNL     1       7.082   4.093  -5.648  0.00  0.00    +0.085 C 
ATOM      6  C   UNL     1       6.273   2.461  -7.256  0.00  0.00    +0.105 C 
ENDROOT
BRANCH   3   7
ATOM      7  C   UNL     1       8.961   1.206  -5.436  0.00  0.00    -0.012 A 
ATOM      8  C   UNL     1       9.553   1.502  -4.223  0.00  0.00    +0.115 A 
ATOM      9  N   UNL     1       9.939   0.539  -3.408  0.00  0.00    -0.263 NA
ATOM     10  C   UNL     1       9.780  -0.733  -3.714  0.00  0.00    +0.111 A 
ATOM     11  C   UNL     1       9.195  -1.105  -4.910  0.00  0.00    +0.020 A 
ATOM     12  C   UNL     1       8.771  -0.121  -5.790  0.00  0.00    +0.008 A 
ENDBRANCH   3   7
TORSDOF 1
ENDMDL
MODEL 9
REMARK VINA RESULT:    -2.211      7.375      9.295
REMARK INTER + INTRA:          -2.596
REMARK INTER:                  -2.383
REMARK INTRA:                  -0.213
REMARK UNBOUND:                -0.256
REMARK  Name = Nicotine.pdb
REMARK  2 active torsions:
REMARK  status: ('A' for Active; 'I' for Inactive)
REMARK    1  A    between atoms: C_3  and  C_6
REMARK    2  A    between atoms: N_4  and  C_12
REMARK                            x       y       z     vdW  Elec       q    Type
REMARK                         _______ _______ _______ _____ _____    ______ ____
ROOT
ATOM      1  C   UNL     1       9.960  -2.496  -3.884  0.00  0.00    +0.017 C 
ATOM      2  C   UNL     1       9.050  -1.240  -3.856  0.00  0.00    +0.025 C 
ATOM      3  C   UNL     1       8.964  -0.840  -5.345  0.00  0.00    +0.088 C 
ATOM      4  N   UNL     1      10.138  -1.421  -6.021  0.00  0.00    -0.298 NA
ATOM      5  C   UNL     1      10.954  -2.137  -5.017  0.00  0.00    +0.085 C 
ATOM      6  C   UNL     1       9.729  -2.322  -7.107  0.00  0.00    +0.105 C 
ENDROOT
BRANCH   3   7
ATOM      7  C   UNL     1       8.987   0.661  -5.475  0.00  0.00    -0.012 A 
ATOM      8  C   UNL     1       9.704   1.429  -4.578  0.00  0.00    +0.115 A 
ATOM      9  N   UNL     1       9.729   2.743  -4.685  0.00  0.00    -0.263 NA
ATOM     10  C   UNL     1       9.077   3.374  -5.641  0.00  0.00    +0.111 A 
ATOM     11  C   UNL     1       8.338   2.671  -6.575  0.00  0.00    +0.020 A 
ATOM     12  C   UNL     1       8.292   1.288  -6.498  0.00  0.00    +0.008 A 
ENDBRANCH   3   7
TORSDOF 1
ENDMDL
MODEL 10
REMARK VINA RESULT:    -2.154      2.824      6.321
REMARK INTER + INTRA:          -2.535
REMARK INTER:                  -2.332
REMARK INTRA:                  -0.203
REMARK UNBOUND:                -0.256
REMARK  Name = Nicotine.pdb
REMARK  2 active torsions:
REMARK  status: ('A' for Active; 'I' for Inactive)
REMARK    1  A    between atoms: C_3  and  C_6
REMARK    2  A    between atoms: N_4  and  C_12
REMARK                            x       y       z     vdW  Elec       q    Type
REMARK                         _______ _______ _______ _____ _____    ______ ____
ROOT
ATOM      1  C   UNL     1      -5.017   4.818  -6.547  0.00  0.00    +0.017 C 
ATOM      2  C   UNL     1      -3.609   4.328  -6.117  0.00  0.00    +0.025 C 
ATOM      3  C   UNL     1      -3.164   5.400  -5.100  0.00  0.00    +0.088 C 
ATOM      4  N   UNL     1      -3.945   6.618  -5.379  0.00  0.00    -0.298 NA
ATOM      5  C   UNL     1      -4.830   6.356  -6.534  0.00  0.00    +0.085 C 
ATOM      6  C   UNL     1      -4.721   7.028  -4.202  0.00  0.00    +0.105 C 
ENDROOT
BRANCH   3   7
ATOM      7  C   UNL     1      -1.693   5.683  -5.264  0.00  0.00    -0.012 A 
ATOM      8  C   UNL     1      -0.752   4.822  -4.731  0.00  0.00    +0.115 A 
ATOM      9  N   UNL     1       0.537   5.062  -4.871  0.00  0.00    -0.263 NA
ATOM     10  C   UNL     1       0.979   6.123  -5.517  0.00  0.00    +0.111 A 
ATOM     11  C   UNL     1       0.097   7.028  -6.078  0.00  0.00    +0.020 A 
ATOM     12  C   UNL     1      -1.266   6.806  -5.956  0.00  0.00    +0.008 A 
ENDBRANCH   3   7
TORSDOF 1
ENDMDL
