MODEL 1
REMARK VINA RESULT:    -3.057      0.000      0.000
REMARK INTER + INTRA:          -3.492
REMARK INTER:                  -3.236
REMARK INTRA:                  -0.256
REMARK UNBOUND:                -0.256
REMARK  Name = Nicotine.pdb
REMARK  2 active torsions:
REMARK  status: ('A' for Active; 'I' for Inactive)
REMARK    1  A    between atoms: C_3  and  C_6
REMARK    2  A    between atoms: N_4  and  C_12
REMARK                            x       y       z     vdW  Elec       q    Type
REMARK                         _______ _______ _______ _____ _____    ______ ____
ROOT
ATOM      1  C   UNL     1      -2.602   3.709   1.252  0.00  0.00    +0.017 C 
ATOM      2  C   UNL     1      -1.715   3.245   0.067  0.00  0.00    +0.025 C 
ATOM      3  C   UNL     1      -2.040   1.740  -0.043  0.00  0.00    +0.088 C 
ATOM      4  N   UNL     1      -2.565   1.310   1.266  0.00  0.00    -0.298 NA
ATOM      5  C   UNL     1      -2.555   2.470   2.182  0.00  0.00    +0.085 C 
ATOM      6  C   UNL     1      -3.919   0.755   1.134  0.00  0.00    +0.105 C 
ENDROOT
BRANCH   3   7
ATOM      7  C   UNL     1      -0.790   0.968  -0.374  0.00  0.00    -0.012 A 
ATOM      8  C   UNL     1      -0.871  -0.241  -1.038  0.00  0.00    +0.115 A 
ATOM      9  N   UNL     1       0.219  -0.924  -1.332  0.00  0.00    -0.263 NA
ATOM     10  C   UNL     1       1.419  -0.486  -1.008  0.00  0.00    +0.111 A 
ATOM     11  C   UNL     1       1.579   0.715  -0.342  0.00  0.00    +0.020 A 
ATOM     12  C   UNL     1       0.456   1.463  -0.021  0.00  0.00    +0.008 A 
ENDBRANCH   3   7
TORSDOF 1
ENDMDL
MODEL 2
REMARK VINA RESULT:    -2.939      2.253      3.575
REMARK INTER + INTRA:          -3.366
REMARK INTER:                  -3.122
REMARK INTRA:                  -0.244
REMARK UNBOUND:                -0.256
REMARK  Name = Nicotine.pdb
REMARK  2 active torsions:
REMARK  status: ('A' for Active; 'I' for Inactive)
REMARK    1  A    between atoms: C_3  and  C_6
REMARK    2  A    between atoms: N_4  and  C_12
REMARK                            x       y       z     vdW  Elec       q    Type
REMARK                         _______ _______ _______ _____ _____    ______ ____
ROOT
ATOM      1  C   UNL     1      -2.513   4.397   1.381  0.00  0.00    +0.017 C 
ATOM      2  C   UNL     1      -2.565   2.929   1.879  0.00  0.00    +0.025 C 
ATOM      3  C   UNL     1      -1.995   2.137   0.683  0.00  0.00    +0.088 C 
ATOM      4  N   UNL     1      -2.168   2.973  -0.518  0.00  0.00    -0.298 NA
ATOM      5  C   UNL     1      -2.840   4.229  -0.124  0.00  0.00    +0.085 C 
ATOM      6  C   UNL     1      -0.876   3.245  -1.161  0.00  0.00    +0.105 C 
ENDROOT
BRANCH   3   7
ATOM      7  C   UNL     1      -2.747   0.841   0.521  0.00  0.00    -0.012 A 
ATOM      8  C   UNL     1      -2.371  -0.069  -0.449  0.00  0.00    +0.115 A 
ATOM      9  N   UNL     1      -3.024  -1.205  -0.598  0.00  0.00    -0.263 NA
ATOM     10  C   UNL     1      -4.053  -1.517   0.164  0.00  0.00    +0.111 A 
ATOM     11  C   UNL     1      -4.486  -0.657   1.156  0.00  0.00    +0.020 A 
ATOM     12  C   UNL     1      -3.821   0.544   1.345  0.00  0.00    +0.008 A 
ENDBRANCH   3   7
TORSDOF 1
ENDMDL
MODEL 3
REMARK VINA RESULT:    -2.904      1.177      4.516
REMARK INTER + INTRA:          -3.329
REMARK INTER:                  -3.132
REMARK INTRA:                  -0.197
REMARK UNBOUND:                -0.256
REMARK  Name = Nicotine.pdb
REMARK  2 active torsions:
REMARK  status: ('A' for Active; 'I' for Inactive)
REMARK    1  A    between atoms: C_3  and  C_6
REMARK    2  A    between atoms: N_4  and  C_12
REMARK                            x       y       z     vdW  Elec       q    Type
REMARK                         _______ _______ _______ _____ _____    ______ ____
ROOT
ATOM      1  C   UNL     1       0.882  -1.136  -1.730  0.00  0.00    +0.017 C 
ATOM      2  C   UNL     1      -0.541  -0.535  -1.584  0.00  0.00    +0.025 C 
ATOM      3  C   UNL     1      -0.270   0.855  -0.970  0.00  0.00    +0.088 C 
ATOM      4  N   UNL     1       1.048   0.793  -0.314  0.00  0.00    -0.298 NA
ATOM      5  C   UNL     1       1.589  -0.574  -0.471  0.00  0.00    +0.085 C 
ATOM      6  C   UNL     1       1.965   1.791  -0.878  0.00  0.00    +0.105 C 
ENDROOT
BRANCH   3   7
ATOM      7  C   UNL     1      -1.335   1.184   0.044  0.00  0.00    -0.012 A 
ATOM      8  C   UNL     1      -2.411   0.337   0.227  0.00  0.00    +0.115 A 
ATOM      9  N   UNL     1      -3.347   0.618   1.113  0.00  0.00    -0.263 NA
ATOM     10  C   UNL     1      -3.296   1.708   1.853  0.00  0.00    +0.111 A 
ATOM     11  C   UNL     1      -2.249   2.602   1.726  0.00  0.00    +0.020 A 
ATOM     12  C   UNL     1      -1.244   2.337   0.809  0.00  0.00    +0.008 A 
ENDBRANCH   3   7
TORSDOF 1
ENDMDL
MODEL 4
REMARK VINA RESULT:    -2.875      1.531      4.739
REMARK INTER + INTRA:          -3.298
REMARK INTER:                  -3.042
REMARK INTRA:                  -0.256
REMARK UNBOUND:                -0.256
REMARK  Name = Nicotine.pdb
REMARK  2 active torsions:
REMARK  status: ('A' for Active; 'I' for Inactive)
REMARK    1  A    between atoms: C_3  and  C_6
REMARK    2  A    between atoms: N_4  and  C_12
REMARK                            x       y       z     vdW  Elec       q    Type
REMARK                         _______ _______ _______ _____ _____    ______ ____
ROOT
ATOM      1  C   UNL     1       0.456  -0.485  -2.916  0.00  0.00    +0.017 C 
ATOM      2  C   UNL     1      -1.008  -0.065  -2.621  0.00  0.00    +0.025 C 
ATOM      3  C   UNL     1      -0.914   0.558  -1.212  0.00  0.00    +0.088 C 
ATOM      4  N   UNL     1       0.300   0.016  -0.575  0.00  0.00    -0.298 NA
ATOM      5  C   UNL     1       0.942  -0.929  -1.514  0.00  0.00    +0.085 C 
ATOM      6  C   UNL     1       1.224   1.093  -0.198  0.00  0.00    +0.105 C 
ENDROOT
BRANCH   3   7
ATOM      7  C   UNL     1      -2.129   0.185  -0.404  0.00  0.00    -0.012 A 
ATOM      8  C   UNL     1      -2.491   0.932   0.701  0.00  0.00    +0.115 A 
ATOM      9  N   UNL     1      -3.553   0.612   1.414  0.00  0.00    -0.263 NA
ATOM     10  C   UNL     1      -4.307  -0.424   1.106  0.00  0.00    +0.111 A 
ATOM     11  C   UNL     1      -4.008  -1.218   0.015  0.00  0.00    +0.020 A 
ATOM     12  C   UNL     1      -2.902  -0.910  -0.762  0.00  0.00    +0.008 A 
ENDBRANCH   3   7
TORSDOF 1
ENDMDL
MODEL 5
REMARK VINA RESULT:    -2.872      1.384      2.149
REMARK INTER + INTRA:          -3.296
REMARK INTER:                  -3.095
REMARK INTRA:                  -0.201
REMARK UNBOUND:                -0.256
REMARK  Name = Nicotine.pdb
REMARK  2 active torsions:
REMARK  status: ('A' for Active; 'I' for Inactive)
REMARK    1  A    between atoms: C_3  and  C_6
REMARK    2  A    between atoms: N_4  and  C_12
REMARK                            x       y       z     vdW  Elec       q    Type
REMARK                         _______ _______ _______ _____ _____    ______ ____
ROOT
ATOM      1  C   UNL     1      -3.733   3.288   2.119  0.00  0.00    +0.017 C 
ATOM      2  C   UNL     1      -2.549   2.286   2.105  0.00  0.00    +0.025 C 
ATOM      3  C   UNL     1      -1.647   2.830   0.977  0.00  0.00    +0.088 C 
ATOM      4  N   UNL     1      -2.496   3.652   0.096  0.00  0.00    -0.298 NA
ATOM      5  C   UNL     1      -3.881   3.618   0.613  0.00  0.00    +0.085 C 
ATOM      6  C   UNL     1      -1.996   5.030   0.017  0.00  0.00    +0.105 C 
ENDROOT
BRANCH   3   7
ATOM      7  C   UNL     1      -1.054   1.685   0.198  0.00  0.00    -0.012 A 
ATOM      8  C   UNL     1      -1.846   0.625  -0.199  0.00  0.00    +0.115 A 
ATOM      9  N   UNL     1      -1.335  -0.381  -0.881  0.00  0.00    -0.263 NA
ATOM     10  C   UNL     1      -0.059  -0.418  -1.211  0.00  0.00    +0.111 A 
ATOM     11  C   UNL     1       0.795   0.608  -0.850  0.00  0.00    +0.020 A 
ATOM     12  C   UNL     1       0.292   1.685  -0.136  0.00  0.00    +0.008 A 
ENDBRANCH   3   7
TORSDOF 1
ENDMDL
MODEL 6
REMARK VINA RESULT:    -2.804      1.363      1.687
REMARK INTER + INTRA:          -3.224
REMARK INTER:                  -2.968
REMARK INTRA:                  -0.256
REMARK UNBOUND:                -0.256
REMARK  Name = Nicotine.pdb
REMARK  2 active torsions:
REMARK  status: ('A' for Active; 'I' for Inactive)
REMARK    1  A    between atoms: C_3  and  C_6
REMARK    2  A    between atoms: N_4  and  C_12
REMARK                            x       y       z     vdW  Elec       q    Type
REMARK                         _______ _______ _______ _____ _____    ______ ____
ROOT
ATOM      1  C   UNL     1      -3.748   1.734   0.376  0.00  0.00    +0.017 C 
ATOM      2  C   UNL     1      -2.446   1.986  -0.430  0.00  0.00    +0.025 C 
ATOM      3  C   UNL     1      -2.078   0.578  -0.945  0.00  0.00    +0.088 C 
ATOM      4  N   UNL     1      -2.735  -0.397  -0.057  0.00  0.00    -0.298 NA
ATOM      5  C   UNL     1      -3.468   0.341   0.994  0.00  0.00    +0.085 C 
ATOM      6  C   UNL     1      -3.639  -1.274  -0.813  0.00  0.00    +0.105 C 
ENDROOT
BRANCH   3   7
ATOM      7  C   UNL     1      -0.584   0.390  -0.899  0.00  0.00    -0.012 A 
ATOM      8  C   UNL     1       0.014  -0.632  -1.612  0.00  0.00    +0.115 A 
ATOM      9  N   UNL     1       1.321  -0.804  -1.578  0.00  0.00    -0.263 NA
ATOM     10  C   UNL     1       2.105  -0.016  -0.869  0.00  0.00    +0.111 A 
ATOM     11  C   UNL     1       1.579   1.028  -0.131  0.00  0.00    +0.020 A 
ATOM     12  C   UNL     1       0.209   1.243  -0.147  0.00  0.00    +0.008 A 
ENDBRANCH   3   7
TORSDOF 1
ENDMDL
MODEL 7
REMARK VINA RESULT:    -2.788      1.756      4.753
REMARK INTER + INTRA:          -3.206
REMARK INTER:                  -2.956
REMARK INTRA:                  -0.251
REMARK UNBOUND:                -0.256
REMARK  Name = Nicotine.pdb
REMARK  2 active torsions:
REMARK  status: ('A' for Active; 'I' for Inactive)
REMARK    1  A    between atoms: C_3  and  C_6
REMARK    2  A    between atoms: N_4  and  C_12
REMARK                            x       y       z     vdW  Elec       q    Type
REMARK                         _______ _______ _______ _____ _____    ______ ____
ROOT
ATOM      1  C   UNL     1      -0.570   0.823  -0.631  0.00  0.00    +0.017 C 
ATOM      2  C   UNL     1      -0.665   1.895   0.487  0.00  0.00    +0.025 C 
ATOM      3  C   UNL     1      -2.088   1.687   1.047  0.00  0.00    +0.088 C 
ATOM      4  N   UNL     1      -2.877   1.015  -0.002  0.00  0.00    -0.298 NA
ATOM      5  C   UNL     1      -2.016   0.823  -1.188  0.00  0.00    +0.085 C 
ATOM      6  C   UNL     1      -3.408  -0.267   0.478  0.00  0.00    +0.105 C 
ENDROOT
BRANCH   3   7
ATOM      7  C   UNL     1      -2.707   3.019   1.382  0.00  0.00    -0.012 A 
ATOM      8  C   UNL     1      -3.903   3.081   2.072  0.00  0.00    +0.115 A 
ATOM      9  N   UNL     1      -4.451   4.243   2.369  0.00  0.00    -0.263 NA
ATOM     10  C   UNL     1      -3.888   5.383   2.024  0.00  0.00    +0.111 A 
ATOM     11  C   UNL     1      -2.691   5.401   1.332  0.00  0.00    +0.020 A 
ATOM     12  C   UNL     1      -2.082   4.198   1.007  0.00  0.00    +0.008 A 
ENDBRANCH   3   7
TORSDOF 1
ENDMDL
MODEL 8
REMARK VINA RESULT:    -2.692      2.198      3.114
REMARK INTER + INTRA:          -3.105
REMARK INTER:                  -2.856
REMARK INTRA:                  -0.249
REMARK UNBOUND:                -0.256
REMARK  Name = Nicotine.pdb
REMARK  2 active torsions:
REMARK  status: ('A' for Active; 'I' for Inactive)
REMARK    1  A    between atoms: C_3  and  C_6
REMARK    2  A    between atoms: N_4  and  C_12
REMARK                            x       y       z     vdW  Elec       q    Type
REMARK                         _______ _______ _______ _____ _____    ______ ____
ROOT
ATOM      1  C   UNL     1      -1.356   1.742  -1.537  0.00  0.00    +0.017 C 
ATOM      2  C   UNL     1      -0.018   1.095  -1.983  0.00  0.00    +0.025 C 
ATOM      3  C   UNL     1      -0.328  -0.416  -1.927  0.00  0.00    +0.088 C 
ATOM      4  N   UNL     1      -1.467  -0.595  -1.008  0.00  0.00    -0.298 NA
ATOM      5  C   UNL     1      -1.856   0.729  -0.477  0.00  0.00    +0.085 C 
ATOM      6  C   UNL     1      -2.596  -1.242  -1.688  0.00  0.00    +0.105 C 
ENDROOT
BRANCH   3   7
ATOM      7  C   UNL     1       0.872  -1.167  -1.411  0.00  0.00    -0.012 A 
ATOM      8  C   UNL     1       1.225  -2.384  -1.961  0.00  0.00    +0.115 A 
ATOM      9  N   UNL     1       2.273  -3.048  -1.515  0.00  0.00    -0.263 NA
ATOM     10  C   UNL     1       3.022  -2.583  -0.535  0.00  0.00    +0.111 A 
ATOM     11  C   UNL     1       2.731  -1.372   0.065  0.00  0.00    +0.020 A 
ATOM     12  C   UNL     1       1.639  -0.643  -0.381  0.00  0.00    +0.008 A 
ENDBRANCH   3   7
TORSDOF 1
ENDMDL
MODEL 9
REMARK VINA RESULT:    -2.670      1.559      4.473
REMARK INTER + INTRA:          -3.082
REMARK INTER:                  -2.874
REMARK INTRA:                  -0.208
REMARK UNBOUND:                -0.256
REMARK  Name = Nicotine.pdb
REMARK  2 active torsions:
REMARK  status: ('A' for Active; 'I' for Inactive)
REMARK    1  A    between atoms: C_3  and  C_6
REMARK    2  A    between atoms: N_4  and  C_12
REMARK                            x       y       z     vdW  Elec       q    Type
REMARK                         _______ _______ _______ _____ _____    ______ ____
ROOT
ATOM      1  C   UNL     1       1.996   1.767  -1.287  0.00  0.00    +0.017 C 
ATOM      2  C   UNL     1       1.174   1.284  -0.063  0.00  0.00    +0.025 C 
ATOM      3  C   UNL     1      -0.181   0.889  -0.688  0.00  0.00    +0.088 C 
ATOM      4  N   UNL     1      -0.299   1.613  -1.966  0.00  0.00    -0.298 NA
ATOM      5  C   UNL     1       0.904   2.453  -2.145  0.00  0.00    +0.085 C 
ATOM      6  C   UNL     1      -0.462   0.679  -3.088  0.00  0.00    +0.105 C 
ENDROOT
BRANCH   3   7
ATOM      7  C   UNL     1      -1.305   1.285   0.234  0.00  0.00    -0.012 A 
ATOM      8  C   UNL     1      -1.264   2.490   0.909  0.00  0.00    +0.115 A 
ATOM      9  N   UNL     1      -2.244   2.844   1.717  0.00  0.00    -0.263 NA
ATOM     10  C   UNL     1      -3.294   2.071   1.914  0.00  0.00    +0.111 A 
ATOM     11  C   UNL     1      -3.405   0.852   1.272  0.00  0.00    +0.020 A 
ATOM     12  C   UNL     1      -2.397   0.448   0.410  0.00  0.00    +0.008 A 
ENDBRANCH   3   7
TORSDOF 1
ENDMDL
MODEL 10
REMARK VINA RESULT:    -2.660      2.260      4.995
REMARK INTER + INTRA:          -3.071
REMARK INTER:                  -2.877
REMARK INTRA:                  -0.195
REMARK UNBOUND:                -0.256
REMARK  Name = Nicotine.pdb
REMARK  2 active torsions:
REMARK  status: ('A' for Active; 'I' for Inactive)
REMARK    1  A    between atoms: C_3  and  C_6
REMARK    2  A    between atoms: N_4  and  C_12
REMARK                            x       y       z     vdW  Elec       q    Type
REMARK                         _______ _______ _______ _____ _____    ______ ____
ROOT
ATOM      1  C   UNL     1      -1.739   0.488  -0.260  0.00  0.00    +0.017 C 
ATOM      2  C   UNL     1      -1.407   1.741   0.593  0.00  0.00    +0.025 C 
ATOM      3  C   UNL     1      -2.683   1.933   1.439  0.00  0.00    +0.088 C 
ATOM      4  N   UNL     1      -3.784   1.258   0.729  0.00  0.00    -0.298 NA
ATOM      5  C   UNL     1      -3.253   0.682  -0.525  0.00  0.00    +0.085 C 
ATOM      6  C   UNL     1      -4.395   0.219   1.568  0.00  0.00    +0.105 C 
ENDROOT
BRANCH   3   7
ATOM      7  C   UNL     1      -2.988   3.402   1.582  0.00  0.00    -0.012 A 
ATOM      8  C   UNL     1      -2.097   4.349   1.115  0.00  0.00    +0.115 A 
ATOM      9  N   UNL     1      -2.356   5.637   1.236  0.00  0.00    -0.263 NA
ATOM     10  C   UNL     1      -3.465   6.070   1.802  0.00  0.00    +0.111 A 
ATOM     11  C   UNL     1      -4.404   5.182   2.291  0.00  0.00    +0.020 A 
ATOM     12  C   UNL     1      -4.168   3.820   2.177  0.00  0.00    +0.008 A 
ENDBRANCH   3   7
TORSDOF 1
ENDMDL
