MODEL 1
REMARK VINA RESULT:     0.000      0.000      0.000
REMARK INTER + INTRA:          -0.256
REMARK INTER:                   0.000
REMARK INTRA:                  -0.256
REMARK UNBOUND:                -0.256
REMARK  Name = Nicotine.pdb
REMARK  2 active torsions:
REMARK  status: ('A' for Active; 'I' for Inactive)
REMARK    1  A    between atoms: C_3  and  C_6
REMARK    2  A    between atoms: N_4  and  C_12
REMARK                            x       y       z     vdW  Elec       q    Type
REMARK                         _______ _______ _______ _____ _____    ______ ____
ROOT
ATOM      1  C   UNL     1      -2.154  -1.564  -2.290  0.00  0.00    +0.017 C 
ATOM      2  C   UNL     1      -1.015  -2.572  -2.597  0.00  0.00    +0.025 C 
ATOM      3  C   UNL     1      -0.755  -3.229  -1.224  0.00  0.00    +0.088 C 
ATOM      4  N   UNL     1      -1.250  -2.299  -0.194  0.00  0.00    -0.298 NA
ATOM      5  C   UNL     1      -1.779  -1.092  -0.864  0.00  0.00    +0.085 C 
ATOM      6  C   UNL     1      -2.281  -2.934   0.638  0.00  0.00    +0.105 C 
ENDROOT
BRANCH   3   7
ATOM      7  C   UNL     1       0.722  -3.462  -1.039  0.00  0.00    -0.012 A 
ATOM      8  C   UNL     1       1.173  -4.404  -0.134  0.00  0.00    +0.115 A 
ATOM      9  N   UNL     1       2.464  -4.614   0.034  0.00  0.00    -0.263 NA
ATOM     10  C   UNL     1       3.370  -3.942  -0.647  0.00  0.00    +0.111 A 
ATOM     11  C   UNL     1       2.994  -2.984  -1.571  0.00  0.00    +0.020 A 
ATOM     12  C   UNL     1       1.646  -2.740  -1.779  0.00  0.00    +0.008 A 
ENDBRANCH   3   7
TORSDOF 1
ENDMDL
MODEL 2
REMARK VINA RESULT:     0.000      4.636      6.754
REMARK INTER + INTRA:          -0.256
REMARK INTER:                   0.000
REMARK INTRA:                  -0.256
REMARK UNBOUND:                -0.256
REMARK  Name = Nicotine.pdb
REMARK  2 active torsions:
REMARK  status: ('A' for Active; 'I' for Inactive)
REMARK    1  A    between atoms: C_3  and  C_6
REMARK    2  A    between atoms: N_4  and  C_12
REMARK                            x       y       z     vdW  Elec       q    Type
REMARK                         _______ _______ _______ _____ _____    ______ ____
ROOT
ATOM      1  C   UNL     1       6.104  -3.033  -0.887  0.00  0.00    +0.017 C 
ATOM      2  C   UNL     1       4.686  -2.412  -0.997  0.00  0.00    +0.025 C 
ATOM      3  C   UNL     1       4.974  -0.896  -1.040  0.00  0.00    +0.088 C 
ATOM      4  N   UNL     1       6.301  -0.686  -0.434  0.00  0.00    -0.298 NA
ATOM      5  C   UNL     1       6.832  -1.994   0.003  0.00  0.00    +0.085 C 
ATOM      6  C   UNL     1       7.215  -0.035  -1.381  0.00  0.00    +0.105 C 
ENDROOT
BRANCH   3   7
ATOM      7  C   UNL     1       3.925  -0.153  -0.254  0.00  0.00    -0.012 A 
ATOM      8  C   UNL     1       3.695   1.189  -0.490  0.00  0.00    +0.115 A 
ATOM      9  N   UNL     1       2.780   1.847   0.194  0.00  0.00    -0.263 NA
ATOM     10  C   UNL     1       2.052   1.259   1.123  0.00  0.00    +0.111 A 
ATOM     11  C   UNL     1       2.226  -0.081   1.414  0.00  0.00    +0.020 A 
ATOM     12  C   UNL     1       3.175  -0.807   0.712  0.00  0.00    +0.008 A 
ENDBRANCH   3   7
TORSDOF 1
ENDMDL
MODEL 3
REMARK VINA RESULT:     0.000      8.305      9.531
REMARK INTER + INTRA:          -0.256
REMARK INTER:                   0.000
REMARK INTRA:                  -0.256
REMARK UNBOUND:                -0.256
REMARK  Name = Nicotine.pdb
REMARK  2 active torsions:
REMARK  status: ('A' for Active; 'I' for Inactive)
REMARK    1  A    between atoms: C_3  and  C_6
REMARK    2  A    between atoms: N_4  and  C_12
REMARK                            x       y       z     vdW  Elec       q    Type
REMARK                         _______ _______ _______ _____ _____    ______ ____
ROOT
ATOM      1  C   UNL     1       6.908  -3.128  -5.340  0.00  0.00    +0.017 C 
ATOM      2  C   UNL     1       7.163  -2.408  -3.989  0.00  0.00    +0.025 C 
ATOM      3  C   UNL     1       8.702  -2.310  -3.933  0.00  0.00    +0.088 C 
ATOM      4  N   UNL     1       9.239  -3.356  -4.822  0.00  0.00    -0.298 NA
ATOM      5  C   UNL     1       8.107  -4.108  -5.402  0.00  0.00    +0.085 C 
ATOM      6  C   UNL     1      10.079  -2.771  -5.875  0.00  0.00    +0.105 C 
ENDROOT
BRANCH   3   7
ATOM      7  C   UNL     1       9.179  -2.540  -2.522  0.00  0.00    -0.012 A 
ATOM      8  C   UNL     1      10.421  -2.085  -2.121  0.00  0.00    +0.115 A 
ATOM      9  N   UNL     1      10.846  -2.282  -0.888  0.00  0.00    -0.263 NA
ATOM     10  C   UNL     1      10.112  -2.915   0.005  0.00  0.00    +0.111 A 
ATOM     11  C   UNL     1       8.859  -3.399  -0.323  0.00  0.00    +0.020 A 
ATOM     12  C   UNL     1       8.376  -3.206  -1.608  0.00  0.00    +0.008 A 
ENDBRANCH   3   7
TORSDOF 1
ENDMDL
MODEL 4
REMARK VINA RESULT:     0.000      6.919      7.952
REMARK INTER + INTRA:          -0.256
REMARK INTER:                   0.000
REMARK INTRA:                  -0.256
REMARK UNBOUND:                -0.256
REMARK  Name = Nicotine.pdb
REMARK  2 active torsions:
REMARK  status: ('A' for Active; 'I' for Inactive)
REMARK    1  A    between atoms: C_3  and  C_6
REMARK    2  A    between atoms: N_4  and  C_12
REMARK                            x       y       z     vdW  Elec       q    Type
REMARK                         _______ _______ _______ _____ _____    ______ ____
ROOT
ATOM      1  C   UNL     1       2.812  -0.412   4.354  0.00  0.00    +0.017 C 
ATOM      2  C   UNL     1       2.561   1.053   3.911  0.00  0.00    +0.025 C 
ATOM      3  C   UNL     1       3.175   1.098   2.496  0.00  0.00    +0.088 C 
ATOM      4  N   UNL     1       4.154   0.000   2.410  0.00  0.00    -0.298 NA
ATOM      5  C   UNL     1       4.191  -0.702   3.710  0.00  0.00    +0.085 C 
ATOM      6  C   UNL     1       3.814  -0.925   1.321  0.00  0.00    +0.105 C 
ENDROOT
BRANCH   3   7
ATOM      7  C   UNL     1       3.864   2.420   2.278  0.00  0.00    -0.012 A 
ATOM      8  C   UNL     1       4.100   2.883   0.997  0.00  0.00    +0.115 A 
ATOM      9  N   UNL     1       4.702   4.039   0.797  0.00  0.00    -0.263 NA
ATOM     10  C   UNL     1       5.101   4.795   1.801  0.00  0.00    +0.111 A 
ATOM     11  C   UNL     1       4.899   4.398   3.110  0.00  0.00    +0.020 A 
ATOM     12  C   UNL     1       4.264   3.191   3.359  0.00  0.00    +0.008 A 
ENDBRANCH   3   7
TORSDOF 1
ENDMDL
MODEL 5
REMARK VINA RESULT:     0.000      4.981      5.868
REMARK INTER + INTRA:          -0.256
REMARK INTER:                   0.000
REMARK INTRA:                  -0.256
REMARK UNBOUND:                -0.256
REMARK  Name = Nicotine.pdb
REMARK  2 active torsions:
REMARK  status: ('A' for Active; 'I' for Inactive)
REMARK    1  A    between atoms: C_3  and  C_6
REMARK    2  A    between atoms: N_4  and  C_12
REMARK                            x       y       z     vdW  Elec       q    Type
REMARK                         _______ _______ _______ _____ _____    ______ ____
ROOT
ATOM      1  C   UNL     1       1.864   4.017  -1.460  0.00  0.00    +0.017 C 
ATOM      2  C   UNL     1       1.617   2.543  -1.042  0.00  0.00    +0.025 C 
ATOM      3  C   UNL     1       3.014   2.074  -0.583  0.00  0.00    +0.088 C 
ATOM      4  N   UNL     1       4.004   2.961  -1.219  0.00  0.00    -0.298 NA
ATOM      5  C   UNL     1       3.286   3.936  -2.068  0.00  0.00    +0.085 C 
ATOM      6  C   UNL     1       4.825   3.644  -0.211  0.00  0.00    +0.105 C 
ENDROOT
BRANCH   3   7
ATOM      7  C   UNL     1       3.245   0.650  -1.016  0.00  0.00    -0.012 A 
ATOM      8  C   UNL     1       4.188  -0.131  -0.377  0.00  0.00    +0.115 A 
ATOM      9  N   UNL     1       4.397  -1.379  -0.750  0.00  0.00    -0.263 NA
ATOM     10  C   UNL     1       3.721  -1.928  -1.740  0.00  0.00    +0.111 A 
ATOM     11  C   UNL     1       2.761  -1.208  -2.426  0.00  0.00    +0.020 A 
ATOM     12  C   UNL     1       2.510   0.105  -2.058  0.00  0.00    +0.008 A 
ENDBRANCH   3   7
TORSDOF 1
ENDMDL
MODEL 6
REMARK VINA RESULT:     0.000      8.823      9.616
REMARK INTER + INTRA:          -0.256
REMARK INTER:                   0.000
REMARK INTRA:                  -0.256
REMARK UNBOUND:                -0.256
REMARK  Name = Nicotine.pdb
REMARK  2 active torsions:
REMARK  status: ('A' for Active; 'I' for Inactive)
REMARK    1  A    between atoms: C_3  and  C_6
REMARK    2  A    between atoms: N_4  and  C_12
REMARK                            x       y       z     vdW  Elec       q    Type
REMARK                         _______ _______ _______ _____ _____    ______ ____
ROOT
ATOM      1  C   UNL     1       3.956   4.843   4.212  0.00  0.00    +0.017 C 
ATOM      2  C   UNL     1       5.357   4.334   4.639  0.00  0.00    +0.025 C 
ATOM      3  C   UNL     1       5.943   3.784   3.321  0.00  0.00    +0.088 C 
ATOM      4  N   UNL     1       4.808   3.481   2.431  0.00  0.00    -0.298 NA
ATOM      5  C   UNL     1       3.553   3.793   3.146  0.00  0.00    +0.085 C 
ATOM      6  C   UNL     1       4.904   4.240   1.178  0.00  0.00    +0.105 C 
ENDROOT
BRANCH   3   7
ATOM      7  C   UNL     1       6.731   2.529   3.594  0.00  0.00    -0.012 A 
ATOM      8  C   UNL     1       7.693   2.099   2.700  0.00  0.00    +0.115 A 
ATOM      9  N   UNL     1       8.388   1.002   2.932  0.00  0.00    -0.263 NA
ATOM     10  C   UNL     1       8.195   0.276   4.015  0.00  0.00    +0.111 A 
ATOM     11  C   UNL     1       7.251   0.644   4.955  0.00  0.00    +0.020 A 
ATOM     12  C   UNL     1       6.505   1.794   4.748  0.00  0.00    +0.008 A 
ENDBRANCH   3   7
TORSDOF 1
ENDMDL
MODEL 7
REMARK VINA RESULT:     0.000      2.060      3.094
REMARK INTER + INTRA:          -0.256
REMARK INTER:                   0.000
REMARK INTRA:                  -0.256
REMARK UNBOUND:                -0.256
REMARK  Name = Nicotine.pdb
REMARK  2 active torsions:
REMARK  status: ('A' for Active; 'I' for Inactive)
REMARK    1  A    between atoms: C_3  and  C_6
REMARK    2  A    between atoms: N_4  and  C_12
REMARK                            x       y       z     vdW  Elec       q    Type
REMARK                         _______ _______ _______ _____ _____    ______ ____
ROOT
ATOM      1  C   UNL     1       2.030  -0.677  -3.610  0.00  0.00    +0.017 C 
ATOM      2  C   UNL     1       2.411  -1.778  -2.585  0.00  0.00    +0.025 C 
ATOM      3  C   UNL     1       1.057  -2.453  -2.281  0.00  0.00    +0.088 C 
ATOM      4  N   UNL     1      -0.000  -1.484  -2.620  0.00  0.00    -0.298 NA
ATOM      5  C   UNL     1       0.637  -0.237  -3.092  0.00  0.00    +0.085 C 
ATOM      6  C   UNL     1      -0.909  -2.030  -3.636  0.00  0.00    +0.105 C 
ENDROOT
BRANCH   3   7
ATOM      7  C   UNL     1       0.979  -2.810  -0.819  0.00  0.00    -0.012 A 
ATOM      8  C   UNL     1       0.102  -3.786  -0.384  0.00  0.00    +0.115 A 
ATOM      9  N   UNL     1       0.028  -4.104   0.894  0.00  0.00    -0.263 NA
ATOM     10  C   UNL     1       0.778  -3.511   1.801  0.00  0.00    +0.111 A 
ATOM     11  C   UNL     1       1.679  -2.526   1.440  0.00  0.00    +0.020 A 
ATOM     12  C   UNL     1       1.789  -2.168   0.105  0.00  0.00    +0.008 A 
ENDBRANCH   3   7
TORSDOF 1
ENDMDL
MODEL 8
REMARK VINA RESULT:     0.000      2.882      3.922
REMARK INTER + INTRA:          -0.256
REMARK INTER:                   0.000
REMARK INTRA:                  -0.256
REMARK UNBOUND:                -0.256
REMARK  Name = Nicotine.pdb
REMARK  2 active torsions:
REMARK  status: ('A' for Active; 'I' for Inactive)
REMARK    1  A    between atoms: C_3  and  C_6
REMARK    2  A    between atoms: N_4  and  C_12
REMARK                            x       y       z     vdW  Elec       q    Type
REMARK                         _______ _______ _______ _____ _____    ______ ____
ROOT
ATOM      1  C   UNL     1      -2.352   0.766  -2.803  0.00  0.00    +0.017 C 
ATOM      2  C   UNL     1      -0.929   0.481  -2.254  0.00  0.00    +0.025 C 
ATOM      3  C   UNL     1      -0.140   0.089  -3.522  0.00  0.00    +0.088 C 
ATOM      4  N   UNL     1      -1.121  -0.363  -4.524  0.00  0.00    -0.298 NA
ATOM      5  C   UNL     1      -2.472  -0.293  -3.927  0.00  0.00    +0.085 C 
ATOM      6  C   UNL     1      -1.042   0.451  -5.744  0.00  0.00    +0.105 C 
ENDROOT
BRANCH   3   7
ATOM      7  C   UNL     1       0.821  -1.027  -3.203  0.00  0.00    -0.012 A 
ATOM      8  C   UNL     1       1.920  -1.255  -4.010  0.00  0.00    +0.115 A 
ATOM      9  N   UNL     1       2.766  -2.229  -3.739  0.00  0.00    -0.263 NA
ATOM     10  C   UNL     1       2.601  -3.019  -2.697  0.00  0.00    +0.111 A 
ATOM     11  C   UNL     1       1.526  -2.852  -1.844  0.00  0.00    +0.020 A 
ATOM     12  C   UNL     1       0.618  -1.834  -2.095  0.00  0.00    +0.008 A 
ENDBRANCH   3   7
TORSDOF 1
ENDMDL
MODEL 9
REMARK VINA RESULT:     0.000      2.843      4.819
REMARK INTER + INTRA:          -0.256
REMARK INTER:                   0.000
REMARK INTRA:                  -0.256
REMARK UNBOUND:                -0.256
REMARK  Name = Nicotine.pdb
REMARK  2 active torsions:
REMARK  status: ('A' for Active; 'I' for Inactive)
REMARK    1  A    between atoms: C_3  and  C_6
REMARK    2  A    between atoms: N_4  and  C_12
REMARK                            x       y       z     vdW  Elec       q    Type
REMARK                         _______ _______ _______ _____ _____    ______ ____
ROOT
ATOM      1  C   UNL     1      -1.834  -0.537  -0.881  0.00  0.00    +0.017 C 
ATOM      2  C   UNL     1      -1.914  -0.234   0.638  0.00  0.00    +0.025 C 
ATOM      3  C   UNL     1      -0.683  -0.972   1.205  0.00  0.00    +0.088 C 
ATOM      4  N   UNL     1      -0.321  -2.024   0.238  0.00  0.00    -0.298 NA
ATOM      5  C   UNL     1      -1.285  -1.986  -0.882  0.00  0.00    +0.085 C 
ATOM      6  C   UNL     1       1.055  -1.847  -0.243  0.00  0.00    +0.105 C 
ENDROOT
BRANCH   3   7
ATOM      7  C   UNL     1      -1.024  -1.591   2.535  0.00  0.00    -0.012 A 
ATOM      8  C   UNL     1      -0.024  -1.914   3.433  0.00  0.00    +0.115 A 
ATOM      9  N   UNL     1      -0.314  -2.456   4.600  0.00  0.00    -0.263 NA
ATOM     10  C   UNL     1      -1.558  -2.710   4.956  0.00  0.00    +0.111 A 
ATOM     11  C   UNL     1      -2.611  -2.414   4.110  0.00  0.00    +0.020 A 
ATOM     12  C   UNL     1      -2.345  -1.838   2.877  0.00  0.00    +0.008 A 
ENDBRANCH   3   7
TORSDOF 1
ENDMDL
MODEL 10
REMARK VINA RESULT:     0.000      9.334     10.856
REMARK INTER + INTRA:          -0.256
REMARK INTER:                   0.000
REMARK INTRA:                  -0.256
REMARK UNBOUND:                -0.256
REMARK  Name = Nicotine.pdb
REMARK  2 active torsions:
REMARK  status: ('A' for Active; 'I' for Inactive)
REMARK    1  A    between atoms: C_3  and  C_6
REMARK    2  A    between atoms: N_4  and  C_12
REMARK                            x       y       z     vdW  Elec       q    Type
REMARK                         _______ _______ _______ _____ _____    ______ ____
ROOT
ATOM      1  C   UNL     1       6.236   4.226   0.447  0.00  0.00    +0.017 C 
ATOM      2  C   UNL     1       7.030   4.665   1.706  0.00  0.00    +0.025 C 
ATOM      3  C   UNL     1       8.079   3.544   1.863  0.00  0.00    +0.088 C 
ATOM      4  N   UNL     1       7.558   2.357   1.162  0.00  0.00    -0.298 NA
ATOM      5  C   UNL     1       6.229   2.685   0.603  0.00  0.00    +0.085 C 
ATOM      6  C   UNL     1       8.480   1.921   0.105  0.00  0.00    +0.105 C 
ENDROOT
BRANCH   3   7
ATOM      7  C   UNL     1       8.281   3.232   3.323  0.00  0.00    -0.012 A 
ATOM      8  C   UNL     1       9.438   2.610   3.751  0.00  0.00    +0.115 A 
ATOM      9  N   UNL     1       9.623   2.333   5.027  0.00  0.00    -0.263 NA
ATOM     10  C   UNL     1       8.720   2.634   5.939  0.00  0.00    +0.111 A 
ATOM     11  C   UNL     1       7.537   3.257   5.586  0.00  0.00    +0.020 A 
ATOM     12  C   UNL     1       7.311   3.569   4.254  0.00  0.00    +0.008 A 
ENDBRANCH   3   7
TORSDOF 1
ENDMDL
