MODEL 1
REMARK VINA RESULT:    -3.287      0.000      0.000
REMARK INTER + INTRA:          -3.693
REMARK INTER:                  -3.479
REMARK INTRA:                  -0.214
REMARK UNBOUND:                -0.214
REMARK  Name = Nicotine.pdb
REMARK  2 active torsions:
REMARK  status: ('A' for Active; 'I' for Inactive)
REMARK    1  A    between atoms: C_3  and  C_6
REMARK    2  A    between atoms: N_4  and  C_12
REMARK                            x       y       z     vdW  Elec       q    Type
REMARK                         _______ _______ _______ _____ _____    ______ ____
ROOT
ATOM      1  C   UNL     1       6.100   2.685  -1.895  0.00  0.00    +0.017 C 
ATOM      2  C   UNL     1       6.641   4.036  -2.434  0.00  0.00    +0.025 C 
ATOM      3  C   UNL     1       5.512   4.512  -3.373  0.00  0.00    +0.088 C 
ATOM      4  N   UNL     1       4.738   3.320  -3.764  0.00  0.00    -0.298 NA
ATOM      5  C   UNL     1       5.350   2.132  -3.132  0.00  0.00    +0.085 C 
ATOM      6  C   UNL     1       3.328   3.456  -3.374  0.00  0.00    +0.105 C 
ENDROOT
BRANCH   3   7
ATOM      7  C   UNL     1       6.103   5.164  -4.596  0.00  0.00    -0.012 A 
ATOM      8  C   UNL     1       6.874   6.305  -4.475  0.00  0.00    +0.115 A 
ATOM      9  N   UNL     1       7.395   6.883  -5.541  0.00  0.00    -0.263 NA
ATOM     10  C   UNL     1       7.204   6.402  -6.753  0.00  0.00    +0.111 A 
ATOM     11  C   UNL     1       6.444   5.264  -6.951  0.00  0.00    +0.020 A 
ATOM     12  C   UNL     1       5.885   4.626  -5.855  0.00  0.00    +0.008 A 
ENDBRANCH   3   7
TORSDOF 1
ENDMDL
MODEL 2
REMARK VINA RESULT:    -2.931      1.999      3.477
REMARK INTER + INTRA:          -3.317
REMARK INTER:                  -3.099
REMARK INTRA:                  -0.217
REMARK UNBOUND:                -0.214
REMARK  Name = Nicotine.pdb
REMARK  2 active torsions:
REMARK  status: ('A' for Active; 'I' for Inactive)
REMARK    1  A    between atoms: C_3  and  C_6
REMARK    2  A    between atoms: N_4  and  C_12
REMARK                            x       y       z     vdW  Elec       q    Type
REMARK                         _______ _______ _______ _____ _____    ______ ____
ROOT
ATOM      1  C   UNL     1       4.932   2.727  -4.637  0.00  0.00    +0.017 C 
ATOM      2  C   UNL     1       5.711   2.911  -3.308  0.00  0.00    +0.025 C 
ATOM      3  C   UNL     1       5.617   4.432  -3.059  0.00  0.00    +0.088 C 
ATOM      4  N   UNL     1       5.353   5.072  -4.360  0.00  0.00    -0.298 NA
ATOM      5  C   UNL     1       5.305   4.022  -5.400  0.00  0.00    +0.085 C 
ATOM      6  C   UNL     1       4.101   5.838  -4.326  0.00  0.00    +0.105 C 
ENDROOT
BRANCH   3   7
ATOM      7  C   UNL     1       6.917   4.939  -2.491  0.00  0.00    -0.012 A 
ATOM      8  C   UNL     1       7.431   6.156  -2.899  0.00  0.00    +0.115 A 
ATOM      9  N   UNL     1       8.568   6.607  -2.407  0.00  0.00    -0.263 NA
ATOM     10  C   UNL     1       9.257   5.924  -1.514  0.00  0.00    +0.111 A 
ATOM     11  C   UNL     1       8.805   4.699  -1.058  0.00  0.00    +0.020 A 
ATOM     12  C   UNL     1       7.611   4.195  -1.549  0.00  0.00    +0.008 A 
ENDBRANCH   3   7
TORSDOF 1
ENDMDL
MODEL 3
REMARK VINA RESULT:    -2.825      1.599      4.201
REMARK INTER + INTRA:          -3.205
REMARK INTER:                  -2.990
REMARK INTRA:                  -0.215
REMARK UNBOUND:                -0.214
REMARK  Name = Nicotine.pdb
REMARK  2 active torsions:
REMARK  status: ('A' for Active; 'I' for Inactive)
REMARK    1  A    between atoms: C_3  and  C_6
REMARK    2  A    between atoms: N_4  and  C_12
REMARK                            x       y       z     vdW  Elec       q    Type
REMARK                         _______ _______ _______ _____ _____    ______ ____
ROOT
ATOM      1  C   UNL     1       5.441   3.889  -7.241  0.00  0.00    +0.017 C 
ATOM      2  C   UNL     1       5.081   3.367  -5.825  0.00  0.00    +0.025 C 
ATOM      3  C   UNL     1       5.319   4.601  -4.929  0.00  0.00    +0.088 C 
ATOM      4  N   UNL     1       6.249   5.491  -5.648  0.00  0.00    -0.298 NA
ATOM      5  C   UNL     1       6.614   4.852  -6.931  0.00  0.00    +0.085 C 
ATOM      6  C   UNL     1       5.649   6.813  -5.869  0.00  0.00    +0.105 C 
ENDROOT
BRANCH   3   7
ATOM      7  C   UNL     1       5.927   4.173  -3.618  0.00  0.00    -0.012 A 
ATOM      8  C   UNL     1       6.792   5.013  -2.942  0.00  0.00    +0.115 A 
ATOM      9  N   UNL     1       7.329   4.646  -1.794  0.00  0.00    -0.263 NA
ATOM     10  C   UNL     1       7.066   3.475  -1.249  0.00  0.00    +0.111 A 
ATOM     11  C   UNL     1       6.210   2.583  -1.867  0.00  0.00    +0.020 A 
ATOM     12  C   UNL     1       5.622   2.936  -3.072  0.00  0.00    +0.008 A 
ENDBRANCH   3   7
TORSDOF 1
ENDMDL
MODEL 4
REMARK VINA RESULT:    -2.766      1.380      2.021
REMARK INTER + INTRA:          -3.142
REMARK INTER:                  -2.927
REMARK INTRA:                  -0.215
REMARK UNBOUND:                -0.214
REMARK  Name = Nicotine.pdb
REMARK  2 active torsions:
REMARK  status: ('A' for Active; 'I' for Inactive)
REMARK    1  A    between atoms: C_3  and  C_6
REMARK    2  A    between atoms: N_4  and  C_12
REMARK                            x       y       z     vdW  Elec       q    Type
REMARK                         _______ _______ _______ _____ _____    ______ ____
ROOT
ATOM      1  C   UNL     1       6.833   5.612  -0.604  0.00  0.00    +0.017 C 
ATOM      2  C   UNL     1       6.268   6.268  -1.891  0.00  0.00    +0.025 C 
ATOM      3  C   UNL     1       5.986   5.056  -2.804  0.00  0.00    +0.088 C 
ATOM      4  N   UNL     1       6.832   3.946  -2.330  0.00  0.00    -0.298 NA
ATOM      5  C   UNL     1       7.639   4.423  -1.187  0.00  0.00    +0.085 C 
ATOM      6  C   UNL     1       6.015   2.786  -1.951  0.00  0.00    +0.105 C 
ENDROOT
BRANCH   3   7
ATOM      7  C   UNL     1       6.335   5.396  -4.230  0.00  0.00    -0.012 A 
ATOM      8  C   UNL     1       7.076   6.527  -4.518  0.00  0.00    +0.115 A 
ATOM      9  N   UNL     1       7.386   6.831  -5.763  0.00  0.00    -0.263 NA
ATOM     10  C   UNL     1       7.005   6.078  -6.776  0.00  0.00    +0.111 A 
ATOM     11  C   UNL     1       6.262   4.931  -6.565  0.00  0.00    +0.020 A 
ATOM     12  C   UNL     1       5.922   4.576  -5.269  0.00  0.00    +0.008 A 
ENDBRANCH   3   7
TORSDOF 1
ENDMDL
MODEL 5
REMARK VINA RESULT:    -2.683      2.403      4.608
REMARK INTER + INTRA:          -3.054
REMARK INTER:                  -2.845
REMARK INTRA:                  -0.209
REMARK UNBOUND:                -0.214
REMARK  Name = Nicotine.pdb
REMARK  2 active torsions:
REMARK  status: ('A' for Active; 'I' for Inactive)
REMARK    1  A    between atoms: C_3  and  C_6
REMARK    2  A    between atoms: N_4  and  C_12
REMARK                            x       y       z     vdW  Elec       q    Type
REMARK                         _______ _______ _______ _____ _____    ______ ____
ROOT
ATOM      1  C   UNL     1       5.162   3.530  -4.735  0.00  0.00    +0.017 C 
ATOM      2  C   UNL     1       5.609   2.913  -3.384  0.00  0.00    +0.025 C 
ATOM      3  C   UNL     1       5.883   4.155  -2.509  0.00  0.00    +0.088 C 
ATOM      4  N   UNL     1       6.135   5.285  -3.422  0.00  0.00    -0.298 NA
ATOM      5  C   UNL     1       6.055   4.793  -4.814  0.00  0.00    +0.085 C 
ATOM      6  C   UNL     1       5.177   6.373  -3.192  0.00  0.00    +0.105 C 
ENDROOT
BRANCH   3   7
ATOM      7  C   UNL     1       7.091   3.915  -1.642  0.00  0.00    -0.012 A 
ATOM      8  C   UNL     1       7.156   2.802  -0.826  0.00  0.00    +0.115 A 
ATOM      9  N   UNL     1       8.210   2.584  -0.064  0.00  0.00    -0.263 NA
ATOM     10  C   UNL     1       9.236   3.411  -0.047  0.00  0.00    +0.111 A 
ATOM     11  C   UNL     1       9.243   4.546  -0.837  0.00  0.00    +0.020 A 
ATOM     12  C   UNL     1       8.154   4.805  -1.656  0.00  0.00    +0.008 A 
ENDBRANCH   3   7
TORSDOF 1
ENDMDL
MODEL 6
REMARK VINA RESULT:    -2.524      1.748      3.919
REMARK INTER + INTRA:          -2.885
REMARK INTER:                  -2.673
REMARK INTRA:                  -0.212
REMARK UNBOUND:                -0.214
REMARK  Name = Nicotine.pdb
REMARK  2 active torsions:
REMARK  status: ('A' for Active; 'I' for Inactive)
REMARK    1  A    between atoms: C_3  and  C_6
REMARK    2  A    between atoms: N_4  and  C_12
REMARK                            x       y       z     vdW  Elec       q    Type
REMARK                         _______ _______ _______ _____ _____    ______ ____
ROOT
ATOM      1  C   UNL     1       4.580   5.061  -7.256  0.00  0.00    +0.017 C 
ATOM      2  C   UNL     1       5.713   4.428  -6.406  0.00  0.00    +0.025 C 
ATOM      3  C   UNL     1       4.939   3.635  -5.332  0.00  0.00    +0.088 C 
ATOM      4  N   UNL     1       3.594   4.230  -5.234  0.00  0.00    -0.298 NA
ATOM      5  C   UNL     1       3.512   5.366  -6.176  0.00  0.00    +0.085 C 
ATOM      6  C   UNL     1       2.554   3.233  -5.518  0.00  0.00    +0.105 C 
ENDROOT
BRANCH   3   7
ATOM      7  C   UNL     1       5.647   3.741  -4.006  0.00  0.00    -0.012 A 
ATOM      8  C   UNL     1       6.296   4.909  -3.652  0.00  0.00    +0.115 A 
ATOM      9  N   UNL     1       6.918   5.011  -2.494  0.00  0.00    -0.263 NA
ATOM     10  C   UNL     1       6.946   4.013  -1.632  0.00  0.00    +0.111 A 
ATOM     11  C   UNL     1       6.319   2.815  -1.917  0.00  0.00    +0.020 A 
ATOM     12  C   UNL     1       5.650   2.672  -3.123  0.00  0.00    +0.008 A 
ENDBRANCH   3   7
TORSDOF 1
ENDMDL
MODEL 7
REMARK VINA RESULT:    -2.461      2.098      3.424
REMARK INTER + INTRA:          -2.818
REMARK INTER:                  -2.563
REMARK INTRA:                  -0.255
REMARK UNBOUND:                -0.214
REMARK  Name = Nicotine.pdb
REMARK  2 active torsions:
REMARK  status: ('A' for Active; 'I' for Inactive)
REMARK    1  A    between atoms: C_3  and  C_6
REMARK    2  A    between atoms: N_4  and  C_12
REMARK                            x       y       z     vdW  Elec       q    Type
REMARK                         _______ _______ _______ _____ _____    ______ ____
ROOT
ATOM      1  C   UNL     1       7.122   3.764   0.522  0.00  0.00    +0.017 C 
ATOM      2  C   UNL     1       7.315   3.199  -0.911  0.00  0.00    +0.025 C 
ATOM      3  C   UNL     1       7.017   4.419  -1.808  0.00  0.00    +0.088 C 
ATOM      4  N   UNL     1       6.194   5.352  -1.017  0.00  0.00    -0.298 NA
ATOM      5  C   UNL     1       5.949   4.754   0.312  0.00  0.00    +0.085 C 
ATOM      6  C   UNL     1       6.850   6.660  -0.894  0.00  0.00    +0.105 C 
ENDROOT
BRANCH   3   7
ATOM      7  C   UNL     1       6.263   3.981  -3.036  0.00  0.00    -0.012 A 
ATOM      8  C   UNL     1       6.146   4.826  -4.123  0.00  0.00    +0.115 A 
ATOM      9  N   UNL     1       5.488   4.450  -5.202  0.00  0.00    -0.263 NA
ATOM     10  C   UNL     1       4.918   3.264  -5.288  0.00  0.00    +0.111 A 
ATOM     11  C   UNL     1       4.992   2.366  -4.241  0.00  0.00    +0.020 A 
ATOM     12  C   UNL     1       5.681   2.724  -3.092  0.00  0.00    +0.008 A 
ENDBRANCH   3   7
TORSDOF 1
ENDMDL
MODEL 8
REMARK VINA RESULT:    -2.364      3.514      4.766
REMARK INTER + INTRA:          -2.716
REMARK INTER:                  -2.461
REMARK INTRA:                  -0.255
REMARK UNBOUND:                -0.214
REMARK  Name = Nicotine.pdb
REMARK  2 active torsions:
REMARK  status: ('A' for Active; 'I' for Inactive)
REMARK    1  A    between atoms: C_3  and  C_6
REMARK    2  A    between atoms: N_4  and  C_12
REMARK                            x       y       z     vdW  Elec       q    Type
REMARK                         _______ _______ _______ _____ _____    ______ ____
ROOT
ATOM      1  C   UNL     1       9.683   3.539   1.255  0.00  0.00    +0.017 C 
ATOM      2  C   UNL     1       9.504   3.552  -0.286  0.00  0.00    +0.025 C 
ATOM      3  C   UNL     1       9.060   5.002  -0.571  0.00  0.00    +0.088 C 
ATOM      4  N   UNL     1       8.493   5.539   0.678  0.00  0.00    -0.298 NA
ATOM      5  C   UNL     1       8.543   4.482   1.711  0.00  0.00    +0.085 C 
ATOM      6  C   UNL     1       9.220   6.738   1.115  0.00  0.00    +0.105 C 
ENDROOT
BRANCH   3   7
ATOM      7  C   UNL     1       8.015   5.014  -1.657  0.00  0.00    -0.012 A 
ATOM      8  C   UNL     1       7.888   6.108  -2.493  0.00  0.00    +0.115 A 
ATOM      9  N   UNL     1       6.976   6.127  -3.445  0.00  0.00    -0.263 NA
ATOM     10  C   UNL     1       6.156   5.113  -3.639  0.00  0.00    +0.111 A 
ATOM     11  C   UNL     1       6.224   3.985  -2.843  0.00  0.00    +0.020 A 
ATOM     12  C   UNL     1       7.173   3.927  -1.835  0.00  0.00    +0.008 A 
ENDBRANCH   3   7
TORSDOF 1
ENDMDL
MODEL 9
REMARK VINA RESULT:    -2.330      2.938      4.391
REMARK INTER + INTRA:          -2.680
REMARK INTER:                  -2.487
REMARK INTRA:                  -0.194
REMARK UNBOUND:                -0.214
REMARK  Name = Nicotine.pdb
REMARK  2 active torsions:
REMARK  status: ('A' for Active; 'I' for Inactive)
REMARK    1  A    between atoms: C_3  and  C_6
REMARK    2  A    between atoms: N_4  and  C_12
REMARK                            x       y       z     vdW  Elec       q    Type
REMARK                         _______ _______ _______ _____ _____    ______ ____
ROOT
ATOM      1  C   UNL     1       9.530   1.670   0.811  0.00  0.00    +0.017 C 
ATOM      2  C   UNL     1       8.949   2.952   0.159  0.00  0.00    +0.025 C 
ATOM      3  C   UNL     1       7.453   2.610  -0.005  0.00  0.00    +0.088 C 
ATOM      4  N   UNL     1       7.338   1.140  -0.005  0.00  0.00    -0.298 NA
ATOM      5  C   UNL     1       8.693   0.562   0.125  0.00  0.00    +0.085 C 
ATOM      6  C   UNL     1       6.462   0.680   1.079  0.00  0.00    +0.105 C 
ENDROOT
BRANCH   3   7
ATOM      7  C   UNL     1       6.939   3.165  -1.308  0.00  0.00    -0.012 A 
ATOM      8  C   UNL     1       7.336   4.417  -1.739  0.00  0.00    +0.115 A 
ATOM      9  N   UNL     1       6.892   4.911  -2.878  0.00  0.00    -0.263 NA
ATOM     10  C   UNL     1       6.058   4.239  -3.647  0.00  0.00    +0.111 A 
ATOM     11  C   UNL     1       5.618   2.980  -3.282  0.00  0.00    +0.020 A 
ATOM     12  C   UNL     1       6.068   2.426  -2.093  0.00  0.00    +0.008 A 
ENDBRANCH   3   7
TORSDOF 1
ENDMDL
MODEL 10
REMARK VINA RESULT:    -2.287      2.428      3.938
REMARK INTER + INTRA:          -2.635
REMARK INTER:                  -2.414
REMARK INTRA:                  -0.221
REMARK UNBOUND:                -0.214
REMARK  Name = Nicotine.pdb
REMARK  2 active torsions:
REMARK  status: ('A' for Active; 'I' for Inactive)
REMARK    1  A    between atoms: C_3  and  C_6
REMARK    2  A    between atoms: N_4  and  C_12
REMARK                            x       y       z     vdW  Elec       q    Type
REMARK                         _______ _______ _______ _____ _____    ______ ____
ROOT
ATOM      1  C   UNL     1       6.331   2.962   1.409  0.00  0.00    +0.017 C 
ATOM      2  C   UNL     1       5.786   2.461   0.046  0.00  0.00    +0.025 C 
ATOM      3  C   UNL     1       6.947   2.763  -0.925  0.00  0.00    +0.088 C 
ATOM      4  N   UNL     1       7.767   3.822  -0.310  0.00  0.00    -0.298 NA
ATOM      5  C   UNL     1       7.152   4.204   0.980  0.00  0.00    +0.085 C 
ATOM      6  C   UNL     1       9.152   3.374  -0.121  0.00  0.00    +0.105 C 
ENDROOT
BRANCH   3   7
ATOM      7  C   UNL     1       6.400   3.238  -2.246  0.00  0.00    -0.012 A 
ATOM      8  C   UNL     1       6.686   4.510  -2.704  0.00  0.00    +0.115 A 
ATOM      9  N   UNL     1       6.212   4.934  -3.859  0.00  0.00    -0.263 NA
ATOM     10  C   UNL     1       5.452   4.170  -4.619  0.00  0.00    +0.111 A 
ATOM     11  C   UNL     1       5.124   2.885  -4.226  0.00  0.00    +0.020 A 
ATOM     12  C   UNL     1       5.609   2.403  -3.020  0.00  0.00    +0.008 A 
ENDBRANCH   3   7
TORSDOF 1
ENDMDL
