MODEL 1
REMARK VINA RESULT:    -3.341      0.000      0.000
REMARK INTER + INTRA:          -3.744
REMARK INTER:                  -3.536
REMARK INTRA:                  -0.208
REMARK UNBOUND:                -0.208
REMARK  Name = Nicotine.pdb
REMARK  2 active torsions:
REMARK  status: ('A' for Active; 'I' for Inactive)
REMARK    1  A    between atoms: C_3  and  C_6
REMARK    2  A    between atoms: N_4  and  C_12
REMARK                            x       y       z     vdW  Elec       q    Type
REMARK                         _______ _______ _______ _____ _____    ______ ____
ROOT
ATOM      1  C   UNL     1       1.149  -4.872  -1.607  0.00  0.00    +0.017 C 
ATOM      2  C   UNL     1       1.237  -4.568  -3.125  0.00  0.00    +0.025 C 
ATOM      3  C   UNL     1       2.721  -4.188  -3.318  0.00  0.00    +0.088 C 
ATOM      4  N   UNL     1       3.236  -3.758  -2.006  0.00  0.00    -0.298 NA
ATOM      5  C   UNL     1       2.135  -3.830  -1.021  0.00  0.00    +0.085 C 
ATOM      6  C   UNL     1       4.372  -4.589  -1.587  0.00  0.00    +0.105 C 
ENDROOT
BRANCH   3   7
ATOM      7  C   UNL     1       2.837  -3.061  -4.310  0.00  0.00    -0.012 A 
ATOM      8  C   UNL     1       2.247  -3.162  -5.556  0.00  0.00    +0.115 A 
ATOM      9  N   UNL     1       2.344  -2.180  -6.431  0.00  0.00    -0.263 NA
ATOM     10  C   UNL     1       3.001  -1.070  -6.157  0.00  0.00    +0.111 A 
ATOM     11  C   UNL     1       3.616  -0.897  -4.931  0.00  0.00    +0.020 A 
ATOM     12  C   UNL     1       3.531  -1.906  -3.984  0.00  0.00    +0.008 A 
ENDBRANCH   3   7
TORSDOF 1
ENDMDL
MODEL 2
REMARK VINA RESULT:    -2.897      1.434      4.582
REMARK INTER + INTRA:          -3.275
REMARK INTER:                  -3.082
REMARK INTRA:                  -0.193
REMARK UNBOUND:                -0.208
REMARK  Name = Nicotine.pdb
REMARK  2 active torsions:
REMARK  status: ('A' for Active; 'I' for Inactive)
REMARK    1  A    between atoms: C_3  and  C_6
REMARK    2  A    between atoms: N_4  and  C_12
REMARK                            x       y       z     vdW  Elec       q    Type
REMARK                         _______ _______ _______ _____ _____    ______ ____
ROOT
ATOM      1  C   UNL     1       3.100   0.184  -6.362  0.00  0.00    +0.017 C 
ATOM      2  C   UNL     1       3.123  -0.422  -4.934  0.00  0.00    +0.025 C 
ATOM      3  C   UNL     1       3.736  -1.820  -5.160  0.00  0.00    +0.088 C 
ATOM      4  N   UNL     1       3.521  -2.168  -6.576  0.00  0.00    -0.298 NA
ATOM      5  C   UNL     1       2.784  -1.063  -7.226  0.00  0.00    +0.085 C 
ATOM      6  C   UNL     1       4.798  -2.421  -7.256  0.00  0.00    +0.105 C 
ENDROOT
BRANCH   3   7
ATOM      7  C   UNL     1       3.052  -2.829  -4.274  0.00  0.00    -0.012 A 
ATOM      8  C   UNL     1       2.072  -3.658  -4.785  0.00  0.00    +0.115 A 
ATOM      9  N   UNL     1       1.468  -4.543  -4.016  0.00  0.00    -0.263 NA
ATOM     10  C   UNL     1       1.771  -4.674  -2.740  0.00  0.00    +0.111 A 
ATOM     11  C   UNL     1       2.742  -3.880  -2.158  0.00  0.00    +0.020 A 
ATOM     12  C   UNL     1       3.402  -2.941  -2.937  0.00  0.00    +0.008 A 
ENDBRANCH   3   7
TORSDOF 1
ENDMDL
MODEL 3
REMARK VINA RESULT:    -2.614      2.154      3.831
REMARK INTER + INTRA:          -2.975
REMARK INTER:                  -2.756
REMARK INTRA:                  -0.219
REMARK UNBOUND:                -0.208
REMARK  Name = Nicotine.pdb
REMARK  2 active torsions:
REMARK  status: ('A' for Active; 'I' for Inactive)
REMARK    1  A    between atoms: C_3  and  C_6
REMARK    2  A    between atoms: N_4  and  C_12
REMARK                            x       y       z     vdW  Elec       q    Type
REMARK                         _______ _______ _______ _____ _____    ______ ____
ROOT
ATOM      1  C   UNL     1       1.804  -4.282  -4.503  0.00  0.00    +0.017 C 
ATOM      2  C   UNL     1       2.634  -3.086  -3.968  0.00  0.00    +0.025 C 
ATOM      3  C   UNL     1       3.220  -3.632  -2.649  0.00  0.00    +0.088 C 
ATOM      4  N   UNL     1       2.358  -4.746  -2.215  0.00  0.00    -0.298 NA
ATOM      5  C   UNL     1       1.256  -4.895  -3.189  0.00  0.00    +0.085 C 
ATOM      6  C   UNL     1       3.126  -5.991  -2.094  0.00  0.00    +0.105 C 
ENDROOT
BRANCH   3   7
ATOM      7  C   UNL     1       3.225  -2.548  -1.602  0.00  0.00    -0.012 A 
ATOM      8  C   UNL     1       2.772  -2.809  -0.323  0.00  0.00    +0.115 A 
ATOM      9  N   UNL     1       2.773  -1.866   0.599  0.00  0.00    -0.263 NA
ATOM     10  C   UNL     1       3.202  -0.646   0.342  0.00  0.00    +0.111 A 
ATOM     11  C   UNL     1       3.670  -0.311  -0.915  0.00  0.00    +0.020 A 
ATOM     12  C   UNL     1       3.689  -1.277  -1.909  0.00  0.00    +0.008 A 
ENDBRANCH   3   7
TORSDOF 1
ENDMDL
MODEL 4
REMARK VINA RESULT:    -2.490      1.104      1.919
REMARK INTER + INTRA:          -2.844
REMARK INTER:                  -2.628
REMARK INTRA:                  -0.216
REMARK UNBOUND:                -0.208
REMARK  Name = Nicotine.pdb
REMARK  2 active torsions:
REMARK  status: ('A' for Active; 'I' for Inactive)
REMARK    1  A    between atoms: C_3  and  C_6
REMARK    2  A    between atoms: N_4  and  C_12
REMARK                            x       y       z     vdW  Elec       q    Type
REMARK                         _______ _______ _______ _____ _____    ______ ____
ROOT
ATOM      1  C   UNL     1       3.613  -4.320  -1.477  0.00  0.00    +0.017 C 
ATOM      2  C   UNL     1       3.602  -2.967  -2.235  0.00  0.00    +0.025 C 
ATOM      3  C   UNL     1       2.470  -3.156  -3.267  0.00  0.00    +0.088 C 
ATOM      4  N   UNL     1       2.290  -4.607  -3.457  0.00  0.00    -0.298 NA
ATOM      5  C   UNL     1       3.274  -5.318  -2.612  0.00  0.00    +0.085 C 
ATOM      6  C   UNL     1       0.919  -5.016  -3.128  0.00  0.00    +0.105 C 
ENDROOT
BRANCH   3   7
ATOM      7  C   UNL     1       2.853  -2.510  -4.573  0.00  0.00    -0.012 A 
ATOM      8  C   UNL     1       2.304  -2.956  -5.761  0.00  0.00    +0.115 A 
ATOM      9  N   UNL     1       2.634  -2.396  -6.908  0.00  0.00    -0.263 NA
ATOM     10  C   UNL     1       3.493  -1.398  -6.971  0.00  0.00    +0.111 A 
ATOM     11  C   UNL     1       4.083  -0.898  -5.824  0.00  0.00    +0.020 A 
ATOM     12  C   UNL     1       3.756  -1.459  -4.599  0.00  0.00    +0.008 A 
ENDBRANCH   3   7
TORSDOF 1
ENDMDL
MODEL 5
REMARK VINA RESULT:    -1.744      1.176      2.355
REMARK INTER + INTRA:          -2.054
REMARK INTER:                  -1.857
REMARK INTRA:                  -0.196
REMARK UNBOUND:                -0.208
REMARK  Name = Nicotine.pdb
REMARK  2 active torsions:
REMARK  status: ('A' for Active; 'I' for Inactive)
REMARK    1  A    between atoms: C_3  and  C_6
REMARK    2  A    between atoms: N_4  and  C_12
REMARK                            x       y       z     vdW  Elec       q    Type
REMARK                         _______ _______ _______ _____ _____    ______ ____
ROOT
ATOM      1  C   UNL     1       4.201  -5.098  -1.304  0.00  0.00    +0.017 C 
ATOM      2  C   UNL     1       4.150  -3.664  -1.892  0.00  0.00    +0.025 C 
ATOM      3  C   UNL     1       2.768  -3.618  -2.578  0.00  0.00    +0.088 C 
ATOM      4  N   UNL     1       2.370  -5.011  -2.851  0.00  0.00    -0.298 NA
ATOM      5  C   UNL     1       3.451  -5.909  -2.391  0.00  0.00    +0.085 C 
ATOM      6  C   UNL     1       1.099  -5.335  -2.192  0.00  0.00    +0.105 C 
ENDROOT
BRANCH   3   7
ATOM      7  C   UNL     1       2.861  -2.847  -3.869  0.00  0.00    -0.012 A 
ATOM      8  C   UNL     1       3.584  -1.671  -3.930  0.00  0.00    +0.115 A 
ATOM      9  N   UNL     1       3.671  -0.990  -5.056  0.00  0.00    -0.263 NA
ATOM     10  C   UNL     1       3.077  -1.398  -6.160  0.00  0.00    +0.111 A 
ATOM     11  C   UNL     1       2.336  -2.565  -6.175  0.00  0.00    +0.020 A 
ATOM     12  C   UNL     1       2.227  -3.310  -5.012  0.00  0.00    +0.008 A 
ENDBRANCH   3   7
TORSDOF 1
ENDMDL
MODEL 6
REMARK VINA RESULT:    -1.073      3.405      5.511
REMARK INTER + INTRA:          -1.344
REMARK INTER:                  -1.109
REMARK INTRA:                  -0.235
REMARK UNBOUND:                -0.208
REMARK  Name = Nicotine.pdb
REMARK  2 active torsions:
REMARK  status: ('A' for Active; 'I' for Inactive)
REMARK    1  A    between atoms: C_3  and  C_6
REMARK    2  A    between atoms: N_4  and  C_12
REMARK                            x       y       z     vdW  Elec       q    Type
REMARK                         _______ _______ _______ _____ _____    ______ ____
ROOT
ATOM      1  C   UNL     1       3.255  -2.013  -7.022  0.00  0.00    +0.017 C 
ATOM      2  C   UNL     1       4.506  -1.126  -7.254  0.00  0.00    +0.025 C 
ATOM      3  C   UNL     1       4.664  -0.391  -5.906  0.00  0.00    +0.088 C 
ATOM      4  N   UNL     1       3.349  -0.411  -5.240  0.00  0.00    -0.298 NA
ATOM      5  C   UNL     1       2.385  -1.100  -6.124  0.00  0.00    +0.085 C 
ATOM      6  C   UNL     1       3.431  -1.073  -3.932  0.00  0.00    +0.105 C 
ENDROOT
BRANCH   3   7
ATOM      7  C   UNL     1       5.098   1.032  -6.145  0.00  0.00    -0.012 A 
ATOM      8  C   UNL     1       6.168   1.564  -5.450  0.00  0.00    +0.115 A 
ATOM      9  N   UNL     1       6.553   2.808  -5.654  0.00  0.00    -0.263 NA
ATOM     10  C   UNL     1       5.940   3.591  -6.520  0.00  0.00    +0.111 A 
ATOM     11  C   UNL     1       4.863   3.129  -7.252  0.00  0.00    +0.020 A 
ATOM     12  C   UNL     1       4.432   1.824  -7.069  0.00  0.00    +0.008 A 
ENDBRANCH   3   7
TORSDOF 1
ENDMDL
MODEL 7
REMARK VINA RESULT:    -0.723      6.927      9.672
REMARK INTER + INTRA:          -0.974
REMARK INTER:                  -0.757
REMARK INTRA:                  -0.216
REMARK UNBOUND:                -0.208
REMARK  Name = Nicotine.pdb
REMARK  2 active torsions:
REMARK  status: ('A' for Active; 'I' for Inactive)
REMARK    1  A    between atoms: C_3  and  C_6
REMARK    2  A    between atoms: N_4  and  C_12
REMARK                            x       y       z     vdW  Elec       q    Type
REMARK                         _______ _______ _______ _____ _____    ______ ____
ROOT
ATOM      1  C   UNL     1       8.191   6.441  -4.131  0.00  0.00    +0.017 C 
ATOM      2  C   UNL     1       8.094   4.937  -4.501  0.00  0.00    +0.025 C 
ATOM      3  C   UNL     1       7.579   4.970  -5.956  0.00  0.00    +0.088 C 
ATOM      4  N   UNL     1       6.914   6.271  -6.154  0.00  0.00    -0.298 NA
ATOM      5  C   UNL     1       6.972   7.028  -4.886  0.00  0.00    +0.085 C 
ATOM      6  C   UNL     1       7.543   7.023  -7.247  0.00  0.00    +0.105 C 
ENDROOT
BRANCH   3   7
ATOM      7  C   UNL     1       6.595   3.851  -6.177  0.00  0.00    -0.012 A 
ATOM      8  C   UNL     1       5.541   4.010  -7.056  0.00  0.00    +0.115 A 
ATOM      9  N   UNL     1       4.676   3.035  -7.256  0.00  0.00    -0.263 NA
ATOM     10  C   UNL     1       4.779   1.878  -6.632  0.00  0.00    +0.111 A 
ATOM     11  C   UNL     1       5.808   1.646  -5.738  0.00  0.00    +0.020 A 
ATOM     12  C   UNL     1       6.740   2.646  -5.507  0.00  0.00    +0.008 A 
ENDBRANCH   3   7
TORSDOF 1
ENDMDL
