MODEL 1
REMARK VINA RESULT:    -2.864      0.000      0.000
REMARK INTER + INTRA:          -3.283
REMARK INTER:                  -3.032
REMARK INTRA:                  -0.251
REMARK UNBOUND:                -0.251
REMARK  Name = Nicotine.pdb
REMARK  2 active torsions:
REMARK  status: ('A' for Active; 'I' for Inactive)
REMARK    1  A    between atoms: C_3  and  C_6
REMARK    2  A    between atoms: N_4  and  C_12
REMARK                            x       y       z     vdW  Elec       q    Type
REMARK                         _______ _______ _______ _____ _____    ______ ____
ROOT
ATOM      1  C   UNL     1       1.415   0.206  -2.384  0.00  0.00    +0.017 C 
ATOM      2  C   UNL     1       1.592  -1.222  -2.962  0.00  0.00    +0.025 C 
ATOM      3  C   UNL     1       0.700  -2.083  -2.042  0.00  0.00    +0.088 C 
ATOM      4  N   UNL     1       0.536  -1.343  -0.778  0.00  0.00    -0.298 NA
ATOM      5  C   UNL     1       1.303  -0.083  -0.866  0.00  0.00    +0.085 C 
ATOM      6  C   UNL     1      -0.883  -1.079  -0.503  0.00  0.00    +0.105 C 
ENDROOT
BRANCH   3   7
ATOM      7  C   UNL     1       1.364  -3.409  -1.779  0.00  0.00    -0.012 A 
ATOM      8  C   UNL     1       0.611  -4.566  -1.711  0.00  0.00    +0.115 A 
ATOM      9  N   UNL     1       1.185  -5.732  -1.481  0.00  0.00    -0.263 NA
ATOM     10  C   UNL     1       2.487  -5.841  -1.308  0.00  0.00    +0.111 A 
ATOM     11  C   UNL     1       3.304  -4.728  -1.363  0.00  0.00    +0.020 A 
ATOM     12  C   UNL     1       2.738  -3.486  -1.608  0.00  0.00    +0.008 A 
ENDBRANCH   3   7
TORSDOF 1
ENDMDL
MODEL 2
REMARK VINA RESULT:    -2.861      1.724      2.927
REMARK INTER + INTRA:          -3.279
REMARK INTER:                  -3.056
REMARK INTRA:                  -0.223
REMARK UNBOUND:                -0.251
REMARK  Name = Nicotine.pdb
REMARK  2 active torsions:
REMARK  status: ('A' for Active; 'I' for Inactive)
REMARK    1  A    between atoms: C_3  and  C_6
REMARK    2  A    between atoms: N_4  and  C_12
REMARK                            x       y       z     vdW  Elec       q    Type
REMARK                         _______ _______ _______ _____ _____    ______ ____
ROOT
ATOM      1  C   UNL     1       1.206  -0.315  -2.437  0.00  0.00    +0.017 C 
ATOM      2  C   UNL     1       0.406  -1.071  -1.344  0.00  0.00    +0.025 C 
ATOM      3  C   UNL     1       1.232  -2.359  -1.137  0.00  0.00    +0.088 C 
ATOM      4  N   UNL     1       2.030  -2.566  -2.359  0.00  0.00    -0.298 NA
ATOM      5  C   UNL     1       1.716  -1.484  -3.316  0.00  0.00    +0.085 C 
ATOM      6  C   UNL     1       3.466  -2.598  -2.051  0.00  0.00    +0.105 C 
ENDROOT
BRANCH   3   7
ATOM      7  C   UNL     1       0.309  -3.530  -0.921  0.00  0.00    -0.012 A 
ATOM      8  C   UNL     1       0.426  -4.665  -1.701  0.00  0.00    +0.115 A 
ATOM      9  N   UNL     1      -0.377  -5.695  -1.518  0.00  0.00    -0.263 NA
ATOM     10  C   UNL     1      -1.316  -5.686  -0.593  0.00  0.00    +0.111 A 
ATOM     11  C   UNL     1      -1.492  -4.586   0.226  0.00  0.00    +0.020 A 
ATOM     12  C   UNL     1      -0.663  -3.487   0.066  0.00  0.00    +0.008 A 
ENDBRANCH   3   7
TORSDOF 1
ENDMDL
MODEL 3
REMARK VINA RESULT:    -2.819      2.832      5.045
REMARK INTER + INTRA:          -3.235
REMARK INTER:                  -2.998
REMARK INTRA:                  -0.237
REMARK UNBOUND:                -0.251
REMARK  Name = Nicotine.pdb
REMARK  2 active torsions:
REMARK  status: ('A' for Active; 'I' for Inactive)
REMARK    1  A    between atoms: C_3  and  C_6
REMARK    2  A    between atoms: N_4  and  C_12
REMARK                            x       y       z     vdW  Elec       q    Type
REMARK                         _______ _______ _______ _____ _____    ______ ____
ROOT
ATOM      1  C   UNL     1       3.160  -2.624  -2.162  0.00  0.00    +0.017 C 
ATOM      2  C   UNL     1       3.313  -1.660  -3.368  0.00  0.00    +0.025 C 
ATOM      3  C   UNL     1       2.088  -0.732  -3.227  0.00  0.00    +0.088 C 
ATOM      4  N   UNL     1       1.084  -1.451  -2.422  0.00  0.00    -0.298 NA
ATOM      5  C   UNL     1       1.622  -2.786  -2.083  0.00  0.00    +0.085 C 
ATOM      6  C   UNL     1       0.742  -0.697  -1.210  0.00  0.00    +0.105 C 
ENDROOT
BRANCH   3   7
ATOM      7  C   UNL     1       1.525  -0.416  -4.588  0.00  0.00    -0.012 A 
ATOM      8  C   UNL     1       1.239   0.890  -4.941  0.00  0.00    +0.115 A 
ATOM      9  N   UNL     1       0.746   1.175  -6.130  0.00  0.00    -0.263 NA
ATOM     10  C   UNL     1       0.508   0.236  -7.025  0.00  0.00    +0.111 A 
ATOM     11  C   UNL     1       0.769  -1.092  -6.744  0.00  0.00    +0.020 A 
ATOM     12  C   UNL     1       1.293  -1.429  -5.506  0.00  0.00    +0.008 A 
ENDBRANCH   3   7
TORSDOF 1
ENDMDL
MODEL 4
REMARK VINA RESULT:    -2.744      1.914      2.884
REMARK INTER + INTRA:          -3.156
REMARK INTER:                  -2.938
REMARK INTRA:                  -0.218
REMARK UNBOUND:                -0.251
REMARK  Name = Nicotine.pdb
REMARK  2 active torsions:
REMARK  status: ('A' for Active; 'I' for Inactive)
REMARK    1  A    between atoms: C_3  and  C_6
REMARK    2  A    between atoms: N_4  and  C_12
REMARK                            x       y       z     vdW  Elec       q    Type
REMARK                         _______ _______ _______ _____ _____    ______ ____
ROOT
ATOM      1  C   UNL     1       3.013  -1.181  -4.188  0.00  0.00    +0.017 C 
ATOM      2  C   UNL     1       1.566  -1.515  -3.741  0.00  0.00    +0.025 C 
ATOM      3  C   UNL     1       1.646  -1.418  -2.202  0.00  0.00    +0.088 C 
ATOM      4  N   UNL     1       3.060  -1.601  -1.827  0.00  0.00    -0.298 NA
ATOM      5  C   UNL     1       3.848  -1.831  -3.056  0.00  0.00    +0.085 C 
ATOM      6  C   UNL     1       3.564  -0.436  -1.088  0.00  0.00    +0.105 C 
ENDROOT
BRANCH   3   7
ATOM      7  C   UNL     1       0.804  -2.499  -1.575  0.00  0.00    -0.012 A 
ATOM      8  C   UNL     1      -0.234  -2.170  -0.725  0.00  0.00    +0.115 A 
ATOM      9  N   UNL     1      -0.976  -3.110  -0.172  0.00  0.00    -0.263 NA
ATOM     10  C   UNL     1      -0.761  -4.390  -0.405  0.00  0.00    +0.111 A 
ATOM     11  C   UNL     1       0.259  -4.794  -1.245  0.00  0.00    +0.020 A 
ATOM     12  C   UNL     1       1.057  -3.834  -1.849  0.00  0.00    +0.008 A 
ENDBRANCH   3   7
TORSDOF 1
ENDMDL
MODEL 5
REMARK VINA RESULT:    -2.731      3.091      5.364
REMARK INTER + INTRA:          -3.141
REMARK INTER:                  -2.967
REMARK INTRA:                  -0.174
REMARK UNBOUND:                -0.251
REMARK  Name = Nicotine.pdb
REMARK  2 active torsions:
REMARK  status: ('A' for Active; 'I' for Inactive)
REMARK    1  A    between atoms: C_3  and  C_6
REMARK    2  A    between atoms: N_4  and  C_12
REMARK                            x       y       z     vdW  Elec       q    Type
REMARK                         _______ _______ _______ _____ _____    ______ ____
ROOT
ATOM      1  C   UNL     1       2.198  -1.603  -1.209  0.00  0.00    +0.017 C 
ATOM      2  C   UNL     1       1.188  -1.590  -2.387  0.00  0.00    +0.025 C 
ATOM      3  C   UNL     1       2.101  -1.657  -3.629  0.00  0.00    +0.088 C 
ATOM      4  N   UNL     1       3.430  -1.167  -3.220  0.00  0.00    -0.298 NA
ATOM      5  C   UNL     1       3.372  -0.779  -1.795  0.00  0.00    +0.085 C 
ATOM      6  C   UNL     1       4.461  -2.189  -3.446  0.00  0.00    +0.105 C 
ENDROOT
BRANCH   3   7
ATOM      7  C   UNL     1       1.545  -0.783  -4.722  0.00  0.00    -0.012 A 
ATOM      8  C   UNL     1       1.466   0.587  -4.551  0.00  0.00    +0.115 A 
ATOM      9  N   UNL     1       0.981   1.359  -5.503  0.00  0.00    -0.263 NA
ATOM     10  C   UNL     1       0.554   0.863  -6.647  0.00  0.00    +0.111 A 
ATOM     11  C   UNL     1       0.602  -0.497  -6.891  0.00  0.00    +0.020 A 
ATOM     12  C   UNL     1       1.111  -1.340  -5.916  0.00  0.00    +0.008 A 
ENDBRANCH   3   7
TORSDOF 1
ENDMDL
MODEL 6
REMARK VINA RESULT:    -2.701      1.230      4.546
REMARK INTER + INTRA:          -3.110
REMARK INTER:                  -2.895
REMARK INTRA:                  -0.215
REMARK UNBOUND:                -0.251
REMARK  Name = Nicotine.pdb
REMARK  2 active torsions:
REMARK  status: ('A' for Active; 'I' for Inactive)
REMARK    1  A    between atoms: C_3  and  C_6
REMARK    2  A    between atoms: N_4  and  C_12
REMARK                            x       y       z     vdW  Elec       q    Type
REMARK                         _______ _______ _______ _____ _____    ______ ____
ROOT
ATOM      1  C   UNL     1       0.035  -6.097  -0.180  0.00  0.00    +0.017 C 
ATOM      2  C   UNL     1      -0.424  -4.925  -1.087  0.00  0.00    +0.025 C 
ATOM      3  C   UNL     1       0.904  -4.394  -1.667  0.00  0.00    +0.088 C 
ATOM      4  N   UNL     1       1.980  -4.814  -0.751  0.00  0.00    -0.298 NA
ATOM      5  C   UNL     1       1.376  -5.555   0.376  0.00  0.00    +0.085 C 
ATOM      6  C   UNL     1       2.976  -5.637  -1.450  0.00  0.00    +0.105 C 
ENDROOT
BRANCH   3   7
ATOM      7  C   UNL     1       0.860  -2.890  -1.754  0.00  0.00    -0.012 A 
ATOM      8  C   UNL     1       0.067  -2.163  -0.888  0.00  0.00    +0.115 A 
ATOM      9  N   UNL     1       0.023  -0.846  -0.957  0.00  0.00    -0.263 NA
ATOM     10  C   UNL     1       0.727  -0.176  -1.847  0.00  0.00    +0.111 A 
ATOM     11  C   UNL     1       1.544  -0.835  -2.747  0.00  0.00    +0.020 A 
ATOM     12  C   UNL     1       1.619  -2.219  -2.700  0.00  0.00    +0.008 A 
ENDBRANCH   3   7
TORSDOF 1
ENDMDL
MODEL 7
REMARK VINA RESULT:    -2.604      1.762      2.826
REMARK INTER + INTRA:          -3.006
REMARK INTER:                  -2.778
REMARK INTRA:                  -0.229
REMARK UNBOUND:                -0.251
REMARK  Name = Nicotine.pdb
REMARK  2 active torsions:
REMARK  status: ('A' for Active; 'I' for Inactive)
REMARK    1  A    between atoms: C_3  and  C_6
REMARK    2  A    between atoms: N_4  and  C_12
REMARK                            x       y       z     vdW  Elec       q    Type
REMARK                         _______ _______ _______ _____ _____    ______ ____
ROOT
ATOM      1  C   UNL     1       1.699  -0.351  -3.719  0.00  0.00    +0.017 C 
ATOM      2  C   UNL     1       1.223  -1.242  -2.541  0.00  0.00    +0.025 C 
ATOM      3  C   UNL     1       2.520  -1.950  -2.096  0.00  0.00    +0.088 C 
ATOM      4  N   UNL     1       3.450  -1.918  -3.239  0.00  0.00    -0.298 NA
ATOM      5  C   UNL     1       2.779  -1.248  -4.373  0.00  0.00    +0.085 C 
ATOM      6  C   UNL     1       4.698  -1.231  -2.884  0.00  0.00    +0.105 C 
ENDROOT
BRANCH   3   7
ATOM      7  C   UNL     1       2.221  -3.377  -1.717  0.00  0.00    -0.012 A 
ATOM      8  C   UNL     1       3.250  -4.259  -1.444  0.00  0.00    +0.115 A 
ATOM      9  N   UNL     1       2.997  -5.510  -1.111  0.00  0.00    -0.263 NA
ATOM     10  C   UNL     1       1.764  -5.968  -1.025  0.00  0.00    +0.111 A 
ATOM     11  C   UNL     1       0.683  -5.145  -1.283  0.00  0.00    +0.020 A 
ATOM     12  C   UNL     1       0.910  -3.822  -1.631  0.00  0.00    +0.008 A 
ENDBRANCH   3   7
TORSDOF 1
ENDMDL
MODEL 8
REMARK VINA RESULT:    -2.550      1.987      3.583
REMARK INTER + INTRA:          -2.950
REMARK INTER:                  -2.744
REMARK INTRA:                  -0.206
REMARK UNBOUND:                -0.251
REMARK  Name = Nicotine.pdb
REMARK  2 active torsions:
REMARK  status: ('A' for Active; 'I' for Inactive)
REMARK    1  A    between atoms: C_3  and  C_6
REMARK    2  A    between atoms: N_4  and  C_12
REMARK                            x       y       z     vdW  Elec       q    Type
REMARK                         _______ _______ _______ _____ _____    ______ ____
ROOT
ATOM      1  C   UNL     1       3.999  -1.938  -2.538  0.00  0.00    +0.017 C 
ATOM      2  C   UNL     1       2.953  -2.758  -1.738  0.00  0.00    +0.025 C 
ATOM      3  C   UNL     1       1.631  -2.441  -2.469  0.00  0.00    +0.088 C 
ATOM      4  N   UNL     1       1.822  -1.167  -3.185  0.00  0.00    -0.298 NA
ATOM      5  C   UNL     1       3.187  -0.672  -2.909  0.00  0.00    +0.085 C 
ATOM      6  C   UNL     1       1.604  -1.335  -4.628  0.00  0.00    +0.105 C 
ENDROOT
BRANCH   3   7
ATOM      7  C   UNL     1       0.511  -2.307  -1.470  0.00  0.00    -0.012 A 
ATOM      8  C   UNL     1      -0.044  -3.430  -0.887  0.00  0.00    +0.115 A 
ATOM      9  N   UNL     1      -1.024  -3.322  -0.011  0.00  0.00    -0.263 NA
ATOM     10  C   UNL     1      -1.511  -2.148   0.341  0.00  0.00    +0.111 A 
ATOM     11  C   UNL     1      -1.006  -0.981  -0.200  0.00  0.00    +0.020 A 
ATOM     12  C   UNL     1       0.028  -1.056  -1.120  0.00  0.00    +0.008 A 
ENDBRANCH   3   7
TORSDOF 1
ENDMDL
MODEL 9
REMARK VINA RESULT:    -2.533      2.427      4.605
REMARK INTER + INTRA:          -2.932
REMARK INTER:                  -2.678
REMARK INTRA:                  -0.254
REMARK UNBOUND:                -0.251
REMARK  Name = Nicotine.pdb
REMARK  2 active torsions:
REMARK  status: ('A' for Active; 'I' for Inactive)
REMARK    1  A    between atoms: C_3  and  C_6
REMARK    2  A    between atoms: N_4  and  C_12
REMARK                            x       y       z     vdW  Elec       q    Type
REMARK                         _______ _______ _______ _____ _____    ______ ____
ROOT
ATOM      1  C   UNL     1       0.489  -2.577  -1.047  0.00  0.00    +0.017 C 
ATOM      2  C   UNL     1       1.418  -2.602  -2.290  0.00  0.00    +0.025 C 
ATOM      3  C   UNL     1       1.940  -1.151  -2.363  0.00  0.00    +0.088 C 
ATOM      4  N   UNL     1       0.976  -0.304  -1.638  0.00  0.00    -0.298 NA
ATOM      5  C   UNL     1      -0.125  -1.158  -1.145  0.00  0.00    +0.085 C 
ATOM      6  C   UNL     1       1.628   0.407  -0.530  0.00  0.00    +0.105 C 
ENDROOT
BRANCH   3   7
ATOM      7  C   UNL     1       2.031  -0.711  -3.801  0.00  0.00    -0.012 A 
ATOM      8  C   UNL     1       2.730   0.432  -4.138  0.00  0.00    +0.115 A 
ATOM      9  N   UNL     1       2.815   0.825  -5.395  0.00  0.00    -0.263 NA
ATOM     10  C   UNL     1       2.243   0.150  -6.372  0.00  0.00    +0.111 A 
ATOM     11  C   UNL     1       1.528  -1.004  -6.111  0.00  0.00    +0.020 A 
ATOM     12  C   UNL     1       1.421  -1.451  -4.802  0.00  0.00    +0.008 A 
ENDBRANCH   3   7
TORSDOF 1
ENDMDL
MODEL 10
REMARK VINA RESULT:    -2.420      1.830      4.504
REMARK INTER + INTRA:          -2.812
REMARK INTER:                  -2.609
REMARK INTRA:                  -0.203
REMARK UNBOUND:                -0.251
REMARK  Name = Nicotine.pdb
REMARK  2 active torsions:
REMARK  status: ('A' for Active; 'I' for Inactive)
REMARK    1  A    between atoms: C_3  and  C_6
REMARK    2  A    between atoms: N_4  and  C_12
REMARK                            x       y       z     vdW  Elec       q    Type
REMARK                         _______ _______ _______ _____ _____    ______ ____
ROOT
ATOM      1  C   UNL     1       2.731  -2.728   0.280  0.00  0.00    +0.017 C 
ATOM      2  C   UNL     1       2.126  -1.430  -0.315  0.00  0.00    +0.025 C 
ATOM      3  C   UNL     1       1.245  -1.955  -1.469  0.00  0.00    +0.088 C 
ATOM      4  N   UNL     1       1.760  -3.285  -1.841  0.00  0.00    -0.298 NA
ATOM      5  C   UNL     1       2.929  -3.593  -0.990  0.00  0.00    +0.085 C 
ATOM      6  C   UNL     1       0.719  -4.312  -1.698  0.00  0.00    +0.105 C 
ENDROOT
BRANCH   3   7
ATOM      7  C   UNL     1       1.334  -1.021  -2.648  0.00  0.00    -0.012 A 
ATOM      8  C   UNL     1       1.183   0.341  -2.474  0.00  0.00    +0.115 A 
ATOM      9  N   UNL     1       1.260   1.165  -3.500  0.00  0.00    -0.263 NA
ATOM     10  C   UNL     1       1.481   0.729  -4.725  0.00  0.00    +0.111 A 
ATOM     11  C   UNL     1       1.642  -0.621  -4.976  0.00  0.00    +0.020 A 
ATOM     12  C   UNL     1       1.574  -1.517  -3.921  0.00  0.00    +0.008 A 
ENDBRANCH   3   7
TORSDOF 1
ENDMDL
