MODEL 1
REMARK VINA RESULT:     0.000      0.000      0.000
REMARK INTER + INTRA:          -0.256
REMARK INTER:                   0.000
REMARK INTRA:                  -0.256
REMARK UNBOUND:                -0.256
REMARK  Name = Nicotine.pdb
REMARK  2 active torsions:
REMARK  status: ('A' for Active; 'I' for Inactive)
REMARK    1  A    between atoms: C_3  and  C_6
REMARK    2  A    between atoms: N_4  and  C_12
REMARK                            x       y       z     vdW  Elec       q    Type
REMARK                         _______ _______ _______ _____ _____    ______ ____
ROOT
ATOM      1  C   UNL     1       0.926   3.256  -2.591  0.00  0.00    +0.017 C 
ATOM      2  C   UNL     1       0.531   2.237  -3.692  0.00  0.00    +0.025 C 
ATOM      3  C   UNL     1      -0.485   1.325  -2.973  0.00  0.00    +0.088 C 
ATOM      4  N   UNL     1      -0.233   1.446  -1.526  0.00  0.00    -0.298 NA
ATOM      5  C   UNL     1       0.904   2.368  -1.321  0.00  0.00    +0.085 C 
ATOM      6  C   UNL     1      -1.431   1.921  -0.821  0.00  0.00    +0.105 C 
ENDROOT
BRANCH   3   7
ATOM      7  C   UNL     1      -0.290  -0.104  -3.411  0.00  0.00    -0.012 A 
ATOM      8  C   UNL     1      -1.313  -1.023  -3.271  0.00  0.00    +0.115 A 
ATOM      9  N   UNL     1      -1.151  -2.276  -3.651  0.00  0.00    -0.263 NA
ATOM     10  C   UNL     1      -0.018  -2.700  -4.176  0.00  0.00    +0.111 A 
ATOM     11  C   UNL     1       1.049  -1.837  -4.348  0.00  0.00    +0.020 A 
ATOM     12  C   UNL     1       0.914  -0.512  -3.964  0.00  0.00    +0.008 A 
ENDBRANCH   3   7
TORSDOF 1
ENDMDL
MODEL 2
REMARK VINA RESULT:     0.000      2.606      3.119
REMARK INTER + INTRA:          -0.256
REMARK INTER:                   0.000
REMARK INTRA:                  -0.256
REMARK UNBOUND:                -0.256
REMARK  Name = Nicotine.pdb
REMARK  2 active torsions:
REMARK  status: ('A' for Active; 'I' for Inactive)
REMARK    1  A    between atoms: C_3  and  C_6
REMARK    2  A    between atoms: N_4  and  C_12
REMARK                            x       y       z     vdW  Elec       q    Type
REMARK                         _______ _______ _______ _____ _____    ______ ____
ROOT
ATOM      1  C   UNL     1       0.926   3.256  -2.591  0.00  0.00    +0.017 C 
ATOM      2  C   UNL     1      -0.212   2.670  -3.468  0.00  0.00    +0.025 C 
ATOM      3  C   UNL     1      -1.476   2.949  -2.628  0.00  0.00    +0.088 C 
ATOM      4  N   UNL     1      -1.044   3.116  -1.229  0.00  0.00    -0.298 NA
ATOM      5  C   UNL     1       0.421   2.928  -1.163  0.00  0.00    +0.085 C 
ATOM      6  C   UNL     1      -1.429   4.436  -0.712  0.00  0.00    +0.105 C 
ENDROOT
BRANCH   3   7
ATOM      7  C   UNL     1      -2.431   1.788  -2.736  0.00  0.00    -0.012 A 
ATOM      8  C   UNL     1      -3.774   1.959  -2.460  0.00  0.00    +0.115 A 
ATOM      9  N   UNL     1      -4.616   0.948  -2.552  0.00  0.00    -0.263 NA
ATOM     10  C   UNL     1      -4.216  -0.256  -2.908  0.00  0.00    +0.111 A 
ATOM     11  C   UNL     1      -2.887  -0.503  -3.200  0.00  0.00    +0.020 A 
ATOM     12  C   UNL     1      -1.974   0.536  -3.119  0.00  0.00    +0.008 A 
ENDBRANCH   3   7
TORSDOF 1
ENDMDL
MODEL 3
REMARK VINA RESULT:     0.000      5.470      7.357
REMARK INTER + INTRA:          -0.256
REMARK INTER:                   0.000
REMARK INTRA:                  -0.256
REMARK UNBOUND:                -0.256
REMARK  Name = Nicotine.pdb
REMARK  2 active torsions:
REMARK  status: ('A' for Active; 'I' for Inactive)
REMARK    1  A    between atoms: C_3  and  C_6
REMARK    2  A    between atoms: N_4  and  C_12
REMARK                            x       y       z     vdW  Elec       q    Type
REMARK                         _______ _______ _______ _____ _____    ______ ____
ROOT
ATOM      1  C   UNL     1       2.748   4.089   5.558  0.00  0.00    +0.017 C 
ATOM      2  C   UNL     1       3.189   2.701   5.026  0.00  0.00    +0.025 C 
ATOM      3  C   UNL     1       3.667   3.015   3.592  0.00  0.00    +0.088 C 
ATOM      4  N   UNL     1       3.022   4.275   3.182  0.00  0.00    -0.298 NA
ATOM      5  C   UNL     1       2.151   4.738   4.284  0.00  0.00    +0.085 C 
ATOM      6  C   UNL     1       4.023   5.292   2.839  0.00  0.00    +0.105 C 
ENDROOT
BRANCH   3   7
ATOM      7  C   UNL     1       3.259   1.902   2.661  0.00  0.00    -0.012 A 
ATOM      8  C   UNL     1       3.919   1.719   1.460  0.00  0.00    +0.115 A 
ATOM      9  N   UNL     1       3.569   0.747   0.639  0.00  0.00    -0.263 NA
ATOM     10  C   UNL     1       2.584  -0.081   0.926  0.00  0.00    +0.111 A 
ATOM     11  C   UNL     1       1.879   0.041   2.109  0.00  0.00    +0.020 A 
ATOM     12  C   UNL     1       2.222   1.047   2.999  0.00  0.00    +0.008 A 
ENDBRANCH   3   7
TORSDOF 1
ENDMDL
MODEL 4
REMARK VINA RESULT:     0.000      4.060      5.147
REMARK INTER + INTRA:          -0.256
REMARK INTER:                   0.000
REMARK INTRA:                  -0.256
REMARK UNBOUND:                -0.256
REMARK  Name = Nicotine.pdb
REMARK  2 active torsions:
REMARK  status: ('A' for Active; 'I' for Inactive)
REMARK    1  A    between atoms: C_3  and  C_6
REMARK    2  A    between atoms: N_4  and  C_12
REMARK                            x       y       z     vdW  Elec       q    Type
REMARK                         _______ _______ _______ _____ _____    ______ ____
ROOT
ATOM      1  C   UNL     1      -0.224   5.518  -5.367  0.00  0.00    +0.017 C 
ATOM      2  C   UNL     1       0.441   4.417  -6.234  0.00  0.00    +0.025 C 
ATOM      3  C   UNL     1       1.145   3.528  -5.187  0.00  0.00    +0.088 C 
ATOM      4  N   UNL     1       1.347   4.350  -3.981  0.00  0.00    -0.298 NA
ATOM      5  C   UNL     1       0.826   5.709  -4.244  0.00  0.00    +0.085 C 
ATOM      6  C   UNL     1       0.687   3.749  -2.815  0.00  0.00    +0.105 C 
ENDROOT
BRANCH   3   7
ATOM      7  C   UNL     1       2.474   3.061  -5.721  0.00  0.00    -0.012 A 
ATOM      8  C   UNL     1       3.083   1.938  -5.194  0.00  0.00    +0.115 A 
ATOM      9  N   UNL     1       4.247   1.522  -5.656  0.00  0.00    -0.263 NA
ATOM     10  C   UNL     1       4.872   2.155  -6.629  0.00  0.00    +0.111 A 
ATOM     11  C   UNL     1       4.324   3.286  -7.205  0.00  0.00    +0.020 A 
ATOM     12  C   UNL     1       3.099   3.749  -6.749  0.00  0.00    +0.008 A 
ENDBRANCH   3   7
TORSDOF 1
ENDMDL
MODEL 5
REMARK VINA RESULT:     0.000      7.310      7.945
REMARK INTER + INTRA:          -0.256
REMARK INTER:                   0.000
REMARK INTRA:                  -0.256
REMARK UNBOUND:                -0.256
REMARK  Name = Nicotine.pdb
REMARK  2 active torsions:
REMARK  status: ('A' for Active; 'I' for Inactive)
REMARK    1  A    between atoms: C_3  and  C_6
REMARK    2  A    between atoms: N_4  and  C_12
REMARK                            x       y       z     vdW  Elec       q    Type
REMARK                         _______ _______ _______ _____ _____    ______ ____
ROOT
ATOM      1  C   UNL     1       4.821  -4.643   4.548  0.00  0.00    +0.017 C 
ATOM      2  C   UNL     1       4.446  -4.914   3.067  0.00  0.00    +0.025 C 
ATOM      3  C   UNL     1       3.564  -3.700   2.705  0.00  0.00    +0.088 C 
ATOM      4  N   UNL     1       3.033  -3.154   3.967  0.00  0.00    -0.298 NA
ATOM      5  C   UNL     1       3.525  -3.987   5.085  0.00  0.00    +0.085 C 
ATOM      6  C   UNL     1       3.430  -1.750   4.142  0.00  0.00    +0.105 C 
ENDROOT
BRANCH   3   7
ATOM      7  C   UNL     1       2.429  -4.137   1.816  0.00  0.00    -0.012 A 
ATOM      8  C   UNL     1       1.776  -3.220   1.014  0.00  0.00    +0.115 A 
ATOM      9  N   UNL     1       0.782  -3.595   0.233  0.00  0.00    -0.263 NA
ATOM     10  C   UNL     1       0.372  -4.847   0.185  0.00  0.00    +0.111 A 
ATOM     11  C   UNL     1       0.977  -5.820   0.959  0.00  0.00    +0.020 A 
ATOM     12  C   UNL     1       2.029  -5.464   1.788  0.00  0.00    +0.008 A 
ENDBRANCH   3   7
TORSDOF 1
ENDMDL
MODEL 6
REMARK VINA RESULT:     0.000      6.706      7.520
REMARK INTER + INTRA:          -0.256
REMARK INTER:                   0.000
REMARK INTRA:                  -0.256
REMARK UNBOUND:                -0.256
REMARK  Name = Nicotine.pdb
REMARK  2 active torsions:
REMARK  status: ('A' for Active; 'I' for Inactive)
REMARK    1  A    between atoms: C_3  and  C_6
REMARK    2  A    between atoms: N_4  and  C_12
REMARK                            x       y       z     vdW  Elec       q    Type
REMARK                         _______ _______ _______ _____ _____    ______ ____
ROOT
ATOM      1  C   UNL     1       9.172   1.194  -0.846  0.00  0.00    +0.017 C 
ATOM      2  C   UNL     1       7.686   1.442  -1.215  0.00  0.00    +0.025 C 
ATOM      3  C   UNL     1       7.180   0.032  -1.583  0.00  0.00    +0.088 C 
ATOM      4  N   UNL     1       8.358  -0.774  -1.949  0.00  0.00    -0.298 NA
ATOM      5  C   UNL     1       9.562   0.079  -1.848  0.00  0.00    +0.085 C 
ATOM      6  C   UNL     1       8.477  -1.957  -1.086  0.00  0.00    +0.105 C 
ENDROOT
BRANCH   3   7
ATOM      7  C   UNL     1       6.232   0.116  -2.752  0.00  0.00    -0.012 A 
ATOM      8  C   UNL     1       5.324  -0.899  -2.990  0.00  0.00    +0.115 A 
ATOM      9  N   UNL     1       4.491  -0.833  -4.011  0.00  0.00    -0.263 NA
ATOM     10  C   UNL     1       4.490   0.193  -4.839  0.00  0.00    +0.111 A 
ATOM     11  C   UNL     1       5.369   1.245  -4.663  0.00  0.00    +0.020 A 
ATOM     12  C   UNL     1       6.256   1.214  -3.598  0.00  0.00    +0.008 A 
ENDBRANCH   3   7
TORSDOF 1
ENDMDL
MODEL 7
REMARK VINA RESULT:     0.000      4.885      6.596
REMARK INTER + INTRA:          -0.256
REMARK INTER:                   0.000
REMARK INTRA:                  -0.256
REMARK UNBOUND:                -0.256
REMARK  Name = Nicotine.pdb
REMARK  2 active torsions:
REMARK  status: ('A' for Active; 'I' for Inactive)
REMARK    1  A    between atoms: C_3  and  C_6
REMARK    2  A    between atoms: N_4  and  C_12
REMARK                            x       y       z     vdW  Elec       q    Type
REMARK                         _______ _______ _______ _____ _____    ______ ____
ROOT
ATOM      1  C   UNL     1       0.418  -2.575   0.846  0.00  0.00    +0.017 C 
ATOM      2  C   UNL     1       1.888  -2.113   0.662  0.00  0.00    +0.025 C 
ATOM      3  C   UNL     1       2.160  -1.300   1.945  0.00  0.00    +0.088 C 
ATOM      4  N   UNL     1       0.854  -0.867   2.473  0.00  0.00    -0.298 NA
ATOM      5  C   UNL     1      -0.206  -1.352   1.564  0.00  0.00    +0.085 C 
ATOM      6  C   UNL     1       0.646  -1.365   3.839  0.00  0.00    +0.105 C 
ENDROOT
BRANCH   3   7
ATOM      7  C   UNL     1       3.008  -0.098   1.620  0.00  0.00    -0.012 A 
ATOM      8  C   UNL     1       3.743   0.528   2.610  0.00  0.00    +0.115 A 
ATOM      9  N   UNL     1       4.488   1.580   2.334  0.00  0.00    -0.263 NA
ATOM     10  C   UNL     1       4.562   2.076   1.115  0.00  0.00    +0.111 A 
ATOM     11  C   UNL     1       3.856   1.503   0.074  0.00  0.00    +0.020 A 
ATOM     12  C   UNL     1       3.066   0.392   0.325  0.00  0.00    +0.008 A 
ENDBRANCH   3   7
TORSDOF 1
ENDMDL
MODEL 8
REMARK VINA RESULT:     0.000      2.256      3.409
REMARK INTER + INTRA:          -0.256
REMARK INTER:                   0.000
REMARK INTRA:                  -0.256
REMARK UNBOUND:                -0.256
REMARK  Name = Nicotine.pdb
REMARK  2 active torsions:
REMARK  status: ('A' for Active; 'I' for Inactive)
REMARK    1  A    between atoms: C_3  and  C_6
REMARK    2  A    between atoms: N_4  and  C_12
REMARK                            x       y       z     vdW  Elec       q    Type
REMARK                         _______ _______ _______ _____ _____    ______ ____
ROOT
ATOM      1  C   UNL     1       1.878   0.334  -1.609  0.00  0.00    +0.017 C 
ATOM      2  C   UNL     1       0.626  -0.557  -1.399  0.00  0.00    +0.025 C 
ATOM      3  C   UNL     1       0.661  -1.498  -2.622  0.00  0.00    +0.088 C 
ATOM      4  N   UNL     1       1.462  -0.830  -3.664  0.00  0.00    -0.298 NA
ATOM      5  C   UNL     1       1.900   0.485  -3.150  0.00  0.00    +0.085 C 
ATOM      6  C   UNL     1       2.614  -1.655  -4.052  0.00  0.00    +0.105 C 
ENDROOT
BRANCH   3   7
ATOM      7  C   UNL     1      -0.739  -1.737  -3.125  0.00  0.00    -0.012 A 
ATOM      8  C   UNL     1      -1.025  -2.847  -3.897  0.00  0.00    +0.115 A 
ATOM      9  N   UNL     1      -2.247  -3.064  -4.341  0.00  0.00    -0.263 NA
ATOM     10  C   UNL     1      -3.239  -2.239  -4.070  0.00  0.00    +0.111 A 
ATOM     11  C   UNL     1      -3.030  -1.108  -3.303  0.00  0.00    +0.020 A 
ATOM     12  C   UNL     1      -1.758  -0.850  -2.814  0.00  0.00    +0.008 A 
ENDBRANCH   3   7
TORSDOF 1
ENDMDL
MODEL 9
REMARK VINA RESULT:     0.000      4.325      5.918
REMARK INTER + INTRA:          -0.256
REMARK INTER:                   0.000
REMARK INTRA:                  -0.256
REMARK UNBOUND:                -0.256
REMARK  Name = Nicotine.pdb
REMARK  2 active torsions:
REMARK  status: ('A' for Active; 'I' for Inactive)
REMARK    1  A    between atoms: C_3  and  C_6
REMARK    2  A    between atoms: N_4  and  C_12
REMARK                            x       y       z     vdW  Elec       q    Type
REMARK                         _______ _______ _______ _____ _____    ______ ____
ROOT
ATOM      1  C   UNL     1       2.290   0.109   2.859  0.00  0.00    +0.017 C 
ATOM      2  C   UNL     1       1.185   0.334   1.793  0.00  0.00    +0.025 C 
ATOM      3  C   UNL     1       1.855   1.306   0.798  0.00  0.00    +0.088 C 
ATOM      4  N   UNL     1       2.942   1.991   1.521  0.00  0.00    -0.298 NA
ATOM      5  C   UNL     1       2.957   1.506   2.918  0.00  0.00    +0.085 C 
ATOM      6  C   UNL     1       4.237   1.758   0.869  0.00  0.00    +0.105 C 
ENDROOT
BRANCH   3   7
ATOM      7  C   UNL     1       0.848   2.314   0.310  0.00  0.00    -0.012 A 
ATOM      8  C   UNL     1       1.057   2.992  -0.876  0.00  0.00    +0.115 A 
ATOM      9  N   UNL     1       0.180   3.876  -1.311  0.00  0.00    -0.263 NA
ATOM     10  C   UNL     1      -0.922   4.148  -0.640  0.00  0.00    +0.111 A 
ATOM     11  C   UNL     1      -1.199   3.509   0.554  0.00  0.00    +0.020 A 
ATOM     12  C   UNL     1      -0.303   2.569   1.040  0.00  0.00    +0.008 A 
ENDBRANCH   3   7
TORSDOF 1
ENDMDL
MODEL 10
REMARK VINA RESULT:     0.000      5.630      6.967
REMARK INTER + INTRA:          -0.256
REMARK INTER:                   0.000
REMARK INTRA:                  -0.256
REMARK UNBOUND:                -0.256
REMARK  Name = Nicotine.pdb
REMARK  2 active torsions:
REMARK  status: ('A' for Active; 'I' for Inactive)
REMARK    1  A    between atoms: C_3  and  C_6
REMARK    2  A    between atoms: N_4  and  C_12
REMARK                            x       y       z     vdW  Elec       q    Type
REMARK                         _______ _______ _______ _____ _____    ______ ____
ROOT
ATOM      1  C   UNL     1       3.108  -0.810  -6.754  0.00  0.00    +0.017 C 
ATOM      2  C   UNL     1       3.905  -1.800  -5.866  0.00  0.00    +0.025 C 
ATOM      3  C   UNL     1       4.612  -0.870  -4.857  0.00  0.00    +0.088 C 
ATOM      4  N   UNL     1       4.679   0.469  -5.470  0.00  0.00    -0.298 NA
ATOM      5  C   UNL     1       4.072   0.401  -6.816  0.00  0.00    +0.085 C 
ATOM      6  C   UNL     1       3.998   1.466  -4.634  0.00  0.00    +0.105 C 
ENDROOT
BRANCH   3   7
ATOM      7  C   UNL     1       6.002  -1.378  -4.577  0.00  0.00    -0.012 A 
ATOM      8  C   UNL     1       6.663  -1.006  -3.422  0.00  0.00    +0.115 A 
ATOM      9  N   UNL     1       7.881  -1.446  -3.170  0.00  0.00    -0.263 NA
ATOM     10  C   UNL     1       8.512  -2.251  -4.001  0.00  0.00    +0.111 A 
ATOM     11  C   UNL     1       7.914  -2.667  -5.176  0.00  0.00    +0.020 A 
ATOM     12  C   UNL     1       6.633  -2.229  -5.472  0.00  0.00    +0.008 A 
ENDBRANCH   3   7
TORSDOF 1
ENDMDL
