MODEL 1
REMARK VINA RESULT:    -2.712      0.000      0.000
REMARK INTER + INTRA:          -3.079
REMARK INTER:                  -2.871
REMARK INTRA:                  -0.208
REMARK UNBOUND:                -0.208
REMARK  Name = Nicotine.pdb
REMARK  2 active torsions:
REMARK  status: ('A' for Active; 'I' for Inactive)
REMARK    1  A    between atoms: C_3  and  C_6
REMARK    2  A    between atoms: N_4  and  C_12
REMARK                            x       y       z     vdW  Elec       q    Type
REMARK                         _______ _______ _______ _____ _____    ______ ____
ROOT
ATOM      1  C   UNL     1      10.517  -4.070   2.161  0.00  0.00    +0.017 C 
ATOM      2  C   UNL     1       9.880  -3.258   1.003  0.00  0.00    +0.025 C 
ATOM      3  C   UNL     1       8.552  -4.003   0.747  0.00  0.00    +0.088 C 
ATOM      4  N   UNL     1       8.712  -5.373   1.268  0.00  0.00    -0.298 NA
ATOM      5  C   UNL     1      10.081  -5.514   1.808  0.00  0.00    +0.085 C 
ATOM      6  C   UNL     1       7.706  -5.666   2.296  0.00  0.00    +0.105 C 
ENDROOT
BRANCH   3   7
ATOM      7  C   UNL     1       8.265  -4.046  -0.732  0.00  0.00    -0.012 A 
ATOM      8  C   UNL     1       8.262  -2.882  -1.477  0.00  0.00    +0.115 A 
ATOM      9  N   UNL     1       8.012  -2.911  -2.772  0.00  0.00    -0.263 NA
ATOM     10  C   UNL     1       7.757  -4.039  -3.404  0.00  0.00    +0.111 A 
ATOM     11  C   UNL     1       7.744  -5.243  -2.724  0.00  0.00    +0.020 A 
ATOM     12  C   UNL     1       8.007  -5.253  -1.363  0.00  0.00    +0.008 A 
ENDBRANCH   3   7
TORSDOF 1
ENDMDL
MODEL 2
REMARK VINA RESULT:    -2.621     11.541     13.785
REMARK INTER + INTRA:          -2.982
REMARK INTER:                  -2.744
REMARK INTRA:                  -0.238
REMARK UNBOUND:                -0.208
REMARK  Name = Nicotine.pdb
REMARK  2 active torsions:
REMARK  status: ('A' for Active; 'I' for Inactive)
REMARK    1  A    between atoms: C_3  and  C_6
REMARK    2  A    between atoms: N_4  and  C_12
REMARK                            x       y       z     vdW  Elec       q    Type
REMARK                         _______ _______ _______ _____ _____    ______ ____
ROOT
ATOM      1  C   UNL     1      -1.900   4.064  -6.336  0.00  0.00    +0.017 C 
ATOM      2  C   UNL     1      -1.258   3.999  -4.925  0.00  0.00    +0.025 C 
ATOM      3  C   UNL     1      -0.395   5.278  -4.877  0.00  0.00    +0.088 C 
ATOM      4  N   UNL     1      -0.123   5.673  -6.271  0.00  0.00    -0.298 NA
ATOM      5  C   UNL     1      -0.755   4.686  -7.172  0.00  0.00    +0.085 C 
ATOM      6  C   UNL     1      -0.620   7.028  -6.542  0.00  0.00    +0.105 C 
ENDROOT
BRANCH   3   7
ATOM      7  C   UNL     1       0.900   4.996  -4.161  0.00  0.00    -0.012 A 
ATOM      8  C   UNL     1       1.357   5.856  -3.179  0.00  0.00    +0.115 A 
ATOM      9  N   UNL     1       2.489   5.616  -2.547  0.00  0.00    -0.263 NA
ATOM     10  C   UNL     1       3.226   4.558  -2.822  0.00  0.00    +0.111 A 
ATOM     11  C   UNL     1       2.833   3.654  -3.790  0.00  0.00    +0.020 A 
ATOM     12  C   UNL     1       1.645   3.869  -4.472  0.00  0.00    +0.008 A 
ENDBRANCH   3   7
TORSDOF 1
ENDMDL
MODEL 3
REMARK VINA RESULT:    -2.608      2.047      4.570
REMARK INTER + INTRA:          -2.968
REMARK INTER:                  -2.756
REMARK INTRA:                  -0.213
REMARK UNBOUND:                -0.208
REMARK  Name = Nicotine.pdb
REMARK  2 active torsions:
REMARK  status: ('A' for Active; 'I' for Inactive)
REMARK    1  A    between atoms: C_3  and  C_6
REMARK    2  A    between atoms: N_4  and  C_12
REMARK                            x       y       z     vdW  Elec       q    Type
REMARK                         _______ _______ _______ _____ _____    ______ ____
ROOT
ATOM      1  C   UNL     1       7.565  -5.454  -2.684  0.00  0.00    +0.017 C 
ATOM      2  C   UNL     1       8.256  -4.942  -1.393  0.00  0.00    +0.025 C 
ATOM      3  C   UNL     1       7.792  -3.472  -1.310  0.00  0.00    +0.088 C 
ATOM      4  N   UNL     1       7.399  -3.061  -2.669  0.00  0.00    -0.298 NA
ATOM      5  C   UNL     1       7.622  -4.197  -3.589  0.00  0.00    +0.085 C 
ATOM      6  C   UNL     1       5.997  -2.623  -2.703  0.00  0.00    +0.105 C 
ENDROOT
BRANCH   3   7
ATOM      7  C   UNL     1       8.922  -2.605  -0.817  0.00  0.00    -0.012 A 
ATOM      8  C   UNL     1       9.376  -2.722   0.483  0.00  0.00    +0.115 A 
ATOM      9  N   UNL     1      10.364  -1.966   0.922  0.00  0.00    -0.263 NA
ATOM     10  C   UNL     1      10.954  -1.077   0.148  0.00  0.00    +0.111 A 
ATOM     11  C   UNL     1      10.553  -0.904  -1.164  0.00  0.00    +0.020 A 
ATOM     12  C   UNL     1       9.521  -1.684  -1.662  0.00  0.00    +0.008 A 
ENDBRANCH   3   7
TORSDOF 1
ENDMDL
MODEL 4
REMARK VINA RESULT:    -2.543     11.387     12.808
REMARK INTER + INTRA:          -2.900
REMARK INTER:                  -2.644
REMARK INTRA:                  -0.256
REMARK UNBOUND:                -0.208
REMARK  Name = Nicotine.pdb
REMARK  2 active torsions:
REMARK  status: ('A' for Active; 'I' for Inactive)
REMARK    1  A    between atoms: C_3  and  C_6
REMARK    2  A    between atoms: N_4  and  C_12
REMARK                            x       y       z     vdW  Elec       q    Type
REMARK                         _______ _______ _______ _____ _____    ______ ____
ROOT
ATOM      1  C   UNL     1       1.389   5.867   1.377  0.00  0.00    +0.017 C 
ATOM      2  C   UNL     1       0.544   5.448   0.145  0.00  0.00    +0.025 C 
ATOM      3  C   UNL     1       1.613   5.206  -0.942  0.00  0.00    +0.088 C 
ATOM      4  N   UNL     1       2.815   5.962  -0.549  0.00  0.00    -0.298 NA
ATOM      5  C   UNL     1       2.531   6.677   0.713  0.00  0.00    +0.085 C 
ATOM      6  C   UNL     1       3.973   5.071  -0.400  0.00  0.00    +0.105 C 
ENDROOT
BRANCH   3   7
ATOM      7  C   UNL     1       1.109   5.699  -2.274  0.00  0.00    -0.012 A 
ATOM      8  C   UNL     1       1.693   5.261  -3.448  0.00  0.00    +0.115 A 
ATOM      9  N   UNL     1       1.258   5.686  -4.618  0.00  0.00    -0.263 NA
ATOM     10  C   UNL     1       0.258   6.540  -4.717  0.00  0.00    +0.111 A 
ATOM     11  C   UNL     1      -0.376   7.021  -3.586  0.00  0.00    +0.020 A 
ATOM     12  C   UNL     1       0.050   6.592  -2.339  0.00  0.00    +0.008 A 
ENDBRANCH   3   7
TORSDOF 1
ENDMDL
MODEL 5
REMARK VINA RESULT:    -2.497     10.138     12.197
REMARK INTER + INTRA:          -2.852
REMARK INTER:                  -2.604
REMARK INTRA:                  -0.248
REMARK UNBOUND:                -0.208
REMARK  Name = Nicotine.pdb
REMARK  2 active torsions:
REMARK  status: ('A' for Active; 'I' for Inactive)
REMARK    1  A    between atoms: C_3  and  C_6
REMARK    2  A    between atoms: N_4  and  C_12
REMARK                            x       y       z     vdW  Elec       q    Type
REMARK                         _______ _______ _______ _____ _____    ______ ____
ROOT
ATOM      1  C   UNL     1      -0.086   5.636  -4.775  0.00  0.00    +0.017 C 
ATOM      2  C   UNL     1       0.757   4.413  -4.325  0.00  0.00    +0.025 C 
ATOM      3  C   UNL     1       1.284   4.846  -2.940  0.00  0.00    +0.088 C 
ATOM      4  N   UNL     1       1.240   6.318  -2.896  0.00  0.00    -0.298 NA
ATOM      5  C   UNL     1       0.737   6.813  -4.195  0.00  0.00    +0.085 C 
ATOM      6  C   UNL     1       0.396   6.788  -1.790  0.00  0.00    +0.105 C 
ENDROOT
BRANCH   3   7
ATOM      7  C   UNL     1       2.701   4.367  -2.758  0.00  0.00    -0.012 A 
ATOM      8  C   UNL     1       3.343   4.530  -1.545  0.00  0.00    +0.115 A 
ATOM      9  N   UNL     1       4.584   4.114  -1.378  0.00  0.00    -0.263 NA
ATOM     10  C   UNL     1       5.257   3.532  -2.350  0.00  0.00    +0.111 A 
ATOM     11  C   UNL     1       4.679   3.335  -3.591  0.00  0.00    +0.020 A 
ATOM     12  C   UNL     1       3.375   3.754  -3.803  0.00  0.00    +0.008 A 
ENDBRANCH   3   7
TORSDOF 1
ENDMDL
MODEL 6
REMARK VINA RESULT:    -2.471      6.367      8.718
REMARK INTER + INTRA:          -2.824
REMARK INTER:                  -2.602
REMARK INTRA:                  -0.222
REMARK UNBOUND:                -0.208
REMARK  Name = Nicotine.pdb
REMARK  2 active torsions:
REMARK  status: ('A' for Active; 'I' for Inactive)
REMARK    1  A    between atoms: C_3  and  C_6
REMARK    2  A    between atoms: N_4  and  C_12
REMARK                            x       y       z     vdW  Elec       q    Type
REMARK                         _______ _______ _______ _____ _____    ______ ____
ROOT
ATOM      1  C   UNL     1       7.199  -0.693  -6.442  0.00  0.00    +0.017 C 
ATOM      2  C   UNL     1       8.255   0.430  -6.617  0.00  0.00    +0.025 C 
ATOM      3  C   UNL     1       8.445   0.955  -5.178  0.00  0.00    +0.088 C 
ATOM      4  N   UNL     1       7.236   0.593  -4.417  0.00  0.00    -0.298 NA
ATOM      5  C   UNL     1       6.300  -0.106  -5.324  0.00  0.00    +0.085 C 
ATOM      6  C   UNL     1       7.572  -0.246  -3.259  0.00  0.00    +0.105 C 
ENDROOT
BRANCH   3   7
ATOM      7  C   UNL     1       8.612   2.452  -5.196  0.00  0.00    -0.012 A 
ATOM      8  C   UNL     1       7.854   3.250  -4.361  0.00  0.00    +0.115 A 
ATOM      9  N   UNL     1       7.994   4.561  -4.371  0.00  0.00    -0.263 NA
ATOM     10  C   UNL     1       8.854   5.161  -5.170  0.00  0.00    +0.111 A 
ATOM     11  C   UNL     1       9.648   4.428  -6.032  0.00  0.00    +0.020 A 
ATOM     12  C   UNL     1       9.532   3.046  -6.046  0.00  0.00    +0.008 A 
ENDBRANCH   3   7
TORSDOF 1
ENDMDL
MODEL 7
REMARK VINA RESULT:    -2.455      3.306      4.687
REMARK INTER + INTRA:          -2.807
REMARK INTER:                  -2.608
REMARK INTRA:                  -0.199
REMARK UNBOUND:                -0.208
REMARK  Name = Nicotine.pdb
REMARK  2 active torsions:
REMARK  status: ('A' for Active; 'I' for Inactive)
REMARK    1  A    between atoms: C_3  and  C_6
REMARK    2  A    between atoms: N_4  and  C_12
REMARK                            x       y       z     vdW  Elec       q    Type
REMARK                         _______ _______ _______ _____ _____    ______ ____
ROOT
ATOM      1  C   UNL     1       7.886  -5.329  -1.879  0.00  0.00    +0.017 C 
ATOM      2  C   UNL     1       8.151  -3.999  -2.633  0.00  0.00    +0.025 C 
ATOM      3  C   UNL     1       6.780  -3.680  -3.267  0.00  0.00    +0.088 C 
ATOM      4  N   UNL     1       6.034  -4.948  -3.355  0.00  0.00    -0.298 NA
ATOM      5  C   UNL     1       6.888  -6.035  -2.831  0.00  0.00    +0.085 C 
ATOM      6  C   UNL     1       4.768  -4.868  -2.614  0.00  0.00    +0.105 C 
ENDROOT
BRANCH   3   7
ATOM      7  C   UNL     1       6.974  -3.101  -4.644  0.00  0.00    -0.012 A 
ATOM      8  C   UNL     1       6.726  -1.762  -4.880  0.00  0.00    +0.115 A 
ATOM      9  N   UNL     1       6.893  -1.247  -6.083  0.00  0.00    -0.263 NA
ATOM     10  C   UNL     1       7.300  -1.980  -7.100  0.00  0.00    +0.111 A 
ATOM     11  C   UNL     1       7.568  -3.327  -6.940  0.00  0.00    +0.020 A 
ATOM     12  C   UNL     1       7.408  -3.902  -5.689  0.00  0.00    +0.008 A 
ENDBRANCH   3   7
TORSDOF 1
ENDMDL
MODEL 8
REMARK VINA RESULT:    -2.453      2.546      6.165
REMARK INTER + INTRA:          -2.805
REMARK INTER:                  -2.600
REMARK INTRA:                  -0.205
REMARK UNBOUND:                -0.208
REMARK  Name = Nicotine.pdb
REMARK  2 active torsions:
REMARK  status: ('A' for Active; 'I' for Inactive)
REMARK    1  A    between atoms: C_3  and  C_6
REMARK    2  A    between atoms: N_4  and  C_12
REMARK                            x       y       z     vdW  Elec       q    Type
REMARK                         _______ _______ _______ _____ _____    ______ ____
ROOT
ATOM      1  C   UNL     1       6.743  -5.139  -7.001  0.00  0.00    +0.017 C 
ATOM      2  C   UNL     1       6.370  -5.660  -5.588  0.00  0.00    +0.025 C 
ATOM      3  C   UNL     1       6.308  -4.368  -4.747  0.00  0.00    +0.088 C 
ATOM      4  N   UNL     1       7.118  -3.353  -5.444  0.00  0.00    -0.298 NA
ATOM      5  C   UNL     1       7.695  -3.966  -6.660  0.00  0.00    +0.085 C 
ATOM      6  C   UNL     1       6.310  -2.174  -5.781  0.00  0.00    +0.105 C 
ENDROOT
BRANCH   3   7
ATOM      7  C   UNL     1       6.873  -4.622  -3.374  0.00  0.00    -0.012 A 
ATOM      8  C   UNL     1       6.437  -5.699  -2.626  0.00  0.00    +0.115 A 
ATOM      9  N   UNL     1       6.927  -5.929  -1.424  0.00  0.00    -0.263 NA
ATOM     10  C   UNL     1       7.845  -5.149  -0.889  0.00  0.00    +0.111 A 
ATOM     11  C   UNL     1       8.330  -4.053  -1.577  0.00  0.00    +0.020 A 
ATOM     12  C   UNL     1       7.842  -3.782  -2.846  0.00  0.00    +0.008 A 
ENDBRANCH   3   7
TORSDOF 1
ENDMDL
MODEL 9
REMARK VINA RESULT:    -2.370      1.317      4.420
REMARK INTER + INTRA:          -2.717
REMARK INTER:                  -2.494
REMARK INTRA:                  -0.223
REMARK UNBOUND:                -0.208
REMARK  Name = Nicotine.pdb
REMARK  2 active torsions:
REMARK  status: ('A' for Active; 'I' for Inactive)
REMARK    1  A    between atoms: C_3  and  C_6
REMARK    2  A    between atoms: N_4  and  C_12
REMARK                            x       y       z     vdW  Elec       q    Type
REMARK                         _______ _______ _______ _____ _____    ______ ____
ROOT
ATOM      1  C   UNL     1       7.826  -4.527  -2.751  0.00  0.00    +0.017 C 
ATOM      2  C   UNL     1       8.331  -5.246  -1.472  0.00  0.00    +0.025 C 
ATOM      3  C   UNL     1       7.926  -4.273  -0.345  0.00  0.00    +0.088 C 
ATOM      4  N   UNL     1       7.767  -2.940  -0.954  0.00  0.00    -0.298 NA
ATOM      5  C   UNL     1       8.079  -3.041  -2.396  0.00  0.00    +0.085 C 
ATOM      6  C   UNL     1       6.409  -2.423  -0.744  0.00  0.00    +0.105 C 
ENDROOT
BRANCH   3   7
ATOM      7  C   UNL     1       9.003  -4.232   0.708  0.00  0.00    -0.012 A 
ATOM      8  C   UNL     1       9.611  -3.036   1.040  0.00  0.00    +0.115 A 
ATOM      9  N   UNL     1      10.555  -2.991   1.960  0.00  0.00    -0.263 NA
ATOM     10  C   UNL     1      10.954  -4.074   2.596  0.00  0.00    +0.111 A 
ATOM     11  C   UNL     1      10.391  -5.306   2.319  0.00  0.00    +0.020 A 
ATOM     12  C   UNL     1       9.393  -5.391   1.361  0.00  0.00    +0.008 A 
ENDBRANCH   3   7
TORSDOF 1
ENDMDL
MODEL 10
REMARK VINA RESULT:    -2.367      2.447      6.080
REMARK INTER + INTRA:          -2.713
REMARK INTER:                  -2.517
REMARK INTRA:                  -0.196
REMARK UNBOUND:                -0.208
REMARK  Name = Nicotine.pdb
REMARK  2 active torsions:
REMARK  status: ('A' for Active; 'I' for Inactive)
REMARK    1  A    between atoms: C_3  and  C_6
REMARK    2  A    between atoms: N_4  and  C_12
REMARK                            x       y       z     vdW  Elec       q    Type
REMARK                         _______ _______ _______ _____ _____    ______ ____
ROOT
ATOM      1  C   UNL     1       4.867  -4.198  -6.202  0.00  0.00    +0.017 C 
ATOM      2  C   UNL     1       5.241  -3.552  -4.842  0.00  0.00    +0.025 C 
ATOM      3  C   UNL     1       6.780  -3.460  -4.913  0.00  0.00    +0.088 C 
ATOM      4  N   UNL     1       7.232  -4.457  -5.899  0.00  0.00    -0.298 NA
ATOM      5  C   UNL     1       6.049  -5.175  -6.420  0.00  0.00    +0.085 C 
ATOM      6  C   UNL     1       7.983  -3.819  -6.988  0.00  0.00    +0.105 C 
ENDROOT
BRANCH   3   7
ATOM      7  C   UNL     1       7.374  -3.766  -3.563  0.00  0.00    -0.012 A 
ATOM      8  C   UNL     1       7.874  -2.749  -2.772  0.00  0.00    +0.115 A 
ATOM      9  N   UNL     1       8.396  -3.008  -1.589  0.00  0.00    -0.263 NA
ATOM     10  C   UNL     1       8.462  -4.237  -1.115  0.00  0.00    +0.111 A 
ATOM     11  C   UNL     1       7.982  -5.305  -1.849  0.00  0.00    +0.020 A 
ATOM     12  C   UNL     1       7.422  -5.071  -3.095  0.00  0.00    +0.008 A 
ENDBRANCH   3   7
TORSDOF 1
ENDMDL
