MODEL 1
REMARK VINA RESULT:    -4.950      0.000      0.000
REMARK INTER + INTRA:          -5.452
REMARK INTER:                  -5.240
REMARK INTRA:                  -0.212
REMARK UNBOUND:                -0.212
REMARK  Name = Nicotine.pdb
REMARK  2 active torsions:
REMARK  status: ('A' for Active; 'I' for Inactive)
REMARK    1  A    between atoms: C_3  and  C_6
REMARK    2  A    between atoms: N_4  and  C_12
REMARK                            x       y       z     vdW  Elec       q    Type
REMARK                         _______ _______ _______ _____ _____    ______ ____
ROOT
ATOM      1  C   UNL     1       1.990   5.150   5.914  0.00  0.00    +0.017 C 
ATOM      2  C   UNL     1       0.673   4.401   6.244  0.00  0.00    +0.025 C 
ATOM      3  C   UNL     1      -0.186   4.636   4.983  0.00  0.00    +0.088 C 
ATOM      4  N   UNL     1       0.341   5.840   4.314  0.00  0.00    -0.298 NA
ATOM      5  C   UNL     1       1.465   6.369   5.116  0.00  0.00    +0.085 C 
ATOM      6  C   UNL     1       0.769   5.536   2.943  0.00  0.00    +0.105 C 
ENDROOT
BRANCH   3   7
ATOM      7  C   UNL     1      -1.624   4.855   5.376  0.00  0.00    -0.012 A 
ATOM      8  C   UNL     1      -2.209   6.098   5.223  0.00  0.00    +0.115 A 
ATOM      9  N   UNL     1      -3.467   6.297   5.564  0.00  0.00    -0.263 NA
ATOM     10  C   UNL     1      -4.213   5.330   6.060  0.00  0.00    +0.111 A 
ATOM     11  C   UNL     1      -3.696   4.060   6.241  0.00  0.00    +0.020 A 
ATOM     12  C   UNL     1      -2.379   3.811   5.889  0.00  0.00    +0.008 A 
ENDBRANCH   3   7
TORSDOF 1
ENDMDL
MODEL 2
REMARK VINA RESULT:    -4.572     11.923     13.015
REMARK INTER + INTRA:          -5.052
REMARK INTER:                  -4.859
REMARK INTRA:                  -0.193
REMARK UNBOUND:                -0.212
REMARK  Name = Nicotine.pdb
REMARK  2 active torsions:
REMARK  status: ('A' for Active; 'I' for Inactive)
REMARK    1  A    between atoms: C_3  and  C_6
REMARK    2  A    between atoms: N_4  and  C_12
REMARK                            x       y       z     vdW  Elec       q    Type
REMARK                         _______ _______ _______ _____ _____    ______ ____
ROOT
ATOM      1  C   UNL     1       8.216  -6.097   1.194  0.00  0.00    +0.017 C 
ATOM      2  C   UNL     1       7.068  -5.948   0.161  0.00  0.00    +0.025 C 
ATOM      3  C   UNL     1       6.348  -4.664   0.625  0.00  0.00    +0.088 C 
ATOM      4  N   UNL     1       6.675  -4.470   2.049  0.00  0.00    -0.298 NA
ATOM      5  C   UNL     1       7.539  -5.585   2.490  0.00  0.00    +0.085 C 
ATOM      6  C   UNL     1       7.333  -3.175   2.267  0.00  0.00    +0.105 C 
ENDROOT
BRANCH   3   7
ATOM      7  C   UNL     1       4.859  -4.820   0.455  0.00  0.00    -0.012 A 
ATOM      8  C   UNL     1       4.210  -5.928   0.967  0.00  0.00    +0.115 A 
ATOM      9  N   UNL     1       2.907  -6.073   0.823  0.00  0.00    -0.263 NA
ATOM     10  C   UNL     1       2.176  -5.177   0.192  0.00  0.00    +0.111 A 
ATOM     11  C   UNL     1       2.755  -4.042  -0.346  0.00  0.00    +0.020 A 
ATOM     12  C   UNL     1       4.122  -3.853  -0.210  0.00  0.00    +0.008 A 
ENDBRANCH   3   7
TORSDOF 1
ENDMDL
MODEL 3
REMARK VINA RESULT:    -4.263     12.106     13.775
REMARK INTER + INTRA:          -4.724
REMARK INTER:                  -4.511
REMARK INTRA:                  -0.213
REMARK UNBOUND:                -0.212
REMARK  Name = Nicotine.pdb
REMARK  2 active torsions:
REMARK  status: ('A' for Active; 'I' for Inactive)
REMARK    1  A    between atoms: C_3  and  C_6
REMARK    2  A    between atoms: N_4  and  C_12
REMARK                            x       y       z     vdW  Elec       q    Type
REMARK                         _______ _______ _______ _____ _____    ______ ____
ROOT
ATOM      1  C   UNL     1      10.286  -2.521   3.515  0.00  0.00    +0.017 C 
ATOM      2  C   UNL     1       9.691  -2.749   2.101  0.00  0.00    +0.025 C 
ATOM      3  C   UNL     1       8.210  -3.069   2.395  0.00  0.00    +0.088 C 
ATOM      4  N   UNL     1       8.134  -3.545   3.788  0.00  0.00    -0.298 NA
ATOM      5  C   UNL     1       9.499  -3.556   4.357  0.00  0.00    +0.085 C 
ATOM      6  C   UNL     1       7.238  -2.698   4.586  0.00  0.00    +0.105 C 
ENDROOT
BRANCH   3   7
ATOM      7  C   UNL     1       7.722  -4.144   1.458  0.00  0.00    -0.012 A 
ATOM      8  C   UNL     1       8.618  -4.851   0.679  0.00  0.00    +0.115 A 
ATOM      9  N   UNL     1       8.199  -5.793  -0.144  0.00  0.00    -0.263 NA
ATOM     10  C   UNL     1       6.921  -6.097  -0.257  0.00  0.00    +0.111 A 
ATOM     11  C   UNL     1       5.967  -5.432   0.491  0.00  0.00    +0.020 A 
ATOM     12  C   UNL     1       6.370  -4.439   1.371  0.00  0.00    +0.008 A 
ENDBRANCH   3   7
TORSDOF 1
ENDMDL
MODEL 4
REMARK VINA RESULT:    -4.046     12.429     14.078
REMARK INTER + INTRA:          -4.494
REMARK INTER:                  -4.288
REMARK INTRA:                  -0.206
REMARK UNBOUND:                -0.212
REMARK  Name = Nicotine.pdb
REMARK  2 active torsions:
REMARK  status: ('A' for Active; 'I' for Inactive)
REMARK    1  A    between atoms: C_3  and  C_6
REMARK    2  A    between atoms: N_4  and  C_12
REMARK                            x       y       z     vdW  Elec       q    Type
REMARK                         _______ _______ _______ _____ _____    ______ ____
ROOT
ATOM      1  C   UNL     1       2.726  -5.290  -1.712  0.00  0.00    +0.017 C 
ATOM      2  C   UNL     1       4.193  -5.792  -1.648  0.00  0.00    +0.025 C 
ATOM      3  C   UNL     1       4.404  -6.052  -0.141  0.00  0.00    +0.088 C 
ATOM      4  N   UNL     1       3.410  -5.243   0.586  0.00  0.00    -0.298 NA
ATOM      5  C   UNL     1       2.615  -4.478  -0.398  0.00  0.00    +0.085 C 
ATOM      6  C   UNL     1       2.546  -6.090   1.417  0.00  0.00    +0.105 C 
ENDROOT
BRANCH   3   7
ATOM      7  C   UNL     1       5.797  -5.639   0.260  0.00  0.00    -0.012 A 
ATOM      8  C   UNL     1       6.893  -6.097  -0.447  0.00  0.00    +0.115 A 
ATOM      9  N   UNL     1       8.115  -5.740  -0.102  0.00  0.00    -0.263 NA
ATOM     10  C   UNL     1       8.341  -4.939   0.921  0.00  0.00    +0.111 A 
ATOM     11  C   UNL     1       7.294  -4.441   1.674  0.00  0.00    +0.020 A 
ATOM     12  C   UNL     1       5.995  -4.790   1.338  0.00  0.00    +0.008 A 
ENDBRANCH   3   7
TORSDOF 1
ENDMDL
MODEL 5
REMARK VINA RESULT:    -3.967     12.912     14.055
REMARK INTER + INTRA:          -4.411
REMARK INTER:                  -4.156
REMARK INTRA:                  -0.255
REMARK UNBOUND:                -0.212
REMARK  Name = Nicotine.pdb
REMARK  2 active torsions:
REMARK  status: ('A' for Active; 'I' for Inactive)
REMARK    1  A    between atoms: C_3  and  C_6
REMARK    2  A    between atoms: N_4  and  C_12
REMARK                            x       y       z     vdW  Elec       q    Type
REMARK                         _______ _______ _______ _____ _____    ______ ____
ROOT
ATOM      1  C   UNL     1      10.827  -3.028   2.594  0.00  0.00    +0.017 C 
ATOM      2  C   UNL     1       9.755  -3.059   1.472  0.00  0.00    +0.025 C 
ATOM      3  C   UNL     1       8.475  -3.477   2.226  0.00  0.00    +0.088 C 
ATOM      4  N   UNL     1       8.900  -4.164   3.460  0.00  0.00    -0.298 NA
ATOM      5  C   UNL     1      10.377  -4.211   3.488  0.00  0.00    +0.085 C 
ATOM      6  C   UNL     1       8.371  -3.486   4.650  0.00  0.00    +0.105 C 
ENDROOT
BRANCH   3   7
ATOM      7  C   UNL     1       7.660  -4.413   1.372  0.00  0.00    -0.012 A 
ATOM      8  C   UNL     1       6.283  -4.443   1.486  0.00  0.00    +0.115 A 
ATOM      9  N   UNL     1       5.561  -5.258   0.742  0.00  0.00    -0.263 NA
ATOM     10  C   UNL     1       6.117  -6.071  -0.134  0.00  0.00    +0.111 A 
ATOM     11  C   UNL     1       7.489  -6.097  -0.304  0.00  0.00    +0.020 A 
ATOM     12  C   UNL     1       8.280  -5.250   0.457  0.00  0.00    +0.008 A 
ENDBRANCH   3   7
TORSDOF 1
ENDMDL
MODEL 6
REMARK VINA RESULT:    -3.533     13.307     14.995
REMARK INTER + INTRA:          -3.952
REMARK INTER:                  -3.757
REMARK INTRA:                  -0.195
REMARK UNBOUND:                -0.212
REMARK  Name = Nicotine.pdb
REMARK  2 active torsions:
REMARK  status: ('A' for Active; 'I' for Inactive)
REMARK    1  A    between atoms: C_3  and  C_6
REMARK    2  A    between atoms: N_4  and  C_12
REMARK                            x       y       z     vdW  Elec       q    Type
REMARK                         _______ _______ _______ _____ _____    ______ ____
ROOT
ATOM      1  C   UNL     1       5.780  -4.619   0.636  0.00  0.00    +0.017 C 
ATOM      2  C   UNL     1       6.884  -3.885   1.442  0.00  0.00    +0.025 C 
ATOM      3  C   UNL     1       8.175  -4.601   0.992  0.00  0.00    +0.088 C 
ATOM      4  N   UNL     1       7.785  -5.926   0.479  0.00  0.00    -0.298 NA
ATOM      5  C   UNL     1       6.320  -6.071   0.616  0.00  0.00    +0.085 C 
ATOM      6  C   UNL     1       8.203  -6.096  -0.918  0.00  0.00    +0.105 C 
ENDROOT
BRANCH   3   7
ATOM      7  C   UNL     1       9.110  -4.757   2.163  0.00  0.00    -0.012 A 
ATOM      8  C   UNL     1      10.009  -3.756   2.479  0.00  0.00    +0.115 A 
ATOM      9  N   UNL     1      10.830  -3.885   3.503  0.00  0.00    -0.263 NA
ATOM     10  C   UNL     1      10.828  -4.963   4.261  0.00  0.00    +0.111 A 
ATOM     11  C   UNL     1       9.957  -6.006   4.006  0.00  0.00    +0.020 A 
ATOM     12  C   UNL     1       9.075  -5.904   2.941  0.00  0.00    +0.008 A 
ENDBRANCH   3   7
TORSDOF 1
ENDMDL
MODEL 7
REMARK VINA RESULT:    -3.527     12.254     13.809
REMARK INTER + INTRA:          -3.945
REMARK INTER:                  -3.724
REMARK INTRA:                  -0.221
REMARK UNBOUND:                -0.212
REMARK  Name = Nicotine.pdb
REMARK  2 active torsions:
REMARK  status: ('A' for Active; 'I' for Inactive)
REMARK    1  A    between atoms: C_3  and  C_6
REMARK    2  A    between atoms: N_4  and  C_12
REMARK                            x       y       z     vdW  Elec       q    Type
REMARK                         _______ _______ _______ _____ _____    ______ ____
ROOT
ATOM      1  C   UNL     1       7.945  -2.350   6.002  0.00  0.00    +0.017 C 
ATOM      2  C   UNL     1       7.219  -2.883   4.739  0.00  0.00    +0.025 C 
ATOM      3  C   UNL     1       8.010  -4.164   4.399  0.00  0.00    +0.088 C 
ATOM      4  N   UNL     1       9.342  -4.032   5.016  0.00  0.00    -0.298 NA
ATOM      5  C   UNL     1       9.417  -2.722   5.697  0.00  0.00    +0.085 C 
ATOM      6  C   UNL     1       9.599  -5.130   5.956  0.00  0.00    +0.105 C 
ENDROOT
BRANCH   3   7
ATOM      7  C   UNL     1       8.148  -4.301   2.904  0.00  0.00    -0.012 A 
ATOM      8  C   UNL     1       9.396  -4.277   2.312  0.00  0.00    +0.115 A 
ATOM      9  N   UNL     1       9.525  -4.396   1.005  0.00  0.00    -0.263 NA
ATOM     10  C   UNL     1       8.479  -4.541   0.216  0.00  0.00    +0.111 A 
ATOM     11  C   UNL     1       7.199  -4.573   0.736  0.00  0.00    +0.020 A 
ATOM     12  C   UNL     1       7.024  -4.457   2.107  0.00  0.00    +0.008 A 
ENDBRANCH   3   7
TORSDOF 1
ENDMDL
MODEL 8
REMARK VINA RESULT:    -3.397     12.319     13.890
REMARK INTER + INTRA:          -3.807
REMARK INTER:                  -3.615
REMARK INTRA:                  -0.193
REMARK UNBOUND:                -0.212
REMARK  Name = Nicotine.pdb
REMARK  2 active torsions:
REMARK  status: ('A' for Active; 'I' for Inactive)
REMARK    1  A    between atoms: C_3  and  C_6
REMARK    2  A    between atoms: N_4  and  C_12
REMARK                            x       y       z     vdW  Elec       q    Type
REMARK                         _______ _______ _______ _____ _____    ______ ____
ROOT
ATOM      1  C   UNL     1       2.538  -6.089  -0.150  0.00  0.00    +0.017 C 
ATOM      2  C   UNL     1       3.618  -6.097   0.964  0.00  0.00    +0.025 C 
ATOM      3  C   UNL     1       4.470  -4.854   0.630  0.00  0.00    +0.088 C 
ATOM      4  N   UNL     1       4.261  -4.552  -0.797  0.00  0.00    -0.298 NA
ATOM      5  C   UNL     1       3.344  -5.563  -1.364  0.00  0.00    +0.085 C 
ATOM      6  C   UNL     1       3.727  -3.196  -0.977  0.00  0.00    +0.105 C 
ENDROOT
BRANCH   3   7
ATOM      7  C   UNL     1       5.925  -5.146   0.887  0.00  0.00    -0.012 A 
ATOM      8  C   UNL     1       6.527  -4.723   2.057  0.00  0.00    +0.115 A 
ATOM      9  N   UNL     1       7.801  -4.975   2.290  0.00  0.00    -0.263 NA
ATOM     10  C   UNL     1       8.547  -5.633   1.424  0.00  0.00    +0.111 A 
ATOM     11  C   UNL     1       8.013  -6.088   0.232  0.00  0.00    +0.020 A 
ATOM     12  C   UNL     1       6.677  -5.846  -0.045  0.00  0.00    +0.008 A 
ENDBRANCH   3   7
TORSDOF 1
ENDMDL
MODEL 9
REMARK VINA RESULT:    -3.372     15.354     16.650
REMARK INTER + INTRA:          -3.781
REMARK INTER:                  -3.569
REMARK INTRA:                  -0.211
REMARK UNBOUND:                -0.212
REMARK  Name = Nicotine.pdb
REMARK  2 active torsions:
REMARK  status: ('A' for Active; 'I' for Inactive)
REMARK    1  A    between atoms: C_3  and  C_6
REMARK    2  A    between atoms: N_4  and  C_12
REMARK                            x       y       z     vdW  Elec       q    Type
REMARK                         _______ _______ _______ _____ _____    ______ ____
ROOT
ATOM      1  C   UNL     1      10.518  -3.429  -4.807  0.00  0.00    +0.017 C 
ATOM      2  C   UNL     1       9.143  -3.741  -5.454  0.00  0.00    +0.025 C 
ATOM      3  C   UNL     1       9.039  -2.685  -6.575  0.00  0.00    +0.088 C 
ATOM      4  N   UNL     1       9.938  -1.574  -6.214  0.00  0.00    -0.298 NA
ATOM      5  C   UNL     1      10.570  -1.884  -4.914  0.00  0.00    +0.085 C 
ATOM      6  C   UNL     1      10.952  -1.357  -7.254  0.00  0.00    +0.105 C 
ENDROOT
BRANCH   3   7
ATOM      7  C   UNL     1       7.622  -2.185  -6.680  0.00  0.00    -0.012 A 
ATOM      8  C   UNL     1       6.581  -3.072  -6.882  0.00  0.00    +0.115 A 
ATOM      9  N   UNL     1       5.337  -2.643  -6.975  0.00  0.00    -0.263 NA
ATOM     10  C   UNL     1       5.037  -1.363  -6.879  0.00  0.00    +0.111 A 
ATOM     11  C   UNL     1       6.025  -0.418  -6.676  0.00  0.00    +0.020 A 
ATOM     12  C   UNL     1       7.343  -0.832  -6.568  0.00  0.00    +0.008 A 
ENDBRANCH   3   7
TORSDOF 1
ENDMDL
MODEL 10
REMARK VINA RESULT:    -3.170     12.160     13.818
REMARK INTER + INTRA:          -3.567
REMARK INTER:                  -3.369
REMARK INTRA:                  -0.198
REMARK UNBOUND:                -0.212
REMARK  Name = Nicotine.pdb
REMARK  2 active torsions:
REMARK  status: ('A' for Active; 'I' for Inactive)
REMARK    1  A    between atoms: C_3  and  C_6
REMARK    2  A    between atoms: N_4  and  C_12
REMARK                            x       y       z     vdW  Elec       q    Type
REMARK                         _______ _______ _______ _____ _____    ______ ____
ROOT
ATOM      1  C   UNL     1       8.619  -6.097   0.510  0.00  0.00    +0.017 C 
ATOM      2  C   UNL     1       8.784  -6.063   2.053  0.00  0.00    +0.025 C 
ATOM      3  C   UNL     1       7.616  -5.162   2.507  0.00  0.00    +0.088 C 
ATOM      4  N   UNL     1       7.229  -4.332   1.352  0.00  0.00    -0.298 NA
ATOM      5  C   UNL     1       8.119  -4.660   0.217  0.00  0.00    +0.085 C 
ATOM      6  C   UNL     1       5.821  -4.547   0.996  0.00  0.00    +0.105 C 
ENDROOT
BRANCH   3   7
ATOM      7  C   UNL     1       8.060  -4.282   3.646  0.00  0.00    -0.012 A 
ATOM      8  C   UNL     1       9.328  -4.416   4.180  0.00  0.00    +0.115 A 
ATOM      9  N   UNL     1       9.725  -3.650   5.177  0.00  0.00    -0.263 NA
ATOM     10  C   UNL     1       8.936  -2.733   5.703  0.00  0.00    +0.111 A 
ATOM     11  C   UNL     1       7.655  -2.541   5.221  0.00  0.00    +0.020 A 
ATOM     12  C   UNL     1       7.205  -3.325   4.170  0.00  0.00    +0.008 A 
ENDBRANCH   3   7
TORSDOF 1
ENDMDL
