MODEL 1
REMARK VINA RESULT:    -2.984      0.000      0.000
REMARK INTER + INTRA:          -3.390
REMARK INTER:                  -3.158
REMARK INTRA:                  -0.232
REMARK UNBOUND:                -0.232
REMARK  Name = Nicotine.pdb
REMARK  2 active torsions:
REMARK  status: ('A' for Active; 'I' for Inactive)
REMARK    1  A    between atoms: C_3  and  C_6
REMARK    2  A    between atoms: N_4  and  C_12
REMARK                            x       y       z     vdW  Elec       q    Type
REMARK                         _______ _______ _______ _____ _____    ______ ____
ROOT
ATOM      1  C   UNL     1      -2.767   3.741  -7.178  0.00  0.00    +0.017 C 
ATOM      2  C   UNL     1      -3.563   3.405  -5.890  0.00  0.00    +0.025 C 
ATOM      3  C   UNL     1      -2.492   2.777  -4.974  0.00  0.00    +0.088 C 
ATOM      4  N   UNL     1      -1.408   2.284  -5.843  0.00  0.00    -0.298 NA
ATOM      5  C   UNL     1      -1.772   2.556  -7.250  0.00  0.00    +0.085 C 
ATOM      6  C   UNL     1      -0.128   2.916  -5.498  0.00  0.00    +0.105 C 
ENDROOT
BRANCH   3   7
ATOM      7  C   UNL     1      -3.089   1.632  -4.197  0.00  0.00    -0.012 A 
ATOM      8  C   UNL     1      -2.289   0.835  -3.400  0.00  0.00    +0.115 A 
ATOM      9  N   UNL     1      -2.803  -0.169  -2.717  0.00  0.00    -0.263 NA
ATOM     10  C   UNL     1      -4.089  -0.453  -2.766  0.00  0.00    +0.111 A 
ATOM     11  C   UNL     1      -4.952   0.299  -3.541  0.00  0.00    +0.020 A 
ATOM     12  C   UNL     1      -4.448   1.366  -4.269  0.00  0.00    +0.008 A 
ENDBRANCH   3   7
TORSDOF 1
ENDMDL
MODEL 2
REMARK VINA RESULT:    -2.853      1.759      4.530
REMARK INTER + INTRA:          -3.252
REMARK INTER:                  -3.029
REMARK INTRA:                  -0.223
REMARK UNBOUND:                -0.232
REMARK  Name = Nicotine.pdb
REMARK  2 active torsions:
REMARK  status: ('A' for Active; 'I' for Inactive)
REMARK    1  A    between atoms: C_3  and  C_6
REMARK    2  A    between atoms: N_4  and  C_12
REMARK                            x       y       z     vdW  Elec       q    Type
REMARK                         _______ _______ _______ _____ _____    ______ ____
ROOT
ATOM      1  C   UNL     1      -5.167   0.228  -2.628  0.00  0.00    +0.017 C 
ATOM      2  C   UNL     1      -4.784   0.893  -3.977  0.00  0.00    +0.025 C 
ATOM      3  C   UNL     1      -3.354   1.410  -3.715  0.00  0.00    +0.088 C 
ATOM      4  N   UNL     1      -3.200   1.548  -2.256  0.00  0.00    -0.298 NA
ATOM      5  C   UNL     1      -4.473   1.166  -1.609  0.00  0.00    +0.085 C 
ATOM      6  C   UNL     1      -2.089   0.723  -1.762  0.00  0.00    +0.105 C 
ENDROOT
BRANCH   3   7
ATOM      7  C   UNL     1      -3.162   2.747  -4.381  0.00  0.00    -0.012 A 
ATOM      8  C   UNL     1      -2.685   3.826  -3.660  0.00  0.00    +0.115 A 
ATOM      9  N   UNL     1      -2.514   5.000  -4.236  0.00  0.00    -0.263 NA
ATOM     10  C   UNL     1      -2.789   5.193  -5.511  0.00  0.00    +0.111 A 
ATOM     11  C   UNL     1      -3.270   4.161  -6.296  0.00  0.00    +0.020 A 
ATOM     12  C   UNL     1      -3.457   2.911  -5.726  0.00  0.00    +0.008 A 
ENDBRANCH   3   7
TORSDOF 1
ENDMDL
MODEL 3
REMARK VINA RESULT:    -2.769      1.973      4.285
REMARK INTER + INTRA:          -3.163
REMARK INTER:                  -2.975
REMARK INTRA:                  -0.187
REMARK UNBOUND:                -0.232
REMARK  Name = Nicotine.pdb
REMARK  2 active torsions:
REMARK  status: ('A' for Active; 'I' for Inactive)
REMARK    1  A    between atoms: C_3  and  C_6
REMARK    2  A    between atoms: N_4  and  C_12
REMARK                            x       y       z     vdW  Elec       q    Type
REMARK                         _______ _______ _______ _____ _____    ______ ____
ROOT
ATOM      1  C   UNL     1      -3.452   0.350  -3.178  0.00  0.00    +0.017 C 
ATOM      2  C   UNL     1      -4.004   1.347  -4.231  0.00  0.00    +0.025 C 
ATOM      3  C   UNL     1      -2.736   2.086  -4.708  0.00  0.00    +0.088 C 
ATOM      4  N   UNL     1      -1.723   1.945  -3.647  0.00  0.00    -0.298 NA
ATOM      5  C   UNL     1      -2.314   1.178  -2.530  0.00  0.00    +0.085 C 
ATOM      6  C   UNL     1      -0.513   1.286  -4.157  0.00  0.00    +0.105 C 
ENDROOT
BRANCH   3   7
ATOM      7  C   UNL     1      -3.046   3.543  -4.933  0.00  0.00    -0.012 A 
ATOM      8  C   UNL     1      -2.756   4.478  -3.958  0.00  0.00    +0.115 A 
ATOM      9  N   UNL     1      -3.024   5.756  -4.147  0.00  0.00    -0.263 NA
ATOM     10  C   UNL     1      -3.574   6.190  -5.263  0.00  0.00    +0.111 A 
ATOM     11  C   UNL     1      -3.892   5.314  -6.284  0.00  0.00    +0.020 A 
ATOM     12  C   UNL     1      -3.620   3.964  -6.123  0.00  0.00    +0.008 A 
ENDBRANCH   3   7
TORSDOF 1
ENDMDL
MODEL 4
REMARK VINA RESULT:    -2.698      2.424      4.676
REMARK INTER + INTRA:          -3.088
REMARK INTER:                  -2.870
REMARK INTRA:                  -0.218
REMARK UNBOUND:                -0.232
REMARK  Name = Nicotine.pdb
REMARK  2 active torsions:
REMARK  status: ('A' for Active; 'I' for Inactive)
REMARK    1  A    between atoms: C_3  and  C_6
REMARK    2  A    between atoms: N_4  and  C_12
REMARK                            x       y       z     vdW  Elec       q    Type
REMARK                         _______ _______ _______ _____ _____    ______ ____
ROOT
ATOM      1  C   UNL     1      -3.717   0.864  -3.359  0.00  0.00    +0.017 C 
ATOM      2  C   UNL     1      -3.694   1.770  -4.618  0.00  0.00    +0.025 C 
ATOM      3  C   UNL     1      -2.627   2.828  -4.265  0.00  0.00    +0.088 C 
ATOM      4  N   UNL     1      -2.515   2.861  -2.796  0.00  0.00    -0.298 NA
ATOM      5  C   UNL     1      -3.478   1.894  -2.228  0.00  0.00    +0.085 C 
ATOM      6  C   UNL     1      -1.144   2.554  -2.365  0.00  0.00    +0.105 C 
ENDROOT
BRANCH   3   7
ATOM      7  C   UNL     1      -3.054   4.178  -4.778  0.00  0.00    -0.012 A 
ATOM      8  C   UNL     1      -2.863   5.311  -4.010  0.00  0.00    +0.115 A 
ATOM      9  N   UNL     1      -3.233   6.497  -4.452  0.00  0.00    -0.263 NA
ATOM     10  C   UNL     1      -3.797   6.651  -5.634  0.00  0.00    +0.111 A 
ATOM     11  C   UNL     1      -4.020   5.564  -6.458  0.00  0.00    +0.020 A 
ATOM     12  C   UNL     1      -3.639   4.302  -6.030  0.00  0.00    +0.008 A 
ENDBRANCH   3   7
TORSDOF 1
ENDMDL
MODEL 5
REMARK VINA RESULT:    -2.682      1.484      2.171
REMARK INTER + INTRA:          -3.071
REMARK INTER:                  -2.889
REMARK INTRA:                  -0.182
REMARK UNBOUND:                -0.232
REMARK  Name = Nicotine.pdb
REMARK  2 active torsions:
REMARK  status: ('A' for Active; 'I' for Inactive)
REMARK    1  A    between atoms: C_3  and  C_6
REMARK    2  A    between atoms: N_4  and  C_12
REMARK                            x       y       z     vdW  Elec       q    Type
REMARK                         _______ _______ _______ _____ _____    ______ ____
ROOT
ATOM      1  C   UNL     1      -0.732   3.519  -5.789  0.00  0.00    +0.017 C 
ATOM      2  C   UNL     1      -1.372   2.213  -5.249  0.00  0.00    +0.025 C 
ATOM      3  C   UNL     1      -2.879   2.547  -5.233  0.00  0.00    +0.088 C 
ATOM      4  N   UNL     1      -3.002   4.015  -5.192  0.00  0.00    -0.298 NA
ATOM      5  C   UNL     1      -1.644   4.600  -5.156  0.00  0.00    +0.085 C 
ATOM      6  C   UNL     1      -3.760   4.513  -6.346  0.00  0.00    +0.105 C 
ENDROOT
BRANCH   3   7
ATOM      7  C   UNL     1      -3.525   1.943  -4.012  0.00  0.00    -0.012 A 
ATOM      8  C   UNL     1      -3.074   2.272  -2.748  0.00  0.00    +0.115 A 
ATOM      9  N   UNL     1      -3.633   1.748  -1.675  0.00  0.00    -0.263 NA
ATOM     10  C   UNL     1      -4.636   0.897  -1.761  0.00  0.00    +0.111 A 
ATOM     11  C   UNL     1      -5.141   0.521  -2.992  0.00  0.00    +0.020 A 
ATOM     12  C   UNL     1      -4.582   1.055  -4.143  0.00  0.00    +0.008 A 
ENDBRANCH   3   7
TORSDOF 1
ENDMDL
MODEL 6
REMARK VINA RESULT:    -2.539      1.824      4.575
REMARK INTER + INTRA:          -2.919
REMARK INTER:                  -2.707
REMARK INTRA:                  -0.212
REMARK UNBOUND:                -0.232
REMARK  Name = Nicotine.pdb
REMARK  2 active torsions:
REMARK  status: ('A' for Active; 'I' for Inactive)
REMARK    1  A    between atoms: C_3  and  C_6
REMARK    2  A    between atoms: N_4  and  C_12
REMARK                            x       y       z     vdW  Elec       q    Type
REMARK                         _______ _______ _______ _____ _____    ______ ____
ROOT
ATOM      1  C   UNL     1      -4.331   0.516  -2.893  0.00  0.00    +0.017 C 
ATOM      2  C   UNL     1      -4.253   1.260  -4.252  0.00  0.00    +0.025 C 
ATOM      3  C   UNL     1      -2.878   1.958  -4.187  0.00  0.00    +0.088 C 
ATOM      4  N   UNL     1      -2.516   2.079  -2.763  0.00  0.00    -0.298 NA
ATOM      5  C   UNL     1      -3.613   1.513  -1.949  0.00  0.00    +0.085 C 
ATOM      6  C   UNL     1      -1.246   1.398  -2.482  0.00  0.00    +0.105 C 
ENDROOT
BRANCH   3   7
ATOM      7  C   UNL     1      -2.967   3.325  -4.813  0.00  0.00    -0.012 A 
ATOM      8  C   UNL     1      -3.160   3.459  -6.175  0.00  0.00    +0.115 A 
ATOM      9  N   UNL     1      -3.239   4.653  -6.731  0.00  0.00    -0.263 NA
ATOM     10  C   UNL     1      -3.138   5.757  -6.018  0.00  0.00    +0.111 A 
ATOM     11  C   UNL     1      -2.944   5.702  -4.651  0.00  0.00    +0.020 A 
ATOM     12  C   UNL     1      -2.861   4.465  -4.030  0.00  0.00    +0.008 A 
ENDBRANCH   3   7
TORSDOF 1
ENDMDL
MODEL 7
REMARK VINA RESULT:    -2.435      1.146      4.466
REMARK INTER + INTRA:          -2.809
REMARK INTER:                  -2.600
REMARK INTRA:                  -0.209
REMARK UNBOUND:                -0.232
REMARK  Name = Nicotine.pdb
REMARK  2 active torsions:
REMARK  status: ('A' for Active; 'I' for Inactive)
REMARK    1  A    between atoms: C_3  and  C_6
REMARK    2  A    between atoms: N_4  and  C_12
REMARK                            x       y       z     vdW  Elec       q    Type
REMARK                         _______ _______ _______ _____ _____    ______ ____
ROOT
ATOM      1  C   UNL     1      -2.861   1.218  -1.612  0.00  0.00    +0.017 C 
ATOM      2  C   UNL     1      -2.472   2.393  -2.548  0.00  0.00    +0.025 C 
ATOM      3  C   UNL     1      -3.347   2.147  -3.795  0.00  0.00    +0.088 C 
ATOM      4  N   UNL     1      -3.712   0.719  -3.798  0.00  0.00    -0.298 NA
ATOM      5  C   UNL     1      -3.084   0.070  -2.628  0.00  0.00    +0.085 C 
ATOM      6  C   UNL     1      -5.170   0.548  -3.776  0.00  0.00    +0.105 C 
ENDROOT
BRANCH   3   7
ATOM      7  C   UNL     1      -2.569   2.481  -5.041  0.00  0.00    -0.012 A 
ATOM      8  C   UNL     1      -1.227   2.165  -5.133  0.00  0.00    +0.115 A 
ATOM      9  N   UNL     1      -0.538   2.454  -6.220  0.00  0.00    -0.263 NA
ATOM     10  C   UNL     1      -1.095   3.051  -7.255  0.00  0.00    +0.111 A 
ATOM     11  C   UNL     1      -2.433   3.398  -7.236  0.00  0.00    +0.020 A 
ATOM     12  C   UNL     1      -3.190   3.105  -6.112  0.00  0.00    +0.008 A 
ENDBRANCH   3   7
TORSDOF 1
ENDMDL
MODEL 8
REMARK VINA RESULT:    -2.324      2.104      3.421
REMARK INTER + INTRA:          -2.692
REMARK INTER:                  -2.438
REMARK INTRA:                  -0.254
REMARK UNBOUND:                -0.232
REMARK  Name = Nicotine.pdb
REMARK  2 active torsions:
REMARK  status: ('A' for Active; 'I' for Inactive)
REMARK    1  A    between atoms: C_3  and  C_6
REMARK    2  A    between atoms: N_4  and  C_12
REMARK                            x       y       z     vdW  Elec       q    Type
REMARK                         _______ _______ _______ _____ _____    ______ ____
ROOT
ATOM      1  C   UNL     1      -3.005   2.305  -4.621  0.00  0.00    +0.017 C 
ATOM      2  C   UNL     1      -4.118   1.307  -4.205  0.00  0.00    +0.025 C 
ATOM      3  C   UNL     1      -4.089   1.378  -2.664  0.00  0.00    +0.088 C 
ATOM      4  N   UNL     1      -2.758   1.877  -2.274  0.00  0.00    -0.298 NA
ATOM      5  C   UNL     1      -1.958   2.093  -3.500  0.00  0.00    +0.085 C 
ATOM      6  C   UNL     1      -2.867   3.115  -1.492  0.00  0.00    +0.105 C 
ENDROOT
BRANCH   3   7
ATOM      7  C   UNL     1      -4.313   0.006  -2.083  0.00  0.00    -0.012 A 
ATOM      8  C   UNL     1      -4.970  -0.144  -0.877  0.00  0.00    +0.115 A 
ATOM      9  N   UNL     1      -5.171  -1.341  -0.362  0.00  0.00    -0.263 NA
ATOM     10  C   UNL     1      -4.757  -2.436  -0.970  0.00  0.00    +0.111 A 
ATOM     11  C   UNL     1      -4.093  -2.364  -2.180  0.00  0.00    +0.020 A 
ATOM     12  C   UNL     1      -3.868  -1.123  -2.755  0.00  0.00    +0.008 A 
ENDBRANCH   3   7
TORSDOF 1
ENDMDL
MODEL 9
REMARK VINA RESULT:    -2.265      3.492      5.230
REMARK INTER + INTRA:          -2.629
REMARK INTER:                  -2.412
REMARK INTRA:                  -0.217
REMARK UNBOUND:                -0.232
REMARK  Name = Nicotine.pdb
REMARK  2 active torsions:
REMARK  status: ('A' for Active; 'I' for Inactive)
REMARK    1  A    between atoms: C_3  and  C_6
REMARK    2  A    between atoms: N_4  and  C_12
REMARK                            x       y       z     vdW  Elec       q    Type
REMARK                         _______ _______ _______ _____ _____    ______ ____
ROOT
ATOM      1  C   UNL     1      -5.150   2.680   1.099  0.00  0.00    +0.017 C 
ATOM      2  C   UNL     1      -4.851   1.761  -0.114  0.00  0.00    +0.025 C 
ATOM      3  C   UNL     1      -3.488   2.282  -0.617  0.00  0.00    +0.088 C 
ATOM      4  N   UNL     1      -3.345   3.667  -0.134  0.00  0.00    -0.298 NA
ATOM      5  C   UNL     1      -4.563   4.032   0.620  0.00  0.00    +0.085 C 
ATOM      6  C   UNL     1      -2.145   3.813   0.701  0.00  0.00    +0.105 C 
ENDROOT
BRANCH   3   7
ATOM      7  C   UNL     1      -3.454   2.257  -2.123  0.00  0.00    -0.012 A 
ATOM      8  C   UNL     1      -2.786   3.243  -2.824  0.00  0.00    +0.115 A 
ATOM      9  N   UNL     1      -2.751   3.229  -4.142  0.00  0.00    -0.263 NA
ATOM     10  C   UNL     1      -3.346   2.282  -4.841  0.00  0.00    +0.111 A 
ATOM     11  C   UNL     1      -4.034   1.263  -4.209  0.00  0.00    +0.020 A 
ATOM     12  C   UNL     1      -4.087   1.242  -2.824  0.00  0.00    +0.008 A 
ENDBRANCH   3   7
TORSDOF 1
ENDMDL
MODEL 10
REMARK VINA RESULT:    -2.132      3.033      4.768
REMARK INTER + INTRA:          -2.488
REMARK INTER:                  -2.284
REMARK INTRA:                  -0.204
REMARK UNBOUND:                -0.232
REMARK  Name = Nicotine.pdb
REMARK  2 active torsions:
REMARK  status: ('A' for Active; 'I' for Inactive)
REMARK    1  A    between atoms: C_3  and  C_6
REMARK    2  A    between atoms: N_4  and  C_12
REMARK                            x       y       z     vdW  Elec       q    Type
REMARK                         _______ _______ _______ _____ _____    ______ ____
ROOT
ATOM      1  C   UNL     1      -1.243   2.190  -5.574  0.00  0.00    +0.017 C 
ATOM      2  C   UNL     1      -2.531   2.927  -6.027  0.00  0.00    +0.025 C 
ATOM      3  C   UNL     1      -2.055   4.385  -6.195  0.00  0.00    +0.088 C 
ATOM      4  N   UNL     1      -0.841   4.547  -5.376  0.00  0.00    -0.298 NA
ATOM      5  C   UNL     1      -0.560   3.266  -4.692  0.00  0.00    +0.085 C 
ATOM      6  C   UNL     1       0.300   4.964  -6.202  0.00  0.00    +0.105 C 
ENDROOT
BRANCH   3   7
ATOM      7  C   UNL     1      -3.126   5.332  -5.719  0.00  0.00    -0.012 A 
ATOM      8  C   UNL     1      -4.226   5.600  -6.512  0.00  0.00    +0.115 A 
ATOM      9  N   UNL     1      -5.168   6.427  -6.102  0.00  0.00    -0.263 NA
ATOM     10  C   UNL     1      -5.101   7.028  -4.931  0.00  0.00    +0.111 A 
ATOM     11  C   UNL     1      -4.031   6.809  -4.083  0.00  0.00    +0.020 A 
ATOM     12  C   UNL     1      -3.024   5.941  -4.478  0.00  0.00    +0.008 A 
ENDBRANCH   3   7
TORSDOF 1
ENDMDL
