MODEL 1
REMARK VINA RESULT:     0.000      0.000      0.000
REMARK INTER + INTRA:          -0.256
REMARK INTER:                   0.000
REMARK INTRA:                  -0.256
REMARK UNBOUND:                -0.256
REMARK  Name = Nicotine.pdb
REMARK  2 active torsions:
REMARK  status: ('A' for Active; 'I' for Inactive)
REMARK    1  A    between atoms: C_3  and  C_6
REMARK    2  A    between atoms: N_4  and  C_12
REMARK                            x       y       z     vdW  Elec       q    Type
REMARK                         _______ _______ _______ _____ _____    ______ ____
ROOT
ATOM      1  C   UNL     1      10.224  -1.696   1.598  0.00  0.00    +0.017 C 
ATOM      2  C   UNL     1      10.021  -0.616   2.693  0.00  0.00    +0.025 C 
ATOM      3  C   UNL     1       8.497  -0.374   2.665  0.00  0.00    +0.088 C 
ATOM      4  N   UNL     1       8.011  -0.806   1.343  0.00  0.00    -0.298 NA
ATOM      5  C   UNL     1       9.164  -1.278   0.548  0.00  0.00    +0.085 C 
ATOM      6  C   UNL     1       6.995  -1.859   1.473  0.00  0.00    +0.105 C 
ENDROOT
BRANCH   3   7
ATOM      7  C   UNL     1       8.207   1.090   2.867  0.00  0.00    -0.012 A 
ATOM      8  C   UNL     1       6.966   1.502   3.314  0.00  0.00    +0.115 A 
ATOM      9  N   UNL     1       6.703   2.782   3.493  0.00  0.00    -0.263 NA
ATOM     10  C   UNL     1       7.605   3.714   3.255  0.00  0.00    +0.111 A 
ATOM     11  C   UNL     1       8.868   3.378   2.806  0.00  0.00    +0.020 A 
ATOM     12  C   UNL     1       9.182   2.042   2.611  0.00  0.00    +0.008 A 
ENDBRANCH   3   7
TORSDOF 1
ENDMDL
MODEL 2
REMARK VINA RESULT:     0.000      8.469     10.101
REMARK INTER + INTRA:          -0.256
REMARK INTER:                   0.000
REMARK INTRA:                  -0.256
REMARK UNBOUND:                -0.256
REMARK  Name = Nicotine.pdb
REMARK  2 active torsions:
REMARK  status: ('A' for Active; 'I' for Inactive)
REMARK    1  A    between atoms: C_3  and  C_6
REMARK    2  A    between atoms: N_4  and  C_12
REMARK                            x       y       z     vdW  Elec       q    Type
REMARK                         _______ _______ _______ _____ _____    ______ ____
ROOT
ATOM      1  C   UNL     1      -2.518   2.903  -1.464  0.00  0.00    +0.017 C 
ATOM      2  C   UNL     1      -1.650   1.659  -1.137  0.00  0.00    +0.025 C 
ATOM      3  C   UNL     1      -1.767   1.548   0.398  0.00  0.00    +0.088 C 
ATOM      4  N   UNL     1      -2.143   2.880   0.905  0.00  0.00    -0.298 NA
ATOM      5  C   UNL     1      -2.238   3.810  -0.240  0.00  0.00    +0.085 C 
ATOM      6  C   UNL     1      -3.410   2.823   1.645  0.00  0.00    +0.105 C 
ENDROOT
BRANCH   3   7
ATOM      7  C   UNL     1      -0.443   1.129   0.983  0.00  0.00    -0.012 A 
ATOM      8  C   UNL     1      -0.386   0.544   2.234  0.00  0.00    +0.115 A 
ATOM      9  N   UNL     1       0.768   0.175   2.754  0.00  0.00    -0.263 NA
ATOM     10  C   UNL     1       1.905   0.346   2.110  0.00  0.00    +0.111 A 
ATOM     11  C   UNL     1       1.927   0.924   0.854  0.00  0.00    +0.020 A 
ATOM     12  C   UNL     1       0.732   1.320   0.273  0.00  0.00    +0.008 A 
ENDBRANCH   3   7
TORSDOF 1
ENDMDL
MODEL 3
REMARK VINA RESULT:     0.000      6.565      7.282
REMARK INTER + INTRA:          -0.256
REMARK INTER:                   0.000
REMARK INTRA:                  -0.256
REMARK UNBOUND:                -0.256
REMARK  Name = Nicotine.pdb
REMARK  2 active torsions:
REMARK  status: ('A' for Active; 'I' for Inactive)
REMARK    1  A    between atoms: C_3  and  C_6
REMARK    2  A    between atoms: N_4  and  C_12
REMARK                            x       y       z     vdW  Elec       q    Type
REMARK                         _______ _______ _______ _____ _____    ______ ____
ROOT
ATOM      1  C   UNL     1       8.210   0.596  -2.383  0.00  0.00    +0.017 C 
ATOM      2  C   UNL     1       6.775   0.386  -2.932  0.00  0.00    +0.025 C 
ATOM      3  C   UNL     1       6.607   1.559  -3.921  0.00  0.00    +0.088 C 
ATOM      4  N   UNL     1       7.570   2.604  -3.528  0.00  0.00    -0.298 NA
ATOM      5  C   UNL     1       8.303   2.141  -2.331  0.00  0.00    +0.085 C 
ATOM      6  C   UNL     1       8.495   2.909  -4.627  0.00  0.00    +0.105 C 
ENDROOT
BRANCH   3   7
ATOM      7  C   UNL     1       5.202   2.099  -3.843  0.00  0.00    -0.012 A 
ATOM      8  C   UNL     1       4.673   2.824  -4.894  0.00  0.00    +0.115 A 
ATOM      9  N   UNL     1       3.444   3.300  -4.834  0.00  0.00    -0.263 NA
ATOM     10  C   UNL     1       2.677   3.106  -3.779  0.00  0.00    +0.111 A 
ATOM     11  C   UNL     1       3.138   2.390  -2.690  0.00  0.00    +0.020 A 
ATOM     12  C   UNL     1       4.423   1.870  -2.720  0.00  0.00    +0.008 A 
ENDBRANCH   3   7
TORSDOF 1
ENDMDL
MODEL 4
REMARK VINA RESULT:     0.000     10.179     11.201
REMARK INTER + INTRA:          -0.256
REMARK INTER:                   0.000
REMARK INTRA:                  -0.256
REMARK UNBOUND:                -0.256
REMARK  Name = Nicotine.pdb
REMARK  2 active torsions:
REMARK  status: ('A' for Active; 'I' for Inactive)
REMARK    1  A    between atoms: C_3  and  C_6
REMARK    2  A    between atoms: N_4  and  C_12
REMARK                            x       y       z     vdW  Elec       q    Type
REMARK                         _______ _______ _______ _____ _____    ______ ____
ROOT
ATOM      1  C   UNL     1      -0.872  -3.978   2.687  0.00  0.00    +0.017 C 
ATOM      2  C   UNL     1      -0.630  -2.529   2.187  0.00  0.00    +0.025 C 
ATOM      3  C   UNL     1      -1.958  -1.819   2.527  0.00  0.00    +0.088 C 
ATOM      4  N   UNL     1      -2.994  -2.861   2.641  0.00  0.00    -0.298 NA
ATOM      5  C   UNL     1      -2.374  -4.174   2.363  0.00  0.00    +0.085 C 
ATOM      6  C   UNL     1      -3.616  -2.843   3.971  0.00  0.00    +0.105 C 
ENDROOT
BRANCH   3   7
ATOM      7  C   UNL     1      -2.318  -0.854   1.427  0.00  0.00    -0.012 A 
ATOM      8  C   UNL     1      -3.185   0.194   1.674  0.00  0.00    +0.115 A 
ATOM      9  N   UNL     1      -3.506   1.043   0.717  0.00  0.00    -0.263 NA
ATOM     10  C   UNL     1      -3.018   0.930  -0.503  0.00  0.00    +0.111 A 
ATOM     11  C   UNL     1      -2.145  -0.093  -0.823  0.00  0.00    +0.020 A 
ATOM     12  C   UNL     1      -1.781  -1.002   0.158  0.00  0.00    +0.008 A 
ENDBRANCH   3   7
TORSDOF 1
ENDMDL
MODEL 5
REMARK VINA RESULT:     0.000      6.654      7.379
REMARK INTER + INTRA:          -0.256
REMARK INTER:                   0.000
REMARK INTRA:                  -0.256
REMARK UNBOUND:                -0.256
REMARK  Name = Nicotine.pdb
REMARK  2 active torsions:
REMARK  status: ('A' for Active; 'I' for Inactive)
REMARK    1  A    between atoms: C_3  and  C_6
REMARK    2  A    between atoms: N_4  and  C_12
REMARK                            x       y       z     vdW  Elec       q    Type
REMARK                         _______ _______ _______ _____ _____    ______ ____
ROOT
ATOM      1  C   UNL     1       3.727  -1.055  -1.119  0.00  0.00    +0.017 C 
ATOM      2  C   UNL     1       4.498   0.237  -1.499  0.00  0.00    +0.025 C 
ATOM      3  C   UNL     1       3.435   1.342  -1.314  0.00  0.00    +0.088 C 
ATOM      4  N   UNL     1       2.113   0.696  -1.407  0.00  0.00    -0.298 NA
ATOM      5  C   UNL     1       2.310  -0.746  -1.664  0.00  0.00    +0.085 C 
ATOM      6  C   UNL     1       1.335   0.911  -0.180  0.00  0.00    +0.105 C 
ENDROOT
BRANCH   3   7
ATOM      7  C   UNL     1       3.579   2.377  -2.399  0.00  0.00    -0.012 A 
ATOM      8  C   UNL     1       3.071   3.650  -2.222  0.00  0.00    +0.115 A 
ATOM      9  N   UNL     1       3.192   4.562  -3.167  0.00  0.00    -0.263 NA
ATOM     10  C   UNL     1       3.797   4.301  -4.309  0.00  0.00    +0.111 A 
ATOM     11  C   UNL     1       4.331   3.051  -4.557  0.00  0.00    +0.020 A 
ATOM     12  C   UNL     1       4.227   2.067  -3.585  0.00  0.00    +0.008 A 
ENDBRANCH   3   7
TORSDOF 1
ENDMDL
MODEL 6
REMARK VINA RESULT:     0.000      8.165     10.210
REMARK INTER + INTRA:          -0.256
REMARK INTER:                   0.000
REMARK INTRA:                  -0.256
REMARK UNBOUND:                -0.256
REMARK  Name = Nicotine.pdb
REMARK  2 active torsions:
REMARK  status: ('A' for Active; 'I' for Inactive)
REMARK    1  A    between atoms: C_3  and  C_6
REMARK    2  A    between atoms: N_4  and  C_12
REMARK                            x       y       z     vdW  Elec       q    Type
REMARK                         _______ _______ _______ _____ _____    ______ ____
ROOT
ATOM      1  C   UNL     1      -2.492   0.037   1.315  0.00  0.00    +0.017 C 
ATOM      2  C   UNL     1      -1.466  -0.986   1.868  0.00  0.00    +0.025 C 
ATOM      3  C   UNL     1      -0.292  -0.873   0.873  0.00  0.00    +0.088 C 
ATOM      4  N   UNL     1      -0.834  -0.319  -0.381  0.00  0.00    -0.298 NA
ATOM      5  C   UNL     1      -2.288  -0.110  -0.214  0.00  0.00    +0.085 C 
ATOM      6  C   UNL     1      -0.158   0.935  -0.738  0.00  0.00    +0.105 C 
ENDROOT
BRANCH   3   7
ATOM      7  C   UNL     1       0.299  -2.236   0.620  0.00  0.00    -0.012 A 
ATOM      8  C   UNL     1       1.589  -2.360   0.140  0.00  0.00    +0.115 A 
ATOM      9  N   UNL     1       2.114  -3.549  -0.084  0.00  0.00    -0.263 NA
ATOM     10  C   UNL     1       1.437  -4.658   0.138  0.00  0.00    +0.111 A 
ATOM     11  C   UNL     1       0.141  -4.613   0.619  0.00  0.00    +0.020 A 
ATOM     12  C   UNL     1      -0.442  -3.381   0.871  0.00  0.00    +0.008 A 
ENDBRANCH   3   7
TORSDOF 1
ENDMDL
MODEL 7
REMARK VINA RESULT:     0.000     10.492     11.473
REMARK INTER + INTRA:          -0.256
REMARK INTER:                   0.000
REMARK INTRA:                  -0.256
REMARK UNBOUND:                -0.256
REMARK  Name = Nicotine.pdb
REMARK  2 active torsions:
REMARK  status: ('A' for Active; 'I' for Inactive)
REMARK    1  A    between atoms: C_3  and  C_6
REMARK    2  A    between atoms: N_4  and  C_12
REMARK                            x       y       z     vdW  Elec       q    Type
REMARK                         _______ _______ _______ _____ _____    ______ ____
ROOT
ATOM      1  C   UNL     1      -2.214  -0.751   1.539  0.00  0.00    +0.017 C 
ATOM      2  C   UNL     1      -1.427   0.546   1.214  0.00  0.00    +0.025 C 
ATOM      3  C   UNL     1      -2.490   1.651   1.395  0.00  0.00    +0.088 C 
ATOM      4  N   UNL     1      -3.811   1.014   1.248  0.00  0.00    -0.298 NA
ATOM      5  C   UNL     1      -3.613  -0.422   0.960  0.00  0.00    +0.085 C 
ATOM      6  C   UNL     1      -4.625   1.202   2.456  0.00  0.00    +0.105 C 
ENDROOT
BRANCH   3   7
ATOM      7  C   UNL     1      -2.311   2.713   0.341  0.00  0.00    -0.012 A 
ATOM      8  C   UNL     1      -2.819   3.983   0.534  0.00  0.00    +0.115 A 
ATOM      9  N   UNL     1      -2.666   4.918  -0.383  0.00  0.00    -0.263 NA
ATOM     10  C   UNL     1      -2.029   4.683  -1.513  0.00  0.00    +0.111 A 
ATOM     11  C   UNL     1      -1.493   3.436  -1.777  0.00  0.00    +0.020 A 
ATOM     12  C   UNL     1      -1.629   2.430  -0.833  0.00  0.00    +0.008 A 
ENDBRANCH   3   7
TORSDOF 1
ENDMDL
MODEL 8
REMARK VINA RESULT:     0.000      9.620     11.504
REMARK INTER + INTRA:          -0.256
REMARK INTER:                   0.000
REMARK INTRA:                  -0.256
REMARK UNBOUND:                -0.256
REMARK  Name = Nicotine.pdb
REMARK  2 active torsions:
REMARK  status: ('A' for Active; 'I' for Inactive)
REMARK    1  A    between atoms: C_3  and  C_6
REMARK    2  A    between atoms: N_4  and  C_12
REMARK                            x       y       z     vdW  Elec       q    Type
REMARK                         _______ _______ _______ _____ _____    ______ ____
ROOT
ATOM      1  C   UNL     1      -4.037  -2.891   3.879  0.00  0.00    +0.017 C 
ATOM      2  C   UNL     1      -3.510  -3.664   2.641  0.00  0.00    +0.025 C 
ATOM      3  C   UNL     1      -2.121  -4.153   3.104  0.00  0.00    +0.088 C 
ATOM      4  N   UNL     1      -1.692  -3.273   4.205  0.00  0.00    -0.298 NA
ATOM      5  C   UNL     1      -2.737  -2.251   4.425  0.00  0.00    +0.085 C 
ATOM      6  C   UNL     1      -1.442  -4.044   5.430  0.00  0.00    +0.105 C 
ENDROOT
BRANCH   3   7
ATOM      7  C   UNL     1      -1.140  -4.065   1.963  0.00  0.00    -0.012 A 
ATOM      8  C   UNL     1       0.013  -4.827   1.972  0.00  0.00    +0.115 A 
ATOM      9  N   UNL     1       0.876  -4.756   0.978  0.00  0.00    -0.263 NA
ATOM     10  C   UNL     1       0.678  -3.963  -0.057  0.00  0.00    +0.111 A 
ATOM     11  C   UNL     1      -0.453  -3.172  -0.136  0.00  0.00    +0.020 A 
ATOM     12  C   UNL     1      -1.386  -3.224   0.889  0.00  0.00    +0.008 A 
ENDBRANCH   3   7
TORSDOF 1
ENDMDL
MODEL 9
REMARK VINA RESULT:     0.000      7.710      8.715
REMARK INTER + INTRA:          -0.256
REMARK INTER:                   0.000
REMARK INTRA:                  -0.256
REMARK UNBOUND:                -0.256
REMARK  Name = Nicotine.pdb
REMARK  2 active torsions:
REMARK  status: ('A' for Active; 'I' for Inactive)
REMARK    1  A    between atoms: C_3  and  C_6
REMARK    2  A    between atoms: N_4  and  C_12
REMARK                            x       y       z     vdW  Elec       q    Type
REMARK                         _______ _______ _______ _____ _____    ______ ____
ROOT
ATOM      1  C   UNL     1       1.364   0.083  -4.516  0.00  0.00    +0.017 C 
ATOM      2  C   UNL     1       2.580   0.349  -5.442  0.00  0.00    +0.025 C 
ATOM      3  C   UNL     1       3.670  -0.575  -4.858  0.00  0.00    +0.088 C 
ATOM      4  N   UNL     1       3.303  -0.852  -3.458  0.00  0.00    -0.298 NA
ATOM      5  C   UNL     1       2.055  -0.124  -3.145  0.00  0.00    +0.085 C 
ATOM      6  C   UNL     1       3.143  -2.295  -3.231  0.00  0.00    +0.105 C 
ENDROOT
BRANCH   3   7
ATOM      7  C   UNL     1       5.009   0.114  -4.912  0.00  0.00    -0.012 A 
ATOM      8  C   UNL     1       6.176  -0.624  -4.870  0.00  0.00    +0.115 A 
ATOM      9  N   UNL     1       7.352  -0.028  -4.917  0.00  0.00    -0.263 NA
ATOM     10  C   UNL     1       7.463   1.282  -5.004  0.00  0.00    +0.111 A 
ATOM     11  C   UNL     1       6.339   2.086  -5.051  0.00  0.00    +0.020 A 
ATOM     12  C   UNL     1       5.085   1.495  -5.009  0.00  0.00    +0.008 A 
ENDBRANCH   3   7
TORSDOF 1
ENDMDL
MODEL 10
REMARK VINA RESULT:     0.000      6.170      8.572
REMARK INTER + INTRA:          -0.256
REMARK INTER:                   0.000
REMARK INTRA:                  -0.256
REMARK UNBOUND:                -0.256
REMARK  Name = Nicotine.pdb
REMARK  2 active torsions:
REMARK  status: ('A' for Active; 'I' for Inactive)
REMARK    1  A    between atoms: C_3  and  C_6
REMARK    2  A    between atoms: N_4  and  C_12
REMARK                            x       y       z     vdW  Elec       q    Type
REMARK                         _______ _______ _______ _____ _____    ______ ____
ROOT
ATOM      1  C   UNL     1       4.114  -0.623  -0.248  0.00  0.00    +0.017 C 
ATOM      2  C   UNL     1       2.734  -1.024   0.337  0.00  0.00    +0.025 C 
ATOM      3  C   UNL     1       2.774  -2.566   0.293  0.00  0.00    +0.088 C 
ATOM      4  N   UNL     1       3.772  -2.949  -0.721  0.00  0.00    -0.298 NA
ATOM      5  C   UNL     1       4.330  -1.719  -1.322  0.00  0.00    +0.085 C 
ATOM      6  C   UNL     1       4.833  -3.776  -0.131  0.00  0.00    +0.105 C 
ENDROOT
BRANCH   3   7
ATOM      7  C   UNL     1       1.419  -3.103  -0.090  0.00  0.00    -0.012 A 
ATOM      8  C   UNL     1       1.069  -4.403   0.221  0.00  0.00    +0.115 A 
ATOM      9  N   UNL     1      -0.114  -4.881  -0.111  0.00  0.00    -0.263 NA
ATOM     10  C   UNL     1      -1.005  -4.146  -0.746  0.00  0.00    +0.111 A 
ATOM     11  C   UNL     1      -0.727  -2.836  -1.090  0.00  0.00    +0.020 A 
ATOM     12  C   UNL     1       0.506  -2.298  -0.753  0.00  0.00    +0.008 A 
ENDBRANCH   3   7
TORSDOF 1
ENDMDL
