MODEL 1
REMARK VINA RESULT:    21.124      0.000      0.000
REMARK INTER + INTRA:          22.168
REMARK INTER:                  22.359
REMARK INTRA:                  -0.191
REMARK UNBOUND:                -0.191
REMARK  Name = Nicotine.pdb
REMARK  2 active torsions:
REMARK  status: ('A' for Active; 'I' for Inactive)
REMARK    1  A    between atoms: C_3  and  C_6
REMARK    2  A    between atoms: N_4  and  C_12
REMARK                            x       y       z     vdW  Elec       q    Type
REMARK                         _______ _______ _______ _____ _____    ______ ____
ROOT
ATOM      1  C   UNL     1       6.272  -1.809  -0.531  0.00  0.00    +0.017 C 
ATOM      2  C   UNL     1       6.478  -0.802  -1.693  0.00  0.00    +0.025 C 
ATOM      3  C   UNL     1       5.637   0.415  -1.251  0.00  0.00    +0.088 C 
ATOM      4  N   UNL     1       4.634  -0.074  -0.289  0.00  0.00    -0.298 NA
ATOM      5  C   UNL     1       4.799  -1.535  -0.137  0.00  0.00    +0.085 C 
ATOM      6  C   UNL     1       4.767   0.609   1.005  0.00  0.00    +0.105 C 
ENDROOT
BRANCH   3   7
ATOM      7  C   UNL     1       4.950   1.025  -2.445  0.00  0.00    -0.012 A 
ATOM      8  C   UNL     1       5.293   0.632  -3.725  0.00  0.00    +0.115 A 
ATOM      9  N   UNL     1       4.696   1.161  -4.776  0.00  0.00    -0.263 NA
ATOM     10  C   UNL     1       3.758   2.078  -4.651  0.00  0.00    +0.111 A 
ATOM     11  C   UNL     1       3.362   2.520  -3.402  0.00  0.00    +0.020 A 
ATOM     12  C   UNL     1       3.963   1.983  -2.274  0.00  0.00    +0.008 A 
ENDBRANCH   3   7
TORSDOF 1
ENDMDL
MODEL 2
REMARK VINA RESULT:    22.356      1.625      4.112
REMARK INTER + INTRA:          23.472
REMARK INTER:                  23.685
REMARK INTRA:                  -0.213
REMARK UNBOUND:                -0.191
REMARK  Name = Nicotine.pdb
REMARK  2 active torsions:
REMARK  status: ('A' for Active; 'I' for Inactive)
REMARK    1  A    between atoms: C_3  and  C_6
REMARK    2  A    between atoms: N_4  and  C_12
REMARK                            x       y       z     vdW  Elec       q    Type
REMARK                         _______ _______ _______ _____ _____    ______ ____
ROOT
ATOM      1  C   UNL     1       7.035  -1.207  -2.762  0.00  0.00    +0.017 C 
ATOM      2  C   UNL     1       6.321  -1.209  -1.385  0.00  0.00    +0.025 C 
ATOM      3  C   UNL     1       5.249  -0.110  -1.549  0.00  0.00    +0.088 C 
ATOM      4  N   UNL     1       5.698   0.780  -2.634  0.00  0.00    -0.298 NA
ATOM      5  C   UNL     1       7.005   0.298  -3.129  0.00  0.00    +0.085 C 
ATOM      6  C   UNL     1       4.710   0.829  -3.719  0.00  0.00    +0.105 C 
ENDROOT
BRANCH   3   7
ATOM      7  C   UNL     1       5.114   0.670  -0.267  0.00  0.00    -0.012 A 
ATOM      8  C   UNL     1       4.611   0.065   0.870  0.00  0.00    +0.115 A 
ATOM      9  N   UNL     1       4.490   0.740   1.996  0.00  0.00    -0.263 NA
ATOM     10  C   UNL     1       4.840   2.008   2.085  0.00  0.00    +0.111 A 
ATOM     11  C   UNL     1       5.351   2.680   0.990  0.00  0.00    +0.020 A 
ATOM     12  C   UNL     1       5.498   2.001  -0.210  0.00  0.00    +0.008 A 
ENDBRANCH   3   7
TORSDOF 1
ENDMDL
MODEL 3
REMARK VINA RESULT:    22.894      1.093      1.941
REMARK INTER + INTRA:          24.041
REMARK INTER:                  24.259
REMARK INTRA:                  -0.218
REMARK UNBOUND:                -0.191
REMARK  Name = Nicotine.pdb
REMARK  2 active torsions:
REMARK  status: ('A' for Active; 'I' for Inactive)
REMARK    1  A    between atoms: C_3  and  C_6
REMARK    2  A    between atoms: N_4  and  C_12
REMARK                            x       y       z     vdW  Elec       q    Type
REMARK                         _______ _______ _______ _____ _____    ______ ____
ROOT
ATOM      1  C   UNL     1       5.572  -0.043   1.407  0.00  0.00    +0.017 C 
ATOM      2  C   UNL     1       4.555   0.489   0.364  0.00  0.00    +0.025 C 
ATOM      3  C   UNL     1       4.859  -0.366  -0.885  0.00  0.00    +0.088 C 
ATOM      4  N   UNL     1       6.237  -0.870  -0.744  0.00  0.00    -0.298 NA
ATOM      5  C   UNL     1       6.803  -0.346   0.518  0.00  0.00    +0.085 C 
ATOM      6  C   UNL     1       6.266  -2.338  -0.765  0.00  0.00    +0.105 C 
ENDROOT
BRANCH   3   7
ATOM      7  C   UNL     1       4.746   0.481  -2.126  0.00  0.00    -0.012 A 
ATOM      8  C   UNL     1       5.683   0.369  -3.136  0.00  0.00    +0.115 A 
ATOM      9  N   UNL     1       5.591   1.107  -4.226  0.00  0.00    -0.263 NA
ATOM     10  C   UNL     1       4.612   1.973  -4.396  0.00  0.00    +0.111 A 
ATOM     11  C   UNL     1       3.638   2.139  -3.429  0.00  0.00    +0.020 A 
ATOM     12  C   UNL     1       3.699   1.377  -2.272  0.00  0.00    +0.008 A 
ENDBRANCH   3   7
TORSDOF 1
ENDMDL
MODEL 4
REMARK VINA RESULT:    22.983      1.283      4.343
REMARK INTER + INTRA:          24.135
REMARK INTER:                  24.320
REMARK INTRA:                  -0.185
REMARK UNBOUND:                -0.191
REMARK  Name = Nicotine.pdb
REMARK  2 active torsions:
REMARK  status: ('A' for Active; 'I' for Inactive)
REMARK    1  A    between atoms: C_3  and  C_6
REMARK    2  A    between atoms: N_4  and  C_12
REMARK                            x       y       z     vdW  Elec       q    Type
REMARK                         _______ _______ _______ _____ _____    ______ ____
ROOT
ATOM      1  C   UNL     1       4.404   1.277  -4.578  0.00  0.00    +0.017 C 
ATOM      2  C   UNL     1       4.218   1.744  -3.111  0.00  0.00    +0.025 C 
ATOM      3  C   UNL     1       5.542   1.320  -2.441  0.00  0.00    +0.088 C 
ATOM      4  N   UNL     1       6.121   0.242  -3.262  0.00  0.00    -0.298 NA
ATOM      5  C   UNL     1       5.206  -0.035  -4.390  0.00  0.00    +0.085 C 
ATOM      6  C   UNL     1       7.458   0.608  -3.747  0.00  0.00    +0.105 C 
ENDROOT
BRANCH   3   7
ATOM      7  C   UNL     1       5.273   0.816  -1.047  0.00  0.00    -0.012 A 
ATOM      8  C   UNL     1       5.121  -0.537  -0.809  0.00  0.00    +0.115 A 
ATOM      9  N   UNL     1       4.886  -0.986   0.408  0.00  0.00    -0.263 NA
ATOM     10  C   UNL     1       4.786  -0.172   1.440  0.00  0.00    +0.111 A 
ATOM     11  C   UNL     1       4.927   1.194   1.280  0.00  0.00    +0.020 A 
ATOM     12  C   UNL     1       5.181   1.703   0.015  0.00  0.00    +0.008 A 
ENDBRANCH   3   7
TORSDOF 1
ENDMDL
