MODEL 1
REMARK VINA RESULT:     0.000      0.000      0.000
REMARK INTER + INTRA:          -0.256
REMARK INTER:                   0.000
REMARK INTRA:                  -0.256
REMARK UNBOUND:                -0.256
REMARK  Name = Nicotine.pdb
REMARK  2 active torsions:
REMARK  status: ('A' for Active; 'I' for Inactive)
REMARK    1  A    between atoms: C_3  and  C_6
REMARK    2  A    between atoms: N_4  and  C_12
REMARK                            x       y       z     vdW  Elec       q    Type
REMARK                         _______ _______ _______ _____ _____    ______ ____
ROOT
ATOM      1  C   UNL     1       4.454   5.956   1.963  0.00  0.00    +0.017 C 
ATOM      2  C   UNL     1       5.587   5.977   3.023  0.00  0.00    +0.025 C 
ATOM      3  C   UNL     1       6.868   5.974   2.162  0.00  0.00    +0.088 C 
ATOM      4  N   UNL     1       6.507   5.421   0.844  0.00  0.00    -0.298 NA
ATOM      5  C   UNL     1       5.073   5.061   0.861  0.00  0.00    +0.085 C 
ATOM      6  C   UNL     1       6.797   6.383  -0.228  0.00  0.00    +0.105 C 
ENDROOT
BRANCH   3   7
ATOM      7  C   UNL     1       7.919   5.112   2.811  0.00  0.00    -0.012 A 
ATOM      8  C   UNL     1       9.255   5.284   2.499  0.00  0.00    +0.115 A 
ATOM      9  N   UNL     1      10.181   4.534   3.063  0.00  0.00    -0.263 NA
ATOM     10  C   UNL     1       9.876   3.596   3.938  0.00  0.00    +0.111 A 
ATOM     11  C   UNL     1       8.562   3.367   4.300  0.00  0.00    +0.020 A 
ATOM     12  C   UNL     1       7.561   4.140   3.732  0.00  0.00    +0.008 A 
ENDBRANCH   3   7
TORSDOF 1
ENDMDL
MODEL 2
REMARK VINA RESULT:     0.000      8.934     10.332
REMARK INTER + INTRA:          -0.256
REMARK INTER:                   0.000
REMARK INTRA:                  -0.256
REMARK UNBOUND:                -0.256
REMARK  Name = Nicotine.pdb
REMARK  2 active torsions:
REMARK  status: ('A' for Active; 'I' for Inactive)
REMARK    1  A    between atoms: C_3  and  C_6
REMARK    2  A    between atoms: N_4  and  C_12
REMARK                            x       y       z     vdW  Elec       q    Type
REMARK                         _______ _______ _______ _____ _____    ______ ____
ROOT
ATOM      1  C   UNL     1       2.910  -1.672  -4.452  0.00  0.00    +0.017 C 
ATOM      2  C   UNL     1       2.951  -0.650  -3.285  0.00  0.00    +0.025 C 
ATOM      3  C   UNL     1       1.751  -1.073  -2.411  0.00  0.00    +0.088 C 
ATOM      4  N   UNL     1       0.826  -1.828  -3.275  0.00  0.00    -0.298 NA
ATOM      5  C   UNL     1       1.385  -1.868  -4.643  0.00  0.00    +0.085 C 
ATOM      6  C   UNL     1       0.607  -3.184  -2.756  0.00  0.00    +0.105 C 
ENDROOT
BRANCH   3   7
ATOM      7  C   UNL     1       1.060   0.148  -1.862  0.00  0.00    -0.012 A 
ATOM      8  C   UNL     1       0.264   0.054  -0.736  0.00  0.00    +0.115 A 
ATOM      9  N   UNL     1      -0.343   1.119  -0.249  0.00  0.00    -0.263 NA
ATOM     10  C   UNL     1      -0.219   2.305  -0.810  0.00  0.00    +0.111 A 
ATOM     11  C   UNL     1       0.561   2.476  -1.939  0.00  0.00    +0.020 A 
ATOM     12  C   UNL     1       1.220   1.381  -2.476  0.00  0.00    +0.008 A 
ENDBRANCH   3   7
TORSDOF 1
ENDMDL
MODEL 3
REMARK VINA RESULT:     0.000      7.770      8.898
REMARK INTER + INTRA:          -0.256
REMARK INTER:                   0.000
REMARK INTRA:                  -0.256
REMARK UNBOUND:                -0.256
REMARK  Name = Nicotine.pdb
REMARK  2 active torsions:
REMARK  status: ('A' for Active; 'I' for Inactive)
REMARK    1  A    between atoms: C_3  and  C_6
REMARK    2  A    between atoms: N_4  and  C_12
REMARK                            x       y       z     vdW  Elec       q    Type
REMARK                         _______ _______ _______ _____ _____    ______ ____
ROOT
ATOM      1  C   UNL     1       6.442  -3.813   0.583  0.00  0.00    +0.017 C 
ATOM      2  C   UNL     1       6.695  -3.231   1.999  0.00  0.00    +0.025 C 
ATOM      3  C   UNL     1       5.405  -3.600   2.761  0.00  0.00    +0.088 C 
ATOM      4  N   UNL     1       4.349  -3.817   1.755  0.00  0.00    -0.298 NA
ATOM      5  C   UNL     1       4.921  -3.574   0.413  0.00  0.00    +0.085 C 
ATOM      6  C   UNL     1       3.797  -5.174   1.855  0.00  0.00    +0.105 C 
ENDROOT
BRANCH   3   7
ATOM      7  C   UNL     1       5.013  -2.474   3.682  0.00  0.00    -0.012 A 
ATOM      8  C   UNL     1       4.187  -2.711   4.765  0.00  0.00    +0.115 A 
ATOM      9  N   UNL     1       3.840  -1.731   5.576  0.00  0.00    -0.263 NA
ATOM     10  C   UNL     1       4.261  -0.496   5.391  0.00  0.00    +0.111 A 
ATOM     11  C   UNL     1       5.090  -0.183   4.330  0.00  0.00    +0.020 A 
ATOM     12  C   UNL     1       5.481  -1.188   3.459  0.00  0.00    +0.008 A 
ENDBRANCH   3   7
TORSDOF 1
ENDMDL
MODEL 4
REMARK VINA RESULT:     0.000      4.979      5.737
REMARK INTER + INTRA:          -0.256
REMARK INTER:                   0.000
REMARK INTRA:                  -0.256
REMARK UNBOUND:                -0.256
REMARK  Name = Nicotine.pdb
REMARK  2 active torsions:
REMARK  status: ('A' for Active; 'I' for Inactive)
REMARK    1  A    between atoms: C_3  and  C_6
REMARK    2  A    between atoms: N_4  and  C_12
REMARK                            x       y       z     vdW  Elec       q    Type
REMARK                         _______ _______ _______ _____ _____    ______ ____
ROOT
ATOM      1  C   UNL     1       4.895  -2.553   0.948  0.00  0.00    +0.017 C 
ATOM      2  C   UNL     1       5.575  -1.910   2.186  0.00  0.00    +0.025 C 
ATOM      3  C   UNL     1       5.408  -0.398   1.927  0.00  0.00    +0.088 C 
ATOM      4  N   UNL     1       5.208  -0.222   0.478  0.00  0.00    -0.298 NA
ATOM      5  C   UNL     1       5.269  -1.549  -0.171  0.00  0.00    +0.085 C 
ATOM      6  C   UNL     1       3.928   0.443   0.200  0.00  0.00    +0.105 C 
ENDROOT
BRANCH   3   7
ATOM      7  C   UNL     1       6.647   0.337   2.368  0.00  0.00    -0.012 A 
ATOM      8  C   UNL     1       6.594   1.689   2.654  0.00  0.00    +0.115 A 
ATOM      9  N   UNL     1       7.674   2.340   3.041  0.00  0.00    -0.263 NA
ATOM     10  C   UNL     1       8.838   1.735   3.169  0.00  0.00    +0.111 A 
ATOM     11  C   UNL     1       8.969   0.385   2.902  0.00  0.00    +0.020 A 
ATOM     12  C   UNL     1       7.854  -0.333   2.498  0.00  0.00    +0.008 A 
ENDBRANCH   3   7
TORSDOF 1
ENDMDL
MODEL 5
REMARK VINA RESULT:     0.000      2.791      5.440
REMARK INTER + INTRA:          -0.256
REMARK INTER:                   0.000
REMARK INTRA:                  -0.256
REMARK UNBOUND:                -0.256
REMARK  Name = Nicotine.pdb
REMARK  2 active torsions:
REMARK  status: ('A' for Active; 'I' for Inactive)
REMARK    1  A    between atoms: C_3  and  C_6
REMARK    2  A    between atoms: N_4  and  C_12
REMARK                            x       y       z     vdW  Elec       q    Type
REMARK                         _______ _______ _______ _____ _____    ______ ____
ROOT
ATOM      1  C   UNL     1       5.985   0.661   1.554  0.00  0.00    +0.017 C 
ATOM      2  C   UNL     1       4.921   1.452   0.749  0.00  0.00    +0.025 C 
ATOM      3  C   UNL     1       5.411   2.911   0.868  0.00  0.00    +0.088 C 
ATOM      4  N   UNL     1       6.273   2.987   2.061  0.00  0.00    -0.298 NA
ATOM      5  C   UNL     1       6.316   1.653   2.697  0.00  0.00    +0.085 C 
ATOM      6  C   UNL     1       7.622   3.447   1.708  0.00  0.00    +0.105 C 
ENDROOT
BRANCH   3   7
ATOM      7  C   UNL     1       4.233   3.837   1.024  0.00  0.00    -0.012 A 
ATOM      8  C   UNL     1       4.351   5.178   0.714  0.00  0.00    +0.115 A 
ATOM      9  N   UNL     1       3.324   5.995   0.849  0.00  0.00    -0.263 NA
ATOM     10  C   UNL     1       2.153   5.571   1.280  0.00  0.00    +0.111 A 
ATOM     11  C   UNL     1       1.959   4.242   1.610  0.00  0.00    +0.020 A 
ATOM     12  C   UNL     1       3.014   3.353   1.476  0.00  0.00    +0.008 A 
ENDBRANCH   3   7
TORSDOF 1
ENDMDL
MODEL 6
REMARK VINA RESULT:     0.000      8.148     10.543
REMARK INTER + INTRA:          -0.256
REMARK INTER:                   0.000
REMARK INTRA:                  -0.256
REMARK UNBOUND:                -0.256
REMARK  Name = Nicotine.pdb
REMARK  2 active torsions:
REMARK  status: ('A' for Active; 'I' for Inactive)
REMARK    1  A    between atoms: C_3  and  C_6
REMARK    2  A    between atoms: N_4  and  C_12
REMARK                            x       y       z     vdW  Elec       q    Type
REMARK                         _______ _______ _______ _____ _____    ______ ____
ROOT
ATOM      1  C   UNL     1       0.682   2.262  -0.859  0.00  0.00    +0.017 C 
ATOM      2  C   UNL     1       0.045   1.655  -2.137  0.00  0.00    +0.025 C 
ATOM      3  C   UNL     1       0.304   0.143  -1.969  0.00  0.00    +0.088 C 
ATOM      4  N   UNL     1       1.442  -0.005  -1.044  0.00  0.00    -0.298 NA
ATOM      5  C   UNL     1       1.911   1.341  -0.654  0.00  0.00    +0.085 C 
ATOM      6  C   UNL     1       1.062  -0.793   0.137  0.00  0.00    +0.105 C 
ENDROOT
BRANCH   3   7
ATOM      7  C   UNL     1       0.643  -0.471  -3.303  0.00  0.00    -0.012 A 
ATOM      8  C   UNL     1       0.487  -1.828  -3.508  0.00  0.00    +0.115 A 
ATOM      9  N   UNL     1       0.782  -2.373  -4.672  0.00  0.00    -0.263 NA
ATOM     10  C   UNL     1       1.233  -1.653  -5.680  0.00  0.00    +0.111 A 
ATOM     11  C   UNL     1       1.414  -0.289  -5.550  0.00  0.00    +0.020 A 
ATOM     12  C   UNL     1       1.110   0.320  -4.342  0.00  0.00    +0.008 A 
ENDBRANCH   3   7
TORSDOF 1
ENDMDL
MODEL 7
REMARK VINA RESULT:     0.000      5.247      6.482
REMARK INTER + INTRA:          -0.256
REMARK INTER:                   0.000
REMARK INTRA:                  -0.256
REMARK UNBOUND:                -0.256
REMARK  Name = Nicotine.pdb
REMARK  2 active torsions:
REMARK  status: ('A' for Active; 'I' for Inactive)
REMARK    1  A    between atoms: C_3  and  C_6
REMARK    2  A    between atoms: N_4  and  C_12
REMARK                            x       y       z     vdW  Elec       q    Type
REMARK                         _______ _______ _______ _____ _____    ______ ____
ROOT
ATOM      1  C   UNL     1       7.545   1.447   1.397  0.00  0.00    +0.017 C 
ATOM      2  C   UNL     1       8.091   2.358   0.265  0.00  0.00    +0.025 C 
ATOM      3  C   UNL     1       7.194   1.992  -0.937  0.00  0.00    +0.088 C 
ATOM      4  N   UNL     1       6.640   0.652  -0.677  0.00  0.00    -0.298 NA
ATOM      5  C   UNL     1       7.171   0.164   0.614  0.00  0.00    +0.085 C 
ATOM      6  C   UNL     1       5.172   0.682  -0.665  0.00  0.00    +0.105 C 
ENDROOT
BRANCH   3   7
ATOM      7  C   UNL     1       8.014   1.973  -2.201  0.00  0.00    -0.012 A 
ATOM      8  C   UNL     1       7.403   2.111  -3.433  0.00  0.00    +0.115 A 
ATOM      9  N   UNL     1       8.113   2.096  -4.544  0.00  0.00    -0.263 NA
ATOM     10  C   UNL     1       9.423   1.950  -4.527  0.00  0.00    +0.111 A 
ATOM     11  C   UNL     1      10.104   1.807  -3.332  0.00  0.00    +0.020 A 
ATOM     12  C   UNL     1       9.391   1.824  -2.143  0.00  0.00    +0.008 A 
ENDBRANCH   3   7
TORSDOF 1
ENDMDL
MODEL 8
REMARK VINA RESULT:     0.000      9.193     11.015
REMARK INTER + INTRA:          -0.256
REMARK INTER:                   0.000
REMARK INTRA:                  -0.256
REMARK UNBOUND:                -0.256
REMARK  Name = Nicotine.pdb
REMARK  2 active torsions:
REMARK  status: ('A' for Active; 'I' for Inactive)
REMARK    1  A    between atoms: C_3  and  C_6
REMARK    2  A    between atoms: N_4  and  C_12
REMARK                            x       y       z     vdW  Elec       q    Type
REMARK                         _______ _______ _______ _____ _____    ______ ____
ROOT
ATOM      1  C   UNL     1      -3.713   5.179  -3.635  0.00  0.00    +0.017 C 
ATOM      2  C   UNL     1      -2.462   5.067  -2.724  0.00  0.00    +0.025 C 
ATOM      3  C   UNL     1      -2.836   3.920  -1.761  0.00  0.00    +0.088 C 
ATOM      4  N   UNL     1      -4.306   3.822  -1.748  0.00  0.00    -0.298 NA
ATOM      5  C   UNL     1      -4.856   4.869  -2.636  0.00  0.00    +0.085 C 
ATOM      6  C   UNL     1      -4.750   2.487  -2.169  0.00  0.00    +0.105 C 
ENDROOT
BRANCH   3   7
ATOM      7  C   UNL     1      -2.329   4.228  -0.376  0.00  0.00    -0.012 A 
ATOM      8  C   UNL     1      -2.141   3.212   0.542  0.00  0.00    +0.115 A 
ATOM      9  N   UNL     1      -1.697   3.473   1.756  0.00  0.00    -0.263 NA
ATOM     10  C   UNL     1      -1.418   4.702   2.143  0.00  0.00    +0.111 A 
ATOM     11  C   UNL     1      -1.581   5.770   1.279  0.00  0.00    +0.020 A 
ATOM     12  C   UNL     1      -2.040   5.534  -0.007  0.00  0.00    +0.008 A 
ENDBRANCH   3   7
TORSDOF 1
ENDMDL
MODEL 9
REMARK VINA RESULT:     0.000     10.145     12.774
REMARK INTER + INTRA:          -0.256
REMARK INTER:                   0.000
REMARK INTRA:                  -0.256
REMARK UNBOUND:                -0.256
REMARK  Name = Nicotine.pdb
REMARK  2 active torsions:
REMARK  status: ('A' for Active; 'I' for Inactive)
REMARK    1  A    between atoms: C_3  and  C_6
REMARK    2  A    between atoms: N_4  and  C_12
REMARK                            x       y       z     vdW  Elec       q    Type
REMARK                         _______ _______ _______ _____ _____    ______ ____
ROOT
ATOM      1  C   UNL     1       1.387   1.852  -4.023  0.00  0.00    +0.017 C 
ATOM      2  C   UNL     1       0.138   1.218  -3.356  0.00  0.00    +0.025 C 
ATOM      3  C   UNL     1      -0.152  -0.004  -4.252  0.00  0.00    +0.088 C 
ATOM      4  N   UNL     1       0.469   0.258  -5.563  0.00  0.00    -0.298 NA
ATOM      5  C   UNL     1       1.105   1.592  -5.524  0.00  0.00    +0.085 C 
ATOM      6  C   UNL     1       1.448  -0.783  -5.900  0.00  0.00    +0.105 C 
ENDROOT
BRANCH   3   7
ATOM      7  C   UNL     1      -1.640  -0.179  -4.414  0.00  0.00    -0.012 A 
ATOM      8  C   UNL     1      -2.164  -1.405  -4.781  0.00  0.00    +0.115 A 
ATOM      9  N   UNL     1      -3.465  -1.566  -4.925  0.00  0.00    -0.263 NA
ATOM     10  C   UNL     1      -4.312  -0.576  -4.727  0.00  0.00    +0.111 A 
ATOM     11  C   UNL     1      -3.862   0.678  -4.358  0.00  0.00    +0.020 A 
ATOM     12  C   UNL     1      -2.501   0.884  -4.192  0.00  0.00    +0.008 A 
ENDBRANCH   3   7
TORSDOF 1
ENDMDL
MODEL 10
REMARK VINA RESULT:     0.000     11.854     12.842
REMARK INTER + INTRA:          -0.256
REMARK INTER:                   0.000
REMARK INTRA:                  -0.256
REMARK UNBOUND:                -0.256
REMARK  Name = Nicotine.pdb
REMARK  2 active torsions:
REMARK  status: ('A' for Active; 'I' for Inactive)
REMARK    1  A    between atoms: C_3  and  C_6
REMARK    2  A    between atoms: N_4  and  C_12
REMARK                            x       y       z     vdW  Elec       q    Type
REMARK                         _______ _______ _______ _____ _____    ______ ____
ROOT
ATOM      1  C   UNL     1      -2.668  -0.912  -3.959  0.00  0.00    +0.017 C 
ATOM      2  C   UNL     1      -1.879  -0.671  -2.645  0.00  0.00    +0.025 C 
ATOM      3  C   UNL     1      -2.056  -2.003  -1.885  0.00  0.00    +0.088 C 
ATOM      4  N   UNL     1      -3.262  -2.657  -2.424  0.00  0.00    -0.298 NA
ATOM      5  C   UNL     1      -3.850  -1.781  -3.460  0.00  0.00    +0.085 C 
ATOM      6  C   UNL     1      -2.942  -3.981  -2.973  0.00  0.00    +0.105 C 
ENDROOT
BRANCH   3   7
ATOM      7  C   UNL     1      -2.231  -1.734  -0.413  0.00  0.00    -0.012 A 
ATOM      8  C   UNL     1      -1.971  -2.725   0.514  0.00  0.00    +0.115 A 
ATOM      9  N   UNL     1      -2.122  -2.498   1.805  0.00  0.00    -0.263 NA
ATOM     10  C   UNL     1      -2.524  -1.328   2.260  0.00  0.00    +0.111 A 
ATOM     11  C   UNL     1      -2.803  -0.288   1.392  0.00  0.00    +0.020 A 
ATOM     12  C   UNL     1      -2.651  -0.488   0.028  0.00  0.00    +0.008 A 
ENDBRANCH   3   7
TORSDOF 1
ENDMDL
