MODEL 1
REMARK VINA RESULT:    -3.738      0.000      0.000
REMARK INTER + INTRA:          -4.163
REMARK INTER:                  -3.957
REMARK INTRA:                  -0.206
REMARK UNBOUND:                -0.206
REMARK  Name = Nicotine.pdb
REMARK  2 active torsions:
REMARK  status: ('A' for Active; 'I' for Inactive)
REMARK    1  A    between atoms: C_3  and  C_6
REMARK    2  A    between atoms: N_4  and  C_12
REMARK                            x       y       z     vdW  Elec       q    Type
REMARK                         _______ _______ _______ _____ _____    ______ ____
ROOT
ATOM      1  C   UNL     1       6.092   3.543  -0.678  0.00  0.00    +0.017 C 
ATOM      2  C   UNL     1       6.544   2.315  -1.512  0.00  0.00    +0.025 C 
ATOM      3  C   UNL     1       7.861   2.798  -2.155  0.00  0.00    +0.088 C 
ATOM      4  N   UNL     1       7.828   4.272  -2.164  0.00  0.00    -0.298 NA
ATOM      5  C   UNL     1       6.545   4.718  -1.580  0.00  0.00    +0.085 C 
ATOM      6  C   UNL     1       8.966   4.829  -1.421  0.00  0.00    +0.105 C 
ENDROOT
BRANCH   3   7
ATOM      7  C   UNL     1       7.964   2.278  -3.566  0.00  0.00    -0.012 A 
ATOM      8  C   UNL     1       7.785   0.934  -3.830  0.00  0.00    +0.115 A 
ATOM      9  N   UNL     1       7.873   0.470  -5.062  0.00  0.00    -0.263 NA
ATOM     10  C   UNL     1       8.133   1.262  -6.083  0.00  0.00    +0.111 A 
ATOM     11  C   UNL     1       8.322   2.619  -5.896  0.00  0.00    +0.020 A 
ATOM     12  C   UNL     1       8.232   3.143  -4.616  0.00  0.00    +0.008 A 
ENDBRANCH   3   7
TORSDOF 1
ENDMDL
MODEL 2
REMARK VINA RESULT:    -3.712      1.262      1.813
REMARK INTER + INTRA:          -4.135
REMARK INTER:                  -3.911
REMARK INTRA:                  -0.224
REMARK UNBOUND:                -0.206
REMARK  Name = Nicotine.pdb
REMARK  2 active torsions:
REMARK  status: ('A' for Active; 'I' for Inactive)
REMARK    1  A    between atoms: C_3  and  C_6
REMARK    2  A    between atoms: N_4  and  C_12
REMARK                            x       y       z     vdW  Elec       q    Type
REMARK                         _______ _______ _______ _____ _____    ______ ____
ROOT
ATOM      1  C   UNL     1       7.075   4.534  -0.455  0.00  0.00    +0.017 C 
ATOM      2  C   UNL     1       6.489   4.151  -1.839  0.00  0.00    +0.025 C 
ATOM      3  C   UNL     1       6.692   2.622  -1.892  0.00  0.00    +0.088 C 
ATOM      4  N   UNL     1       7.774   2.293  -0.946  0.00  0.00    -0.298 NA
ATOM      5  C   UNL     1       8.263   3.547  -0.334  0.00  0.00    +0.085 C 
ATOM      6  C   UNL     1       7.309   1.352   0.080  0.00  0.00    +0.105 C 
ENDROOT
BRANCH   3   7
ATOM      7  C   UNL     1       7.083   2.205  -3.286  0.00  0.00    -0.012 A 
ATOM      8  C   UNL     1       7.574   0.935  -3.523  0.00  0.00    +0.115 A 
ATOM      9  N   UNL     1       7.918   0.561  -4.740  0.00  0.00    -0.263 NA
ATOM     10  C   UNL     1       7.810   1.375  -5.772  0.00  0.00    +0.111 A 
ATOM     11  C   UNL     1       7.326   2.660  -5.611  0.00  0.00    +0.020 A 
ATOM     12  C   UNL     1       6.950   3.087  -4.347  0.00  0.00    +0.008 A 
ENDBRANCH   3   7
TORSDOF 1
ENDMDL
MODEL 3
REMARK VINA RESULT:    -3.476      1.575      2.346
REMARK INTER + INTRA:          -3.885
REMARK INTER:                  -3.630
REMARK INTRA:                  -0.256
REMARK UNBOUND:                -0.206
REMARK  Name = Nicotine.pdb
REMARK  2 active torsions:
REMARK  status: ('A' for Active; 'I' for Inactive)
REMARK    1  A    between atoms: C_3  and  C_6
REMARK    2  A    between atoms: N_4  and  C_12
REMARK                            x       y       z     vdW  Elec       q    Type
REMARK                         _______ _______ _______ _____ _____    ______ ____
ROOT
ATOM      1  C   UNL     1       6.872   3.255  -1.465  0.00  0.00    +0.017 C 
ATOM      2  C   UNL     1       6.741   3.450  -2.998  0.00  0.00    +0.025 C 
ATOM      3  C   UNL     1       7.089   2.053  -3.556  0.00  0.00    +0.088 C 
ATOM      4  N   UNL     1       7.883   1.357  -2.527  0.00  0.00    -0.298 NA
ATOM      5  C   UNL     1       8.061   2.267  -1.375  0.00  0.00    +0.085 C 
ATOM      6  C   UNL     1       7.232   0.107  -2.116  0.00  0.00    +0.105 C 
ENDROOT
BRANCH   3   7
ATOM      7  C   UNL     1       7.896   2.193  -4.821  0.00  0.00    -0.012 A 
ATOM      8  C   UNL     1       8.048   1.118  -5.676  0.00  0.00    +0.115 A 
ATOM      9  N   UNL     1       8.752   1.232  -6.785  0.00  0.00    -0.263 NA
ATOM     10  C   UNL     1       9.337   2.365  -7.121  0.00  0.00    +0.111 A 
ATOM     11  C   UNL     1       9.230   3.483  -6.315  0.00  0.00    +0.020 A 
ATOM     12  C   UNL     1       8.492   3.403  -5.144  0.00  0.00    +0.008 A 
ENDBRANCH   3   7
TORSDOF 1
ENDMDL
MODEL 4
REMARK VINA RESULT:    -3.473      2.117      4.272
REMARK INTER + INTRA:          -3.882
REMARK INTER:                  -3.627
REMARK INTRA:                  -0.255
REMARK UNBOUND:                -0.206
REMARK  Name = Nicotine.pdb
REMARK  2 active torsions:
REMARK  status: ('A' for Active; 'I' for Inactive)
REMARK    1  A    between atoms: C_3  and  C_6
REMARK    2  A    between atoms: N_4  and  C_12
REMARK                            x       y       z     vdW  Elec       q    Type
REMARK                         _______ _______ _______ _____ _____    ______ ____
ROOT
ATOM      1  C   UNL     1       9.168   3.558  -3.633  0.00  0.00    +0.017 C 
ATOM      2  C   UNL     1       9.102   2.632  -2.389  0.00  0.00    +0.025 C 
ATOM      3  C   UNL     1       8.347   1.394  -2.918  0.00  0.00    +0.088 C 
ATOM      4  N   UNL     1       7.580   1.822  -4.101  0.00  0.00    -0.298 NA
ATOM      5  C   UNL     1       7.806   3.268  -4.311  0.00  0.00    +0.085 C 
ATOM      6  C   UNL     1       7.968   1.050  -5.289  0.00  0.00    +0.105 C 
ENDROOT
BRANCH   3   7
ATOM      7  C   UNL     1       7.411   0.874  -1.859  0.00  0.00    -0.012 A 
ATOM      8  C   UNL     1       6.868  -0.393  -1.967  0.00  0.00    +0.115 A 
ATOM      9  N   UNL     1       6.047  -0.856  -1.044  0.00  0.00    -0.263 NA
ATOM     10  C   UNL     1       5.713  -0.138   0.010  0.00  0.00    +0.111 A 
ATOM     11  C   UNL     1       6.217   1.138   0.186  0.00  0.00    +0.020 A 
ATOM     12  C   UNL     1       7.087   1.656  -0.761  0.00  0.00    +0.008 A 
ENDBRANCH   3   7
TORSDOF 1
ENDMDL
MODEL 5
REMARK VINA RESULT:    -3.462      1.450      1.768
REMARK INTER + INTRA:          -3.870
REMARK INTER:                  -3.661
REMARK INTRA:                  -0.210
REMARK UNBOUND:                -0.206
REMARK  Name = Nicotine.pdb
REMARK  2 active torsions:
REMARK  status: ('A' for Active; 'I' for Inactive)
REMARK    1  A    between atoms: C_3  and  C_6
REMARK    2  A    between atoms: N_4  and  C_12
REMARK                            x       y       z     vdW  Elec       q    Type
REMARK                         _______ _______ _______ _____ _____    ______ ____
ROOT
ATOM      1  C   UNL     1       5.971   1.002   0.331  0.00  0.00    +0.017 C 
ATOM      2  C   UNL     1       6.648   0.460  -0.955  0.00  0.00    +0.025 C 
ATOM      3  C   UNL     1       7.526   1.645  -1.410  0.00  0.00    +0.088 C 
ATOM      4  N   UNL     1       6.957   2.866  -0.812  0.00  0.00    -0.298 NA
ATOM      5  C   UNL     1       5.758   2.493  -0.032  0.00  0.00    +0.085 C 
ATOM      6  C   UNL     1       7.946   3.548   0.033  0.00  0.00    +0.105 C 
ENDROOT
BRANCH   3   7
ATOM      7  C   UNL     1       7.505   1.750  -2.913  0.00  0.00    -0.012 A 
ATOM      8  C   UNL     1       7.834   0.660  -3.696  0.00  0.00    +0.115 A 
ATOM      9  N   UNL     1       7.817   0.744  -5.012  0.00  0.00    -0.263 NA
ATOM     10  C   UNL     1       7.490   1.861  -5.631  0.00  0.00    +0.111 A 
ATOM     11  C   UNL     1       7.149   2.993  -4.914  0.00  0.00    +0.020 A 
ATOM     12  C   UNL     1       7.150   2.941  -3.529  0.00  0.00    +0.008 A 
ENDBRANCH   3   7
TORSDOF 1
ENDMDL
MODEL 6
REMARK VINA RESULT:    -3.259      1.778      4.234
REMARK INTER + INTRA:          -3.655
REMARK INTER:                  -3.400
REMARK INTRA:                  -0.256
REMARK UNBOUND:                -0.206
REMARK  Name = Nicotine.pdb
REMARK  2 active torsions:
REMARK  status: ('A' for Active; 'I' for Inactive)
REMARK    1  A    between atoms: C_3  and  C_6
REMARK    2  A    between atoms: N_4  and  C_12
REMARK                            x       y       z     vdW  Elec       q    Type
REMARK                         _______ _______ _______ _____ _____    ______ ____
ROOT
ATOM      1  C   UNL     1       8.145   4.119  -5.718  0.00  0.00    +0.017 C 
ATOM      2  C   UNL     1       8.431   3.848  -4.218  0.00  0.00    +0.025 C 
ATOM      3  C   UNL     1       8.232   2.323  -4.096  0.00  0.00    +0.088 C 
ATOM      4  N   UNL     1       7.375   1.903  -5.220  0.00  0.00    -0.298 NA
ATOM      5  C   UNL     1       7.017   3.099  -6.011  0.00  0.00    +0.085 C 
ATOM      6  C   UNL     1       8.052   0.902  -6.054  0.00  0.00    +0.105 C 
ENDROOT
BRANCH   3   7
ATOM      7  C   UNL     1       7.560   1.996  -2.788  0.00  0.00    -0.012 A 
ATOM      8  C   UNL     1       7.727   0.752  -2.208  0.00  0.00    +0.115 A 
ATOM      9  N   UNL     1       7.143   0.458  -1.063  0.00  0.00    -0.263 NA
ATOM     10  C   UNL     1       6.382   1.329  -0.429  0.00  0.00    +0.111 A 
ATOM     11  C   UNL     1       6.170   2.592  -0.947  0.00  0.00    +0.020 A 
ATOM     12  C   UNL     1       6.772   2.940  -2.147  0.00  0.00    +0.008 A 
ENDBRANCH   3   7
TORSDOF 1
ENDMDL
MODEL 7
REMARK VINA RESULT:    -3.158      1.703      2.442
REMARK INTER + INTRA:          -3.549
REMARK INTER:                  -3.380
REMARK INTRA:                  -0.168
REMARK UNBOUND:                -0.206
REMARK  Name = Nicotine.pdb
REMARK  2 active torsions:
REMARK  status: ('A' for Active; 'I' for Inactive)
REMARK    1  A    between atoms: C_3  and  C_6
REMARK    2  A    between atoms: N_4  and  C_12
REMARK                            x       y       z     vdW  Elec       q    Type
REMARK                         _______ _______ _______ _____ _____    ______ ____
ROOT
ATOM      1  C   UNL     1       7.646   0.739  -1.857  0.00  0.00    +0.017 C 
ATOM      2  C   UNL     1       7.988   0.936  -3.357  0.00  0.00    +0.025 C 
ATOM      3  C   UNL     1       8.392   2.424  -3.429  0.00  0.00    +0.088 C 
ATOM      4  N   UNL     1       7.783   3.098  -2.268  0.00  0.00    -0.298 NA
ATOM      5  C   UNL     1       7.004   2.104  -1.501  0.00  0.00    +0.085 C 
ATOM      6  C   UNL     1       8.809   3.728  -1.426  0.00  0.00    +0.105 C 
ENDROOT
BRANCH   3   7
ATOM      7  C   UNL     1       7.878   3.034  -4.707  0.00  0.00    -0.012 A 
ATOM      8  C   UNL     1       6.540   3.354  -4.839  0.00  0.00    +0.115 A 
ATOM      9  N   UNL     1       6.081   3.888  -5.954  0.00  0.00    -0.263 NA
ATOM     10  C   UNL     1       6.871   4.137  -6.979  0.00  0.00    +0.111 A 
ATOM     11  C   UNL     1       8.221   3.844  -6.920  0.00  0.00    +0.020 A 
ATOM     12  C   UNL     1       8.740   3.286  -5.762  0.00  0.00    +0.008 A 
ENDBRANCH   3   7
TORSDOF 1
ENDMDL
MODEL 8
REMARK VINA RESULT:    -3.082      2.432      3.360
REMARK INTER + INTRA:          -3.469
REMARK INTER:                  -3.245
REMARK INTRA:                  -0.224
REMARK UNBOUND:                -0.206
REMARK  Name = Nicotine.pdb
REMARK  2 active torsions:
REMARK  status: ('A' for Active; 'I' for Inactive)
REMARK    1  A    between atoms: C_3  and  C_6
REMARK    2  A    between atoms: N_4  and  C_12
REMARK                            x       y       z     vdW  Elec       q    Type
REMARK                         _______ _______ _______ _____ _____    ______ ____
ROOT
ATOM      1  C   UNL     1       5.696  -1.085  -0.019  0.00  0.00    +0.017 C 
ATOM      2  C   UNL     1       6.504  -0.870  -1.327  0.00  0.00    +0.025 C 
ATOM      3  C   UNL     1       7.217   0.475  -1.077  0.00  0.00    +0.088 C 
ATOM      4  N   UNL     1       6.448   1.192  -0.044  0.00  0.00    -0.298 NA
ATOM      5  C   UNL     1       5.283   0.365   0.335  0.00  0.00    +0.085 C 
ATOM      6  C   UNL     1       7.286   1.490   1.125  0.00  0.00    +0.105 C 
ENDROOT
BRANCH   3   7
ATOM      7  C   UNL     1       7.248   1.283  -2.348  0.00  0.00    -0.012 A 
ATOM      8  C   UNL     1       6.687   2.545  -2.388  0.00  0.00    +0.115 A 
ATOM      9  N   UNL     1       6.709   3.259  -3.497  0.00  0.00    -0.263 NA
ATOM     10  C   UNL     1       7.263   2.803  -4.603  0.00  0.00    +0.111 A 
ATOM     11  C   UNL     1       7.845   1.550  -4.639  0.00  0.00    +0.020 A 
ATOM     12  C   UNL     1       7.845   0.773  -3.491  0.00  0.00    +0.008 A 
ENDBRANCH   3   7
TORSDOF 1
ENDMDL
MODEL 9
REMARK VINA RESULT:    -3.041      2.011      3.243
REMARK INTER + INTRA:          -3.424
REMARK INTER:                  -3.226
REMARK INTRA:                  -0.198
REMARK UNBOUND:                -0.206
REMARK  Name = Nicotine.pdb
REMARK  2 active torsions:
REMARK  status: ('A' for Active; 'I' for Inactive)
REMARK    1  A    between atoms: C_3  and  C_6
REMARK    2  A    between atoms: N_4  and  C_12
REMARK                            x       y       z     vdW  Elec       q    Type
REMARK                         _______ _______ _______ _____ _____    ______ ____
ROOT
ATOM      1  C   UNL     1       5.989   2.237  -0.050  0.00  0.00    +0.017 C 
ATOM      2  C   UNL     1       6.384   3.220  -1.184  0.00  0.00    +0.025 C 
ATOM      3  C   UNL     1       7.130   2.312  -2.185  0.00  0.00    +0.088 C 
ATOM      4  N   UNL     1       7.606   1.135  -1.436  0.00  0.00    -0.298 NA
ATOM      5  C   UNL     1       7.212   1.287  -0.020  0.00  0.00    +0.085 C 
ATOM      6  C   UNL     1       7.064  -0.106  -2.005  0.00  0.00    +0.105 C 
ENDROOT
BRANCH   3   7
ATOM      7  C   UNL     1       8.300   3.054  -2.776  0.00  0.00    -0.012 A 
ATOM      8  C   UNL     1       8.266   3.482  -4.089  0.00  0.00    +0.115 A 
ATOM      9  N   UNL     1       9.287   4.132  -4.614  0.00  0.00    -0.263 NA
ATOM     10  C   UNL     1      10.372   4.399  -3.915  0.00  0.00    +0.111 A 
ATOM     11  C   UNL     1      10.478   4.004  -2.594  0.00  0.00    +0.020 A 
ATOM     12  C   UNL     1       9.423   3.323  -2.007  0.00  0.00    +0.008 A 
ENDBRANCH   3   7
TORSDOF 1
ENDMDL
MODEL 10
REMARK VINA RESULT:    -1.571      2.136      3.989
REMARK INTER + INTRA:          -1.869
REMARK INTER:                  -1.655
REMARK INTRA:                  -0.213
REMARK UNBOUND:                -0.206
REMARK  Name = Nicotine.pdb
REMARK  2 active torsions:
REMARK  status: ('A' for Active; 'I' for Inactive)
REMARK    1  A    between atoms: C_3  and  C_6
REMARK    2  A    between atoms: N_4  and  C_12
REMARK                            x       y       z     vdW  Elec       q    Type
REMARK                         _______ _______ _______ _____ _____    ______ ____
ROOT
ATOM      1  C   UNL     1       7.498   5.779  -6.240  0.00  0.00    +0.017 C 
ATOM      2  C   UNL     1       7.746   5.174  -4.833  0.00  0.00    +0.025 C 
ATOM      3  C   UNL     1       8.741   4.029  -5.118  0.00  0.00    +0.088 C 
ATOM      4  N   UNL     1       8.596   3.667  -6.539  0.00  0.00    -0.298 NA
ATOM      5  C   UNL     1       7.543   4.515  -7.136  0.00  0.00    +0.085 C 
ATOM      6  C   UNL     1       9.868   3.824  -7.256  0.00  0.00    +0.105 C 
ENDROOT
BRANCH   3   7
ATOM      7  C   UNL     1       8.419   2.841  -4.249  0.00  0.00    -0.012 A 
ATOM      8  C   UNL     1       7.920   1.680  -4.809  0.00  0.00    +0.115 A 
ATOM      9  N   UNL     1       7.635   0.636  -4.056  0.00  0.00    -0.263 NA
ATOM     10  C   UNL     1       7.811   0.655  -2.749  0.00  0.00    +0.111 A 
ATOM     11  C   UNL     1       8.306   1.781  -2.118  0.00  0.00    +0.020 A 
ATOM     12  C   UNL     1       8.623   2.897  -2.879  0.00  0.00    +0.008 A 
ENDBRANCH   3   7
TORSDOF 1
ENDMDL
