MODEL 1
REMARK VINA RESULT:     5.232      0.000      0.000
REMARK INTER + INTRA:           5.315
REMARK INTER:                   5.538
REMARK INTRA:                  -0.222
REMARK UNBOUND:                -0.222
REMARK  Name = Nicotine.pdb
REMARK  2 active torsions:
REMARK  status: ('A' for Active; 'I' for Inactive)
REMARK    1  A    between atoms: C_3  and  C_6
REMARK    2  A    between atoms: N_4  and  C_12
REMARK                            x       y       z     vdW  Elec       q    Type
REMARK                         _______ _______ _______ _____ _____    ______ ____
ROOT
ATOM      1  C   UNL     1      -1.087   2.704  -4.795  0.00  0.00    +0.017 C 
ATOM      2  C   UNL     1      -0.845   4.050  -5.528  0.00  0.00    +0.025 C 
ATOM      3  C   UNL     1       0.111   3.655  -6.673  0.00  0.00    +0.088 C 
ATOM      4  N   UNL     1       0.778   2.403  -6.273  0.00  0.00    -0.298 NA
ATOM      5  C   UNL     1       0.297   2.022  -4.927  0.00  0.00    +0.085 C 
ATOM      6  C   UNL     1       0.519   1.334  -7.246  0.00  0.00    +0.105 C 
ENDROOT
BRANCH   3   7
ATOM      7  C   UNL     1       1.136   4.739  -6.882  0.00  0.00    -0.012 A 
ATOM      8  C   UNL     1       2.483   4.429  -6.922  0.00  0.00    +0.115 A 
ATOM      9  N   UNL     1       3.387   5.372  -7.105  0.00  0.00    -0.263 NA
ATOM     10  C   UNL     1       3.048   6.637  -7.256  0.00  0.00    +0.111 A 
ATOM     11  C   UNL     1       1.720   7.022  -7.228  0.00  0.00    +0.020 A 
ATOM     12  C   UNL     1       0.742   6.058  -7.043  0.00  0.00    +0.008 A 
ENDBRANCH   3   7
TORSDOF 1
ENDMDL
