MODEL 1
REMARK VINA RESULT:    -2.777      0.000      0.000
REMARK INTER + INTRA:          -3.194
REMARK INTER:                  -2.940
REMARK INTRA:                  -0.255
REMARK UNBOUND:                -0.255
REMARK  Name = Nicotine.pdb
REMARK  2 active torsions:
REMARK  status: ('A' for Active; 'I' for Inactive)
REMARK    1  A    between atoms: C_3  and  C_6
REMARK    2  A    between atoms: N_4  and  C_12
REMARK                            x       y       z     vdW  Elec       q    Type
REMARK                         _______ _______ _______ _____ _____    ______ ____
ROOT
ATOM      1  C   UNL     1       6.952  -0.459  -3.079  0.00  0.00    +0.017 C 
ATOM      2  C   UNL     1       5.574  -1.102  -3.384  0.00  0.00    +0.025 C 
ATOM      3  C   UNL     1       5.675  -1.442  -4.887  0.00  0.00    +0.088 C 
ATOM      4  N   UNL     1       6.714  -0.570  -5.463  0.00  0.00    -0.298 NA
ATOM      5  C   UNL     1       7.239   0.307  -4.394  0.00  0.00    +0.085 C 
ATOM      6  C   UNL     1       7.791  -1.363  -6.070  0.00  0.00    +0.105 C 
ENDROOT
BRANCH   3   7
ATOM      7  C   UNL     1       4.353  -1.182  -5.561  0.00  0.00    -0.012 A 
ATOM      8  C   UNL     1       3.970  -1.929  -6.660  0.00  0.00    +0.115 A 
ATOM      9  N   UNL     1       2.815  -1.708  -7.256  0.00  0.00    -0.263 NA
ATOM     10  C   UNL     1       1.985  -0.774  -6.834  0.00  0.00    +0.111 A 
ATOM     11  C   UNL     1       2.300   0.012  -5.741  0.00  0.00    +0.020 A 
ATOM     12  C   UNL     1       3.504  -0.195  -5.086  0.00  0.00    +0.008 A 
ENDBRANCH   3   7
TORSDOF 1
ENDMDL
MODEL 2
REMARK VINA RESULT:    -2.623      0.865      1.375
REMARK INTER + INTRA:          -3.031
REMARK INTER:                  -2.817
REMARK INTRA:                  -0.214
REMARK UNBOUND:                -0.255
REMARK  Name = Nicotine.pdb
REMARK  2 active torsions:
REMARK  status: ('A' for Active; 'I' for Inactive)
REMARK    1  A    between atoms: C_3  and  C_6
REMARK    2  A    between atoms: N_4  and  C_12
REMARK                            x       y       z     vdW  Elec       q    Type
REMARK                         _______ _______ _______ _____ _____    ______ ____
ROOT
ATOM      1  C   UNL     1       7.192  -0.562  -2.994  0.00  0.00    +0.017 C 
ATOM      2  C   UNL     1       5.784  -1.147  -3.277  0.00  0.00    +0.025 C 
ATOM      3  C   UNL     1       5.832  -1.453  -4.789  0.00  0.00    +0.088 C 
ATOM      4  N   UNL     1       6.887  -0.604  -5.372  0.00  0.00    -0.298 NA
ATOM      5  C   UNL     1       7.471   0.226  -4.298  0.00  0.00    +0.085 C 
ATOM      6  C   UNL     1       7.917  -1.419  -6.028  0.00  0.00    +0.105 C 
ENDROOT
BRANCH   3   7
ATOM      7  C   UNL     1       4.503  -1.128  -5.420  0.00  0.00    -0.012 A 
ATOM      8  C   UNL     1       3.554  -0.409  -4.719  0.00  0.00    +0.115 A 
ATOM      9  N   UNL     1       2.388  -0.121  -5.265  0.00  0.00    -0.263 NA
ATOM     10  C   UNL     1       2.082  -0.503  -6.489  0.00  0.00    +0.111 A 
ATOM     11  C   UNL     1       2.982  -1.225  -7.251  0.00  0.00    +0.020 A 
ATOM     12  C   UNL     1       4.219  -1.542  -6.713  0.00  0.00    +0.008 A 
ENDBRANCH   3   7
TORSDOF 1
ENDMDL
MODEL 3
REMARK VINA RESULT:    -2.595      1.315      4.673
REMARK INTER + INTRA:          -3.001
REMARK INTER:                  -2.781
REMARK INTRA:                  -0.221
REMARK UNBOUND:                -0.255
REMARK  Name = Nicotine.pdb
REMARK  2 active torsions:
REMARK  status: ('A' for Active; 'I' for Inactive)
REMARK    1  A    between atoms: C_3  and  C_6
REMARK    2  A    between atoms: N_4  and  C_12
REMARK                            x       y       z     vdW  Elec       q    Type
REMARK                         _______ _______ _______ _____ _____    ______ ____
ROOT
ATOM      1  C   UNL     1       2.017  -0.863  -7.088  0.00  0.00    +0.017 C 
ATOM      2  C   UNL     1       3.486  -1.355  -7.162  0.00  0.00    +0.025 C 
ATOM      3  C   UNL     1       3.841  -1.612  -5.682  0.00  0.00    +0.088 C 
ATOM      4  N   UNL     1       2.914  -0.807  -4.865  0.00  0.00    -0.298 NA
ATOM      5  C   UNL     1       2.025  -0.049  -5.770  0.00  0.00    +0.085 C 
ATOM      6  C   UNL     1       2.138  -1.659  -3.955  0.00  0.00    +0.105 C 
ENDROOT
BRANCH   3   7
ATOM      7  C   UNL     1       5.262  -1.189  -5.414  0.00  0.00    -0.012 A 
ATOM      8  C   UNL     1       5.566  -0.421  -4.306  0.00  0.00    +0.115 A 
ATOM      9  N   UNL     1       6.807  -0.047  -4.065  0.00  0.00    -0.263 NA
ATOM     10  C   UNL     1       7.801  -0.386  -4.862  0.00  0.00    +0.111 A 
ATOM     11  C   UNL     1       7.573  -1.154  -5.989  0.00  0.00    +0.020 A 
ATOM     12  C   UNL     1       6.282  -1.570  -6.273  0.00  0.00    +0.008 A 
ENDBRANCH   3   7
TORSDOF 1
ENDMDL
MODEL 4
REMARK VINA RESULT:    -2.477      1.498      2.384
REMARK INTER + INTRA:          -2.877
REMARK INTER:                  -2.661
REMARK INTRA:                  -0.215
REMARK UNBOUND:                -0.255
REMARK  Name = Nicotine.pdb
REMARK  2 active torsions:
REMARK  status: ('A' for Active; 'I' for Inactive)
REMARK    1  A    between atoms: C_3  and  C_6
REMARK    2  A    between atoms: N_4  and  C_12
REMARK                            x       y       z     vdW  Elec       q    Type
REMARK                         _______ _______ _______ _____ _____    ______ ____
ROOT
ATOM      1  C   UNL     1       8.696  -0.701  -3.408  0.00  0.00    +0.017 C 
ATOM      2  C   UNL     1       7.865  -0.231  -4.631  0.00  0.00    +0.025 C 
ATOM      3  C   UNL     1       6.423  -0.205  -4.081  0.00  0.00    +0.088 C 
ATOM      4  N   UNL     1       6.384  -1.105  -2.915  0.00  0.00    -0.298 NA
ATOM      5  C   UNL     1       7.725  -1.702  -2.735  0.00  0.00    +0.085 C 
ATOM      6  C   UNL     1       5.963  -0.384  -1.707  0.00  0.00    +0.105 C 
ENDROOT
BRANCH   3   7
ATOM      7  C   UNL     1       5.463  -0.690  -5.137  0.00  0.00    -0.012 A 
ATOM      8  C   UNL     1       5.927  -1.391  -6.234  0.00  0.00    +0.115 A 
ATOM      9  N   UNL     1       5.093  -1.819  -7.162  0.00  0.00    -0.263 NA
ATOM     10  C   UNL     1       3.796  -1.598  -7.084  0.00  0.00    +0.111 A 
ATOM     11  C   UNL     1       3.259  -0.905  -6.015  0.00  0.00    +0.020 A 
ATOM     12  C   UNL     1       4.104  -0.444  -5.017  0.00  0.00    +0.008 A 
ENDBRANCH   3   7
TORSDOF 1
ENDMDL
MODEL 5
REMARK VINA RESULT:    -2.404      0.968      1.366
REMARK INTER + INTRA:          -2.800
REMARK INTER:                  -2.594
REMARK INTRA:                  -0.205
REMARK UNBOUND:                -0.255
REMARK  Name = Nicotine.pdb
REMARK  2 active torsions:
REMARK  status: ('A' for Active; 'I' for Inactive)
REMARK    1  A    between atoms: C_3  and  C_6
REMARK    2  A    between atoms: N_4  and  C_12
REMARK                            x       y       z     vdW  Elec       q    Type
REMARK                         _______ _______ _______ _____ _____    ______ ____
ROOT
ATOM      1  C   UNL     1       6.283  -2.351  -2.662  0.00  0.00    +0.017 C 
ATOM      2  C   UNL     1       5.461  -2.732  -3.921  0.00  0.00    +0.025 C 
ATOM      3  C   UNL     1       5.603  -1.485  -4.820  0.00  0.00    +0.088 C 
ATOM      4  N   UNL     1       5.942  -0.351  -3.942  0.00  0.00    -0.298 NA
ATOM      5  C   UNL     1       5.990  -0.834  -2.545  0.00  0.00    +0.085 C 
ATOM      6  C   UNL     1       7.221   0.256  -4.334  0.00  0.00    +0.105 C 
ENDROOT
BRANCH   3   7
ATOM      7  C   UNL     1       4.302  -1.215  -5.531  0.00  0.00    -0.012 A 
ATOM      8  C   UNL     1       3.935  -1.971  -6.628  0.00  0.00    +0.115 A 
ATOM      9  N   UNL     1       2.799  -1.740  -7.256  0.00  0.00    -0.263 NA
ATOM     10  C   UNL     1       1.973  -0.789  -6.868  0.00  0.00    +0.111 A 
ATOM     11  C   UNL     1       2.273   0.007  -5.778  0.00  0.00    +0.020 A 
ATOM     12  C   UNL     1       3.456  -0.209  -5.090  0.00  0.00    +0.008 A 
ENDBRANCH   3   7
TORSDOF 1
ENDMDL
MODEL 6
REMARK VINA RESULT:    -2.339      1.368      2.335
REMARK INTER + INTRA:          -2.730
REMARK INTER:                  -2.478
REMARK INTRA:                  -0.252
REMARK UNBOUND:                -0.255
REMARK  Name = Nicotine.pdb
REMARK  2 active torsions:
REMARK  status: ('A' for Active; 'I' for Inactive)
REMARK    1  A    between atoms: C_3  and  C_6
REMARK    2  A    between atoms: N_4  and  C_12
REMARK                            x       y       z     vdW  Elec       q    Type
REMARK                         _______ _______ _______ _____ _____    ______ ____
ROOT
ATOM      1  C   UNL     1       7.742  -1.122  -4.588  0.00  0.00    +0.017 C 
ATOM      2  C   UNL     1       6.691  -0.442  -5.504  0.00  0.00    +0.025 C 
ATOM      3  C   UNL     1       5.439  -0.374  -4.605  0.00  0.00    +0.088 C 
ATOM      4  N   UNL     1       5.591  -1.406  -3.564  0.00  0.00    -0.298 NA
ATOM      5  C   UNL     1       6.864  -2.122  -3.794  0.00  0.00    +0.085 C 
ATOM      6  C   UNL     1       5.557  -0.810  -2.222  0.00  0.00    +0.105 C 
ENDROOT
BRANCH   3   7
ATOM      7  C   UNL     1       4.204  -0.648  -5.424  0.00  0.00    -0.012 A 
ATOM      8  C   UNL     1       3.025   0.022  -5.158  0.00  0.00    +0.115 A 
ATOM      9  N   UNL     1       1.940  -0.212  -5.870  0.00  0.00    -0.263 NA
ATOM     10  C   UNL     1       1.934  -1.087  -6.856  0.00  0.00    +0.111 A 
ATOM     11  C   UNL     1       3.076  -1.795  -7.181  0.00  0.00    +0.020 A 
ATOM     12  C   UNL     1       4.237  -1.572  -6.458  0.00  0.00    +0.008 A 
ENDBRANCH   3   7
TORSDOF 1
ENDMDL
MODEL 7
REMARK VINA RESULT:    -2.327      1.506      4.194
REMARK INTER + INTRA:          -2.718
REMARK INTER:                  -2.510
REMARK INTRA:                  -0.208
REMARK UNBOUND:                -0.255
REMARK  Name = Nicotine.pdb
REMARK  2 active torsions:
REMARK  status: ('A' for Active; 'I' for Inactive)
REMARK    1  A    between atoms: C_3  and  C_6
REMARK    2  A    between atoms: N_4  and  C_12
REMARK                            x       y       z     vdW  Elec       q    Type
REMARK                         _______ _______ _______ _____ _____    ______ ____
ROOT
ATOM      1  C   UNL     1       3.348  -1.485  -2.915  0.00  0.00    +0.017 C 
ATOM      2  C   UNL     1       4.824  -1.083  -3.169  0.00  0.00    +0.025 C 
ATOM      3  C   UNL     1       4.783  -0.495  -4.596  0.00  0.00    +0.088 C 
ATOM      4  N   UNL     1       3.588  -1.045  -5.261  0.00  0.00    -0.298 NA
ATOM      5  C   UNL     1       2.907  -1.962  -4.322  0.00  0.00    +0.085 C 
ATOM      6  C   UNL     1       2.687   0.029  -5.697  0.00  0.00    +0.105 C 
ENDROOT
BRANCH   3   7
ATOM      7  C   UNL     1       6.023  -0.898  -5.352  0.00  0.00    -0.012 A 
ATOM      8  C   UNL     1       7.275  -0.669  -4.814  0.00  0.00    +0.115 A 
ATOM      9  N   UNL     1       8.365  -1.018  -5.469  0.00  0.00    -0.263 NA
ATOM     10  C   UNL     1       8.308  -1.594  -6.653  0.00  0.00    +0.111 A 
ATOM     11  C   UNL     1       7.090  -1.856  -7.255  0.00  0.00    +0.020 A 
ATOM     12  C   UNL     1       5.923  -1.507  -6.594  0.00  0.00    +0.008 A 
ENDBRANCH   3   7
TORSDOF 1
ENDMDL
MODEL 8
REMARK VINA RESULT:    -2.259      1.283      4.589
REMARK INTER + INTRA:          -2.646
REMARK INTER:                  -2.445
REMARK INTRA:                  -0.201
REMARK UNBOUND:                -0.255
REMARK  Name = Nicotine.pdb
REMARK  2 active torsions:
REMARK  status: ('A' for Active; 'I' for Inactive)
REMARK    1  A    between atoms: C_3  and  C_6
REMARK    2  A    between atoms: N_4  and  C_12
REMARK                            x       y       z     vdW  Elec       q    Type
REMARK                         _______ _______ _______ _____ _____    ______ ____
ROOT
ATOM      1  C   UNL     1       2.630  -3.207  -5.923  0.00  0.00    +0.017 C 
ATOM      2  C   UNL     1       3.793  -2.982  -4.921  0.00  0.00    +0.025 C 
ATOM      3  C   UNL     1       3.906  -1.444  -4.860  0.00  0.00    +0.088 C 
ATOM      4  N   UNL     1       3.307  -0.913  -6.098  0.00  0.00    -0.298 NA
ATOM      5  C   UNL     1       2.854  -2.049  -6.928  0.00  0.00    +0.085 C 
ATOM      6  C   UNL     1       2.193  -0.004  -5.797  0.00  0.00    +0.105 C 
ENDROOT
BRANCH   3   7
ATOM      7  C   UNL     1       5.355  -1.039  -4.776  0.00  0.00    -0.012 A 
ATOM      8  C   UNL     1       5.857  -0.478  -3.617  0.00  0.00    +0.115 A 
ATOM      9  N   UNL     1       7.124  -0.122  -3.534  0.00  0.00    -0.263 NA
ATOM     10  C   UNL     1       7.957  -0.283  -4.543  0.00  0.00    +0.111 A 
ATOM     11  C   UNL     1       7.526  -0.837  -5.734  0.00  0.00    +0.020 A 
ATOM     12  C   UNL     1       6.202  -1.230  -5.856  0.00  0.00    +0.008 A 
ENDBRANCH   3   7
TORSDOF 1
ENDMDL
MODEL 9
REMARK VINA RESULT:    -2.131      2.149      5.223
REMARK INTER + INTRA:          -2.511
REMARK INTER:                  -2.255
REMARK INTRA:                  -0.256
REMARK UNBOUND:                -0.255
REMARK  Name = Nicotine.pdb
REMARK  2 active torsions:
REMARK  status: ('A' for Active; 'I' for Inactive)
REMARK    1  A    between atoms: C_3  and  C_6
REMARK    2  A    between atoms: N_4  and  C_12
REMARK                            x       y       z     vdW  Elec       q    Type
REMARK                         _______ _______ _______ _____ _____    ______ ____
ROOT
ATOM      1  C   UNL     1       4.958  -1.183  -5.697  0.00  0.00    +0.017 C 
ATOM      2  C   UNL     1       5.715  -0.362  -4.620  0.00  0.00    +0.025 C 
ATOM      3  C   UNL     1       7.193  -0.526  -5.033  0.00  0.00    +0.088 C 
ATOM      4  N   UNL     1       7.285  -1.748  -5.852  0.00  0.00    -0.298 NA
ATOM      5  C   UNL     1       5.940  -2.357  -5.942  0.00  0.00    +0.085 C 
ATOM      6  C   UNL     1       7.818  -1.449  -7.187  0.00  0.00    +0.105 C 
ENDROOT
BRANCH   3   7
ATOM      7  C   UNL     1       8.055  -0.664  -3.805  0.00  0.00    -0.012 A 
ATOM      8  C   UNL     1       9.423  -0.484  -3.888  0.00  0.00    +0.115 A 
ATOM      9  N   UNL     1      10.185  -0.603  -2.818  0.00  0.00    -0.263 NA
ATOM     10  C   UNL     1       9.680  -0.897  -1.636  0.00  0.00    +0.111 A 
ATOM     11  C   UNL     1       8.321  -1.091  -1.476  0.00  0.00    +0.020 A 
ATOM     12  C   UNL     1       7.487  -0.969  -2.578  0.00  0.00    +0.008 A 
ENDBRANCH   3   7
TORSDOF 1
ENDMDL
MODEL 10
REMARK VINA RESULT:    -2.095      1.800      4.170
REMARK INTER + INTRA:          -2.472
REMARK INTER:                  -2.257
REMARK INTRA:                  -0.215
REMARK UNBOUND:                -0.255
REMARK  Name = Nicotine.pdb
REMARK  2 active torsions:
REMARK  status: ('A' for Active; 'I' for Inactive)
REMARK    1  A    between atoms: C_3  and  C_6
REMARK    2  A    between atoms: N_4  and  C_12
REMARK                            x       y       z     vdW  Elec       q    Type
REMARK                         _______ _______ _______ _____ _____    ______ ____
ROOT
ATOM      1  C   UNL     1       3.804  -1.498  -6.780  0.00  0.00    +0.017 C 
ATOM      2  C   UNL     1       3.736  -0.697  -5.453  0.00  0.00    +0.025 C 
ATOM      3  C   UNL     1       5.219  -0.583  -5.040  0.00  0.00    +0.088 C 
ATOM      4  N   UNL     1       5.945  -1.674  -5.714  0.00  0.00    -0.298 NA
ATOM      5  C   UNL     1       4.978  -2.469  -6.500  0.00  0.00    +0.085 C 
ATOM      6  C   UNL     1       7.013  -1.145  -6.573  0.00  0.00    +0.105 C 
ENDROOT
BRANCH   3   7
ATOM      7  C   UNL     1       5.348  -0.725  -3.546  0.00  0.00    -0.012 A 
ATOM      8  C   UNL     1       4.307  -1.246  -2.801  0.00  0.00    +0.115 A 
ATOM      9  N   UNL     1       4.412  -1.374  -1.492  0.00  0.00    -0.263 NA
ATOM     10  C   UNL     1       5.503  -1.014  -0.846  0.00  0.00    +0.111 A 
ATOM     11  C   UNL     1       6.586  -0.486  -1.525  0.00  0.00    +0.020 A 
ATOM     12  C   UNL     1       6.514  -0.341  -2.902  0.00  0.00    +0.008 A 
ENDBRANCH   3   7
TORSDOF 1
ENDMDL
