MODEL 1
REMARK VINA RESULT:    -3.684      0.000      0.000
REMARK INTER + INTRA:          -4.094
REMARK INTER:                  -3.900
REMARK INTRA:                  -0.195
REMARK UNBOUND:                -0.195
REMARK  Name = Nicotine.pdb
REMARK  2 active torsions:
REMARK  status: ('A' for Active; 'I' for Inactive)
REMARK    1  A    between atoms: C_3  and  C_6
REMARK    2  A    between atoms: N_4  and  C_12
REMARK                            x       y       z     vdW  Elec       q    Type
REMARK                         _______ _______ _______ _____ _____    ______ ____
ROOT
ATOM      1  C   UNL     1       8.606  -0.475   3.022  0.00  0.00    +0.017 C 
ATOM      2  C   UNL     1       8.417  -2.014   2.983  0.00  0.00    +0.025 C 
ATOM      3  C   UNL     1       8.626  -2.427   4.455  0.00  0.00    +0.088 C 
ATOM      4  N   UNL     1       9.411  -1.360   5.101  0.00  0.00    -0.298 NA
ATOM      5  C   UNL     1       9.716  -0.323   4.092  0.00  0.00    +0.085 C 
ATOM      6  C   UNL     1       8.684  -0.787   6.242  0.00  0.00    +0.105 C 
ENDROOT
BRANCH   3   7
ATOM      7  C   UNL     1       9.379  -3.730   4.520  0.00  0.00    -0.012 A 
ATOM      8  C   UNL     1       9.649  -4.440   3.365  0.00  0.00    +0.115 A 
ATOM      9  N   UNL     1      10.308  -5.581   3.413  0.00  0.00    -0.263 NA
ATOM     10  C   UNL     1      10.733  -6.089   4.553  0.00  0.00    +0.111 A 
ATOM     11  C   UNL     1      10.500  -5.436   5.749  0.00  0.00    +0.020 A 
ATOM     12  C   UNL     1       9.815  -4.230   5.738  0.00  0.00    +0.008 A 
ENDBRANCH   3   7
TORSDOF 1
ENDMDL
MODEL 2
REMARK VINA RESULT:    -3.675      1.359      4.670
REMARK INTER + INTRA:          -4.085
REMARK INTER:                  -3.915
REMARK INTRA:                  -0.170
REMARK UNBOUND:                -0.195
REMARK  Name = Nicotine.pdb
REMARK  2 active torsions:
REMARK  status: ('A' for Active; 'I' for Inactive)
REMARK    1  A    between atoms: C_3  and  C_6
REMARK    2  A    between atoms: N_4  and  C_12
REMARK                            x       y       z     vdW  Elec       q    Type
REMARK                         _______ _______ _______ _____ _____    ______ ____
ROOT
ATOM      1  C   UNL     1       8.765  -4.443   6.244  0.00  0.00    +0.017 C 
ATOM      2  C   UNL     1       8.099  -3.178   5.641  0.00  0.00    +0.025 C 
ATOM      3  C   UNL     1       8.669  -3.136   4.207  0.00  0.00    +0.088 C 
ATOM      4  N   UNL     1       9.924  -3.909   4.213  0.00  0.00    -0.298 NA
ATOM      5  C   UNL     1      10.166  -4.403   5.585  0.00  0.00    +0.085 C 
ATOM      6  C   UNL     1       9.863  -5.020   3.256  0.00  0.00    +0.105 C 
ENDROOT
BRANCH   3   7
ATOM      7  C   UNL     1       8.946  -1.709   3.808  0.00  0.00    -0.012 A 
ATOM      8  C   UNL     1       9.986  -1.010   4.390  0.00  0.00    +0.115 A 
ATOM      9  N   UNL     1      10.235   0.239   4.046  0.00  0.00    -0.263 NA
ATOM     10  C   UNL     1       9.510   0.867   3.142  0.00  0.00    +0.111 A 
ATOM     11  C   UNL     1       8.453   0.231   2.517  0.00  0.00    +0.020 A 
ATOM     12  C   UNL     1       8.165  -1.084   2.849  0.00  0.00    +0.008 A 
ENDBRANCH   3   7
TORSDOF 1
ENDMDL
MODEL 3
REMARK VINA RESULT:    -3.358      1.594      4.465
REMARK INTER + INTRA:          -3.749
REMARK INTER:                  -3.528
REMARK INTRA:                  -0.221
REMARK UNBOUND:                -0.195
REMARK  Name = Nicotine.pdb
REMARK  2 active torsions:
REMARK  status: ('A' for Active; 'I' for Inactive)
REMARK    1  A    between atoms: C_3  and  C_6
REMARK    2  A    between atoms: N_4  and  C_12
REMARK                            x       y       z     vdW  Elec       q    Type
REMARK                         _______ _______ _______ _____ _____    ______ ____
ROOT
ATOM      1  C   UNL     1      10.214  -5.336   4.265  0.00  0.00    +0.017 C 
ATOM      2  C   UNL     1       9.699  -4.282   3.249  0.00  0.00    +0.025 C 
ATOM      3  C   UNL     1       9.684  -2.980   4.078  0.00  0.00    +0.088 C 
ATOM      4  N   UNL     1       9.619  -3.367   5.499  0.00  0.00    -0.298 NA
ATOM      5  C   UNL     1       9.567  -4.842   5.583  0.00  0.00    +0.085 C 
ATOM      6  C   UNL     1      10.768  -2.836   6.243  0.00  0.00    +0.105 C 
ENDROOT
BRANCH   3   7
ATOM      7  C   UNL     1       8.477  -2.154   3.714  0.00  0.00    -0.012 A 
ATOM      8  C   UNL     1       7.515  -1.867   4.664  0.00  0.00    +0.115 A 
ATOM      9  N   UNL     1       6.456  -1.145   4.353  0.00  0.00    -0.263 NA
ATOM     10  C   UNL     1       6.271  -0.672   3.137  0.00  0.00    +0.111 A 
ATOM     11  C   UNL     1       7.192  -0.918   2.135  0.00  0.00    +0.020 A 
ATOM     12  C   UNL     1       8.321  -1.669   2.425  0.00  0.00    +0.008 A 
ENDBRANCH   3   7
TORSDOF 1
ENDMDL
MODEL 4
REMARK VINA RESULT:    -3.283      1.670      4.469
REMARK INTER + INTRA:          -3.670
REMARK INTER:                  -3.446
REMARK INTRA:                  -0.223
REMARK UNBOUND:                -0.195
REMARK  Name = Nicotine.pdb
REMARK  2 active torsions:
REMARK  status: ('A' for Active; 'I' for Inactive)
REMARK    1  A    between atoms: C_3  and  C_6
REMARK    2  A    between atoms: N_4  and  C_12
REMARK                            x       y       z     vdW  Elec       q    Type
REMARK                         _______ _______ _______ _____ _____    ______ ____
ROOT
ATOM      1  C   UNL     1      10.254  -4.851   5.435  0.00  0.00    +0.017 C 
ATOM      2  C   UNL     1      10.400  -3.309   5.357  0.00  0.00    +0.025 C 
ATOM      3  C   UNL     1       8.939  -2.828   5.232  0.00  0.00    +0.088 C 
ATOM      4  N   UNL     1       8.150  -3.957   4.707  0.00  0.00    -0.298 NA
ATOM      5  C   UNL     1       9.059  -5.101   4.480  0.00  0.00    +0.085 C 
ATOM      6  C   UNL     1       7.068  -4.319   5.632  0.00  0.00    +0.105 C 
ENDROOT
BRANCH   3   7
ATOM      7  C   UNL     1       8.863  -1.662   4.280  0.00  0.00    -0.012 A 
ATOM      8  C   UNL     1       7.978  -1.682   3.219  0.00  0.00    +0.115 A 
ATOM      9  N   UNL     1       7.905  -0.666   2.381  0.00  0.00    -0.263 NA
ATOM     10  C   UNL     1       8.666   0.401   2.519  0.00  0.00    +0.111 A 
ATOM     11  C   UNL     1       9.575   0.493   3.557  0.00  0.00    +0.020 A 
ATOM     12  C   UNL     1       9.676  -0.553   4.460  0.00  0.00    +0.008 A 
ENDBRANCH   3   7
TORSDOF 1
ENDMDL
MODEL 5
REMARK VINA RESULT:    -3.220      7.782      9.380
REMARK INTER + INTRA:          -3.603
REMARK INTER:                  -3.348
REMARK INTRA:                  -0.255
REMARK UNBOUND:                -0.195
REMARK  Name = Nicotine.pdb
REMARK  2 active torsions:
REMARK  status: ('A' for Active; 'I' for Inactive)
REMARK    1  A    between atoms: C_3  and  C_6
REMARK    2  A    between atoms: N_4  and  C_12
REMARK                            x       y       z     vdW  Elec       q    Type
REMARK                         _______ _______ _______ _____ _____    ______ ____
ROOT
ATOM      1  C   UNL     1       9.552   0.620  -1.339  0.00  0.00    +0.017 C 
ATOM      2  C   UNL     1       9.811   0.727  -2.865  0.00  0.00    +0.025 C 
ATOM      3  C   UNL     1       8.448   0.341  -3.477  0.00  0.00    +0.088 C 
ATOM      4  N   UNL     1       7.722  -0.447  -2.464  0.00  0.00    -0.298 NA
ATOM      5  C   UNL     1       8.583  -0.587  -1.270  0.00  0.00    +0.085 C 
ATOM      6  C   UNL     1       6.443   0.186  -2.121  0.00  0.00    +0.105 C 
ENDROOT
BRANCH   3   7
ATOM      7  C   UNL     1       8.658  -0.486  -4.718  0.00  0.00    -0.012 A 
ATOM      8  C   UNL     1       7.715  -0.483  -5.728  0.00  0.00    +0.115 A 
ATOM      9  N   UNL     1       7.892  -1.204  -6.819  0.00  0.00    -0.263 NA
ATOM     10  C   UNL     1       8.965  -1.951  -6.989  0.00  0.00    +0.111 A 
ATOM     11  C   UNL     1       9.952  -2.004  -6.022  0.00  0.00    +0.020 A 
ATOM     12  C   UNL     1       9.803  -1.255  -4.865  0.00  0.00    +0.008 A 
ENDBRANCH   3   7
TORSDOF 1
ENDMDL
MODEL 6
REMARK VINA RESULT:    -3.170      1.846      4.770
REMARK INTER + INTRA:          -3.550
REMARK INTER:                  -3.355
REMARK INTRA:                  -0.195
REMARK UNBOUND:                -0.195
REMARK  Name = Nicotine.pdb
REMARK  2 active torsions:
REMARK  status: ('A' for Active; 'I' for Inactive)
REMARK    1  A    between atoms: C_3  and  C_6
REMARK    2  A    between atoms: N_4  and  C_12
REMARK                            x       y       z     vdW  Elec       q    Type
REMARK                         _______ _______ _______ _____ _____    ______ ____
ROOT
ATOM      1  C   UNL     1      10.700  -2.644   5.833  0.00  0.00    +0.017 C 
ATOM      2  C   UNL     1      10.392  -1.251   5.223  0.00  0.00    +0.025 C 
ATOM      3  C   UNL     1       8.933  -1.399   4.740  0.00  0.00    +0.088 C 
ATOM      4  N   UNL     1       8.677  -2.839   4.559  0.00  0.00    -0.298 NA
ATOM      5  C   UNL     1       9.913  -3.582   4.883  0.00  0.00    +0.085 C 
ATOM      6  C   UNL     1       7.558  -3.285   5.400  0.00  0.00    +0.105 C 
ENDROOT
BRANCH   3   7
ATOM      7  C   UNL     1       8.752  -0.676   3.431  0.00  0.00    -0.012 A 
ATOM      8  C   UNL     1       9.328   0.564   3.231  0.00  0.00    +0.115 A 
ATOM      9  N   UNL     1       9.174   1.204   2.088  0.00  0.00    -0.263 NA
ATOM     10  C   UNL     1       8.470   0.692   1.097  0.00  0.00    +0.111 A 
ATOM     11  C   UNL     1       7.865  -0.545   1.223  0.00  0.00    +0.020 A 
ATOM     12  C   UNL     1       8.010  -1.249   2.409  0.00  0.00    +0.008 A 
ENDBRANCH   3   7
TORSDOF 1
ENDMDL
MODEL 7
REMARK VINA RESULT:    -3.162      2.579      3.814
REMARK INTER + INTRA:          -3.542
REMARK INTER:                  -3.369
REMARK INTRA:                  -0.172
REMARK UNBOUND:                -0.195
REMARK  Name = Nicotine.pdb
REMARK  2 active torsions:
REMARK  status: ('A' for Active; 'I' for Inactive)
REMARK    1  A    between atoms: C_3  and  C_6
REMARK    2  A    between atoms: N_4  and  C_12
REMARK                            x       y       z     vdW  Elec       q    Type
REMARK                         _______ _______ _______ _____ _____    ______ ____
ROOT
ATOM      1  C   UNL     1       6.678   0.363   0.705  0.00  0.00    +0.017 C 
ATOM      2  C   UNL     1       7.833  -0.596   1.093  0.00  0.00    +0.025 C 
ATOM      3  C   UNL     1       7.451  -1.041   2.521  0.00  0.00    +0.088 C 
ATOM      4  N   UNL     1       6.546  -0.015   3.070  0.00  0.00    -0.298 NA
ATOM      5  C   UNL     1       6.374   1.050   2.060  0.00  0.00    +0.085 C 
ATOM      6  C   UNL     1       5.253  -0.600   3.445  0.00  0.00    +0.105 C 
ENDROOT
BRANCH   3   7
ATOM      7  C   UNL     1       8.689  -1.145   3.374  0.00  0.00    -0.012 A 
ATOM      8  C   UNL     1       9.419  -0.014   3.687  0.00  0.00    +0.115 A 
ATOM      9  N   UNL     1      10.503  -0.096   4.433  0.00  0.00    -0.263 NA
ATOM     10  C   UNL     1      10.932  -1.249   4.907  0.00  0.00    +0.111 A 
ATOM     11  C   UNL     1      10.254  -2.423   4.636  0.00  0.00    +0.020 A 
ATOM     12  C   UNL     1       9.106  -2.375   3.859  0.00  0.00    +0.008 A 
ENDBRANCH   3   7
TORSDOF 1
ENDMDL
MODEL 8
REMARK VINA RESULT:    -3.137      2.879      4.797
REMARK INTER + INTRA:          -3.515
REMARK INTER:                  -3.279
REMARK INTRA:                  -0.235
REMARK UNBOUND:                -0.195
REMARK  Name = Nicotine.pdb
REMARK  2 active torsions:
REMARK  status: ('A' for Active; 'I' for Inactive)
REMARK    1  A    between atoms: C_3  and  C_6
REMARK    2  A    between atoms: N_4  and  C_12
REMARK                            x       y       z     vdW  Elec       q    Type
REMARK                         _______ _______ _______ _____ _____    ______ ____
ROOT
ATOM      1  C   UNL     1       7.263   0.562  -0.554  0.00  0.00    +0.017 C 
ATOM      2  C   UNL     1       7.086   0.055   0.902  0.00  0.00    +0.025 C 
ATOM      3  C   UNL     1       8.080   0.928   1.697  0.00  0.00    +0.088 C 
ATOM      4  N   UNL     1       9.091   1.419   0.742  0.00  0.00    -0.298 NA
ATOM      5  C   UNL     1       8.780   0.870  -0.595  0.00  0.00    +0.085 C 
ATOM      6  C   UNL     1       9.121   2.887   0.716  0.00  0.00    +0.105 C 
ENDROOT
BRANCH   3   7
ATOM      7  C   UNL     1       8.744   0.102   2.768  0.00  0.00    -0.012 A 
ATOM      8  C   UNL     1       9.721   0.657   3.574  0.00  0.00    +0.115 A 
ATOM      9  N   UNL     1      10.306  -0.058   4.514  0.00  0.00    -0.263 NA
ATOM     10  C   UNL     1       9.989  -1.321   4.723  0.00  0.00    +0.111 A 
ATOM     11  C   UNL     1       9.021  -1.943   3.957  0.00  0.00    +0.020 A 
ATOM     12  C   UNL     1       8.379  -1.221   2.963  0.00  0.00    +0.008 A 
ENDBRANCH   3   7
TORSDOF 1
ENDMDL
MODEL 9
REMARK VINA RESULT:    -3.084      3.358      5.723
REMARK INTER + INTRA:          -3.459
REMARK INTER:                  -3.277
REMARK INTRA:                  -0.182
REMARK UNBOUND:                -0.195
REMARK  Name = Nicotine.pdb
REMARK  2 active torsions:
REMARK  status: ('A' for Active; 'I' for Inactive)
REMARK    1  A    between atoms: C_3  and  C_6
REMARK    2  A    between atoms: N_4  and  C_12
REMARK                            x       y       z     vdW  Elec       q    Type
REMARK                         _______ _______ _______ _____ _____    ______ ____
ROOT
ATOM      1  C   UNL     1       6.164  -0.321   3.594  0.00  0.00    +0.017 C 
ATOM      2  C   UNL     1       6.209  -0.307   2.043  0.00  0.00    +0.025 C 
ATOM      3  C   UNL     1       7.506  -1.081   1.727  0.00  0.00    +0.088 C 
ATOM      4  N   UNL     1       8.363  -1.006   2.924  0.00  0.00    -0.298 NA
ATOM      5  C   UNL     1       7.667  -0.203   3.951  0.00  0.00    +0.085 C 
ATOM      6  C   UNL     1       8.681  -2.348   3.429  0.00  0.00    +0.105 C 
ENDROOT
BRANCH   3   7
ATOM      7  C   UNL     1       8.207  -0.449   0.552  0.00  0.00    -0.012 A 
ATOM      8  C   UNL     1       8.588   0.879   0.598  0.00  0.00    +0.115 A 
ATOM      9  N   UNL     1       9.202   1.440  -0.426  0.00  0.00    -0.263 NA
ATOM     10  C   UNL     1       9.475   0.766  -1.525  0.00  0.00    +0.111 A 
ATOM     11  C   UNL     1       9.125  -0.566  -1.643  0.00  0.00    +0.020 A 
ATOM     12  C   UNL     1       8.483  -1.192  -0.585  0.00  0.00    +0.008 A 
ENDBRANCH   3   7
TORSDOF 1
ENDMDL
MODEL 10
REMARK VINA RESULT:    -3.029      3.772      5.873
REMARK INTER + INTRA:          -3.401
REMARK INTER:                  -3.181
REMARK INTRA:                  -0.220
REMARK UNBOUND:                -0.195
REMARK  Name = Nicotine.pdb
REMARK  2 active torsions:
REMARK  status: ('A' for Active; 'I' for Inactive)
REMARK    1  A    between atoms: C_3  and  C_6
REMARK    2  A    between atoms: N_4  and  C_12
REMARK                            x       y       z     vdW  Elec       q    Type
REMARK                         _______ _______ _______ _____ _____    ______ ____
ROOT
ATOM      1  C   UNL     1       9.239  -0.483  -2.319  0.00  0.00    +0.017 C 
ATOM      2  C   UNL     1       8.595  -1.121  -1.060  0.00  0.00    +0.025 C 
ATOM      3  C   UNL     1       8.041   0.101  -0.296  0.00  0.00    +0.088 C 
ATOM      4  N   UNL     1       8.795   1.281  -0.756  0.00  0.00    -0.298 NA
ATOM      5  C   UNL     1       9.801   0.842  -1.746  0.00  0.00    +0.085 C 
ATOM      6  C   UNL     1       7.895   2.289  -1.331  0.00  0.00    +0.105 C 
ENDROOT
BRANCH   3   7
ATOM      7  C   UNL     1       8.237  -0.089   1.186  0.00  0.00    -0.012 A 
ATOM      8  C   UNL     1       8.775   0.925   1.955  0.00  0.00    +0.115 A 
ATOM      9  N   UNL     1       8.950   0.768   3.253  0.00  0.00    -0.263 NA
ATOM     10  C   UNL     1       8.622  -0.353   3.865  0.00  0.00    +0.111 A 
ATOM     11  C   UNL     1       8.078  -1.411   3.161  0.00  0.00    +0.020 A 
ATOM     12  C   UNL     1       7.875  -1.280   1.796  0.00  0.00    +0.008 A 
ENDBRANCH   3   7
TORSDOF 1
ENDMDL
