MODEL 1
REMARK VINA RESULT:    -3.209      0.000      0.000
REMARK INTER + INTRA:          -3.625
REMARK INTER:                  -3.396
REMARK INTRA:                  -0.229
REMARK UNBOUND:                -0.229
REMARK  Name = Nicotine.pdb
REMARK  2 active torsions:
REMARK  status: ('A' for Active; 'I' for Inactive)
REMARK    1  A    between atoms: C_3  and  C_6
REMARK    2  A    between atoms: N_4  and  C_12
REMARK                            x       y       z     vdW  Elec       q    Type
REMARK                         _______ _______ _______ _____ _____    ______ ____
ROOT
ATOM      1  C   UNL     1      10.074   1.007  -3.863  0.00  0.00    +0.017 C 
ATOM      2  C   UNL     1       9.664   2.220  -2.988  0.00  0.00    +0.025 C 
ATOM      3  C   UNL     1       9.505   3.355  -4.022  0.00  0.00    +0.088 C 
ATOM      4  N   UNL     1      10.296   2.980  -5.208  0.00  0.00    -0.298 NA
ATOM      5  C   UNL     1      10.954   1.683  -4.944  0.00  0.00    +0.085 C 
ATOM      6  C   UNL     1       9.449   2.908  -6.405  0.00  0.00    +0.105 C 
ENDROOT
BRANCH   3   7
ATOM      7  C   UNL     1      10.022   4.649  -3.447  0.00  0.00    -0.012 A 
ATOM      8  C   UNL     1      10.147   5.769  -4.247  0.00  0.00    +0.115 A 
ATOM      9  N   UNL     1      10.599   6.904  -3.752  0.00  0.00    -0.263 NA
ATOM     10  C   UNL     1      10.947   7.019  -2.486  0.00  0.00    +0.111 A 
ATOM     11  C   UNL     1      10.848   5.942  -1.625  0.00  0.00    +0.020 A 
ATOM     12  C   UNL     1      10.372   4.733  -2.108  0.00  0.00    +0.008 A 
ENDBRANCH   3   7
TORSDOF 1
ENDMDL
MODEL 2
REMARK VINA RESULT:    -2.943      1.480      4.530
REMARK INTER + INTRA:          -3.343
REMARK INTER:                  -3.151
REMARK INTRA:                  -0.192
REMARK UNBOUND:                -0.229
REMARK  Name = Nicotine.pdb
REMARK  2 active torsions:
REMARK  status: ('A' for Active; 'I' for Inactive)
REMARK    1  A    between atoms: C_3  and  C_6
REMARK    2  A    between atoms: N_4  and  C_12
REMARK                            x       y       z     vdW  Elec       q    Type
REMARK                         _______ _______ _______ _____ _____    ______ ____
ROOT
ATOM      1  C   UNL     1      10.232   7.028  -1.348  0.00  0.00    +0.017 C 
ATOM      2  C   UNL     1      10.938   5.648  -1.409  0.00  0.00    +0.025 C 
ATOM      3  C   UNL     1      10.952   5.331  -2.919  0.00  0.00    +0.088 C 
ATOM      4  N   UNL     1       9.879   6.126  -3.542  0.00  0.00    -0.298 NA
ATOM      5  C   UNL     1       9.189   6.896  -2.485  0.00  0.00    +0.085 C 
ATOM      6  C   UNL     1      10.416   7.018  -4.578  0.00  0.00    +0.105 C 
ENDROOT
BRANCH   3   7
ATOM      7  C   UNL     1      10.698   3.863  -3.138  0.00  0.00    -0.012 A 
ATOM      8  C   UNL     1      10.674   2.990  -2.066  0.00  0.00    +0.115 A 
ATOM      9  N   UNL     1      10.451   1.703  -2.249  0.00  0.00    -0.263 NA
ATOM     10  C   UNL     1      10.245   1.199  -3.449  0.00  0.00    +0.111 A 
ATOM     11  C   UNL     1      10.254   2.010  -4.569  0.00  0.00    +0.020 A 
ATOM     12  C   UNL     1      10.479   3.370  -4.415  0.00  0.00    +0.008 A 
ENDBRANCH   3   7
TORSDOF 1
ENDMDL
MODEL 3
REMARK VINA RESULT:    -2.849      1.634      2.553
REMARK INTER + INTRA:          -3.245
REMARK INTER:                  -3.052
REMARK INTRA:                  -0.192
REMARK UNBOUND:                -0.229
REMARK  Name = Nicotine.pdb
REMARK  2 active torsions:
REMARK  status: ('A' for Active; 'I' for Inactive)
REMARK    1  A    between atoms: C_3  and  C_6
REMARK    2  A    between atoms: N_4  and  C_12
REMARK                            x       y       z     vdW  Elec       q    Type
REMARK                         _______ _______ _______ _____ _____    ______ ____
ROOT
ATOM      1  C   UNL     1      10.307   1.017  -3.787  0.00  0.00    +0.017 C 
ATOM      2  C   UNL     1      10.781   2.240  -4.615  0.00  0.00    +0.025 C 
ATOM      3  C   UNL     1      10.953   3.339  -3.544  0.00  0.00    +0.088 C 
ATOM      4  N   UNL     1      10.120   2.958  -2.390  0.00  0.00    -0.298 NA
ATOM      5  C   UNL     1       9.424   1.693  -2.708  0.00  0.00    +0.085 C 
ATOM      6  C   UNL     1      10.933   2.821  -1.175  0.00  0.00    +0.105 C 
ENDROOT
BRANCH   3   7
ATOM      7  C   UNL     1      10.496   4.666  -4.093  0.00  0.00    -0.012 A 
ATOM      8  C   UNL     1      10.198   4.802  -5.436  0.00  0.00    +0.115 A 
ATOM      9  N   UNL     1       9.797   5.959  -5.924  0.00  0.00    -0.263 NA
ATOM     10  C   UNL     1       9.666   7.026  -5.160  0.00  0.00    +0.111 A 
ATOM     11  C   UNL     1       9.945   6.966  -3.807  0.00  0.00    +0.020 A 
ATOM     12  C   UNL     1      10.364   5.764  -3.257  0.00  0.00    +0.008 A 
ENDBRANCH   3   7
TORSDOF 1
ENDMDL
MODEL 4
REMARK VINA RESULT:    -2.510      3.454      6.182
REMARK INTER + INTRA:          -2.885
REMARK INTER:                  -2.689
REMARK INTRA:                  -0.196
REMARK UNBOUND:                -0.229
REMARK  Name = Nicotine.pdb
REMARK  2 active torsions:
REMARK  status: ('A' for Active; 'I' for Inactive)
REMARK    1  A    between atoms: C_3  and  C_6
REMARK    2  A    between atoms: N_4  and  C_12
REMARK                            x       y       z     vdW  Elec       q    Type
REMARK                         _______ _______ _______ _____ _____    ______ ____
ROOT
ATOM      1  C   UNL     1       9.876   2.924  -1.290  0.00  0.00    +0.017 C 
ATOM      2  C   UNL     1      10.780   1.730  -0.886  0.00  0.00    +0.025 C 
ATOM      3  C   UNL     1      10.951   0.960  -2.213  0.00  0.00    +0.088 C 
ATOM      4  N   UNL     1       9.821   1.331  -3.083  0.00  0.00    -0.298 NA
ATOM      5  C   UNL     1       8.949   2.271  -2.346  0.00  0.00    +0.085 C 
ATOM      6  C   UNL     1      10.295   1.925  -4.339  0.00  0.00    +0.105 C 
ENDROOT
BRANCH   3   7
ATOM      7  C   UNL     1      10.933  -0.524  -1.950  0.00  0.00    -0.012 A 
ATOM      8  C   UNL     1      10.889  -1.004  -0.655  0.00  0.00    +0.115 A 
ATOM      9  N   UNL     1      10.873  -2.301  -0.417  0.00  0.00    -0.263 NA
ATOM     10  C   UNL     1      10.897  -3.186  -1.394  0.00  0.00    +0.111 A 
ATOM     11  C   UNL     1      10.941  -2.780  -2.715  0.00  0.00    +0.020 A 
ATOM     12  C   UNL     1      10.954  -1.424  -3.005  0.00  0.00    +0.008 A 
ENDBRANCH   3   7
TORSDOF 1
ENDMDL
MODEL 5
REMARK VINA RESULT:    -2.193      1.399      4.377
REMARK INTER + INTRA:          -2.550
REMARK INTER:                  -2.355
REMARK INTRA:                  -0.195
REMARK UNBOUND:                -0.229
REMARK  Name = Nicotine.pdb
REMARK  2 active torsions:
REMARK  status: ('A' for Active; 'I' for Inactive)
REMARK    1  A    between atoms: C_3  and  C_6
REMARK    2  A    between atoms: N_4  and  C_12
REMARK                            x       y       z     vdW  Elec       q    Type
REMARK                         _______ _______ _______ _____ _____    ______ ____
ROOT
ATOM      1  C   UNL     1       9.811   7.004  -4.727  0.00  0.00    +0.017 C 
ATOM      2  C   UNL     1       9.355   5.521  -4.718  0.00  0.00    +0.025 C 
ATOM      3  C   UNL     1       9.516   5.117  -3.237  0.00  0.00    +0.088 C 
ATOM      4  N   UNL     1      10.486   6.047  -2.633  0.00  0.00    -0.298 NA
ATOM      5  C   UNL     1      10.949   6.987  -3.676  0.00  0.00    +0.085 C 
ATOM      6  C   UNL     1       9.890   6.768  -1.501  0.00  0.00    +0.105 C 
ENDROOT
BRANCH   3   7
ATOM      7  C   UNL     1      10.032   3.704  -3.145  0.00  0.00    -0.012 A 
ATOM      8  C   UNL     1      10.150   2.927  -4.281  0.00  0.00    +0.115 A 
ATOM      9  N   UNL     1      10.601   1.690  -4.209  0.00  0.00    -0.263 NA
ATOM     10  C   UNL     1      10.954   1.147  -3.060  0.00  0.00    +0.111 A 
ATOM     11  C   UNL     1      10.863   1.863  -1.881  0.00  0.00    +0.020 A 
ATOM     12  C   UNL     1      10.399   3.169  -1.919  0.00  0.00    +0.008 A 
ENDBRANCH   3   7
TORSDOF 1
ENDMDL
MODEL 6
REMARK VINA RESULT:    -2.079      1.879      3.719
REMARK INTER + INTRA:          -2.429
REMARK INTER:                  -2.218
REMARK INTRA:                  -0.211
REMARK UNBOUND:                -0.229
REMARK  Name = Nicotine.pdb
REMARK  2 active torsions:
REMARK  status: ('A' for Active; 'I' for Inactive)
REMARK    1  A    between atoms: C_3  and  C_6
REMARK    2  A    between atoms: N_4  and  C_12
REMARK                            x       y       z     vdW  Elec       q    Type
REMARK                         _______ _______ _______ _____ _____    ______ ____
ROOT
ATOM      1  C   UNL     1       9.866   3.304  -6.514  0.00  0.00    +0.017 C 
ATOM      2  C   UNL     1       9.420   2.364  -5.363  0.00  0.00    +0.025 C 
ATOM      3  C   UNL     1       9.484   3.279  -4.122  0.00  0.00    +0.088 C 
ATOM      4  N   UNL     1      10.405   4.384  -4.441  0.00  0.00    -0.298 NA
ATOM      5  C   UNL     1      10.931   4.179  -5.808  0.00  0.00    +0.085 C 
ATOM      6  C   UNL     1       9.731   5.684  -4.326  0.00  0.00    +0.105 C 
ENDROOT
BRANCH   3   7
ATOM      7  C   UNL     1      10.001   2.504  -2.938  0.00  0.00    -0.012 A 
ATOM      8  C   UNL     1      10.495   1.224  -3.103  0.00  0.00    +0.115 A 
ATOM      9  N   UNL     1      10.949   0.538  -2.072  0.00  0.00    -0.263 NA
ATOM     10  C   UNL     1      10.952   1.040  -0.853  0.00  0.00    +0.111 A 
ATOM     11  C   UNL     1      10.474   2.314  -0.611  0.00  0.00    +0.020 A 
ATOM     12  C   UNL     1       9.993   3.067  -1.671  0.00  0.00    +0.008 A 
ENDBRANCH   3   7
TORSDOF 1
ENDMDL
MODEL 7
REMARK VINA RESULT:    -2.058      1.375      2.233
REMARK INTER + INTRA:          -2.407
REMARK INTER:                  -2.191
REMARK INTRA:                  -0.215
REMARK UNBOUND:                -0.229
REMARK  Name = Nicotine.pdb
REMARK  2 active torsions:
REMARK  status: ('A' for Active; 'I' for Inactive)
REMARK    1  A    between atoms: C_3  and  C_6
REMARK    2  A    between atoms: N_4  and  C_12
REMARK                            x       y       z     vdW  Elec       q    Type
REMARK                         _______ _______ _______ _____ _____    ______ ____
ROOT
ATOM      1  C   UNL     1       9.670   1.250  -1.099  0.00  0.00    +0.017 C 
ATOM      2  C   UNL     1       9.188   2.687  -1.428  0.00  0.00    +0.025 C 
ATOM      3  C   UNL     1       9.556   2.844  -2.919  0.00  0.00    +0.088 C 
ATOM      4  N   UNL     1      10.626   1.872  -3.209  0.00  0.00    -0.298 NA
ATOM      5  C   UNL     1      10.950   1.143  -1.964  0.00  0.00    +0.085 C 
ATOM      6  C   UNL     1      10.220   0.944  -4.272  0.00  0.00    +0.105 C 
ENDROOT
BRANCH   3   7
ATOM      7  C   UNL     1      10.049   4.243  -3.181  0.00  0.00    -0.012 A 
ATOM      8  C   UNL     1      10.519   5.025  -2.142  0.00  0.00    +0.115 A 
ATOM      9  N   UNL     1      10.952   6.251  -2.363  0.00  0.00    -0.263 NA
ATOM     10  C   UNL     1      10.954   6.778  -3.571  0.00  0.00    +0.111 A 
ATOM     11  C   UNL     1      10.499   6.056  -4.659  0.00  0.00    +0.020 A 
ATOM     12  C   UNL     1      10.041   4.762  -4.466  0.00  0.00    +0.008 A 
ENDBRANCH   3   7
TORSDOF 1
ENDMDL
