MODEL 1
REMARK VINA RESULT:    -3.069      0.000      0.000
REMARK INTER + INTRA:          -3.501
REMARK INTER:                  -3.249
REMARK INTRA:                  -0.253
REMARK UNBOUND:                -0.253
REMARK  Name = Nicotine.pdb
REMARK  2 active torsions:
REMARK  status: ('A' for Active; 'I' for Inactive)
REMARK    1  A    between atoms: C_3  and  C_6
REMARK    2  A    between atoms: N_4  and  C_12
REMARK                            x       y       z     vdW  Elec       q    Type
REMARK                         _______ _______ _______ _____ _____    ______ ____
ROOT
ATOM      1  C   UNL     1       4.170  -4.653  -6.474  0.00  0.00    +0.017 C 
ATOM      2  C   UNL     1       3.357  -5.652  -5.608  0.00  0.00    +0.025 C 
ATOM      3  C   UNL     1       1.925  -5.081  -5.672  0.00  0.00    +0.088 C 
ATOM      4  N   UNL     1       2.039  -3.652  -6.015  0.00  0.00    -0.298 NA
ATOM      5  C   UNL     1       3.472  -3.311  -6.140  0.00  0.00    +0.085 C 
ATOM      6  C   UNL     1       1.315  -3.348  -7.256  0.00  0.00    +0.105 C 
ENDROOT
BRANCH   3   7
ATOM      7  C   UNL     1       1.251  -5.235  -4.333  0.00  0.00    -0.012 A 
ATOM      8  C   UNL     1      -0.108  -5.020  -4.205  0.00  0.00    +0.115 A 
ATOM      9  N   UNL     1      -0.706  -5.153  -3.037  0.00  0.00    -0.263 NA
ATOM     10  C   UNL     1      -0.038  -5.494  -1.953  0.00  0.00    +0.111 A 
ATOM     11  C   UNL     1       1.324  -5.727  -2.003  0.00  0.00    +0.020 A 
ATOM     12  C   UNL     1       1.985  -5.601  -3.215  0.00  0.00    +0.008 A 
ENDBRANCH   3   7
TORSDOF 1
ENDMDL
MODEL 2
REMARK VINA RESULT:    -2.869      1.570      4.323
REMARK INTER + INTRA:          -3.290
REMARK INTER:                  -3.074
REMARK INTRA:                  -0.215
REMARK UNBOUND:                -0.253
REMARK  Name = Nicotine.pdb
REMARK  2 active torsions:
REMARK  status: ('A' for Active; 'I' for Inactive)
REMARK    1  A    between atoms: C_3  and  C_6
REMARK    2  A    between atoms: N_4  and  C_12
REMARK                            x       y       z     vdW  Elec       q    Type
REMARK                         _______ _______ _______ _____ _____    ______ ____
ROOT
ATOM      1  C   UNL     1       1.118  -6.052  -1.944  0.00  0.00    +0.017 C 
ATOM      2  C   UNL     1       0.502  -5.870  -3.356  0.00  0.00    +0.025 C 
ATOM      3  C   UNL     1       1.741  -5.658  -4.251  0.00  0.00    +0.088 C 
ATOM      4  N   UNL     1       2.834  -5.188  -3.380  0.00  0.00    -0.298 NA
ATOM      5  C   UNL     1       2.319  -5.075  -1.999  0.00  0.00    +0.085 C 
ATOM      6  C   UNL     1       3.985  -6.096  -3.441  0.00  0.00    +0.105 C 
ENDROOT
BRANCH   3   7
ATOM      7  C   UNL     1       1.442  -4.624  -5.305  0.00  0.00    -0.012 A 
ATOM      8  C   UNL     1       2.455  -3.835  -5.817  0.00  0.00    +0.115 A 
ATOM      9  N   UNL     1       2.201  -2.927  -6.740  0.00  0.00    -0.263 NA
ATOM     10  C   UNL     1       0.984  -2.737  -7.209  0.00  0.00    +0.111 A 
ATOM     11  C   UNL     1      -0.079  -3.489  -6.745  0.00  0.00    +0.020 A 
ATOM     12  C   UNL     1       0.150  -4.456  -5.778  0.00  0.00    +0.008 A 
ENDBRANCH   3   7
TORSDOF 1
ENDMDL
MODEL 3
REMARK VINA RESULT:    -2.795      2.067      3.939
REMARK INTER + INTRA:          -3.212
REMARK INTER:                  -2.992
REMARK INTRA:                  -0.219
REMARK UNBOUND:                -0.253
REMARK  Name = Nicotine.pdb
REMARK  2 active torsions:
REMARK  status: ('A' for Active; 'I' for Inactive)
REMARK    1  A    between atoms: C_3  and  C_6
REMARK    2  A    between atoms: N_4  and  C_12
REMARK                            x       y       z     vdW  Elec       q    Type
REMARK                         _______ _______ _______ _____ _____    ______ ____
ROOT
ATOM      1  C   UNL     1      -1.201  -4.602  -5.447  0.00  0.00    +0.017 C 
ATOM      2  C   UNL     1       0.141  -4.760  -4.684  0.00  0.00    +0.025 C 
ATOM      3  C   UNL     1       1.120  -3.914  -5.526  0.00  0.00    +0.088 C 
ATOM      4  N   UNL     1       0.548  -3.802  -6.880  0.00  0.00    -0.298 NA
ATOM      5  C   UNL     1      -0.721  -4.558  -6.919  0.00  0.00    +0.085 C 
ATOM      6  C   UNL     1       0.335  -2.396  -7.247  0.00  0.00    +0.105 C 
ENDROOT
BRANCH   3   7
ATOM      7  C   UNL     1       2.463  -4.595  -5.590  0.00  0.00    -0.012 A 
ATOM      8  C   UNL     1       3.125  -4.723  -6.796  0.00  0.00    +0.115 A 
ATOM      9  N   UNL     1       4.300  -5.318  -6.861  0.00  0.00    -0.263 NA
ATOM     10  C   UNL     1       4.887  -5.810  -5.788  0.00  0.00    +0.111 A 
ATOM     11  C   UNL     1       4.286  -5.718  -4.547  0.00  0.00    +0.020 A 
ATOM     12  C   UNL     1       3.052  -5.095  -4.439  0.00  0.00    +0.008 A 
ENDBRANCH   3   7
TORSDOF 1
ENDMDL
MODEL 4
REMARK VINA RESULT:    -2.702      1.498      4.523
REMARK INTER + INTRA:          -3.112
REMARK INTER:                  -2.934
REMARK INTRA:                  -0.178
REMARK UNBOUND:                -0.253
REMARK  Name = Nicotine.pdb
REMARK  2 active torsions:
REMARK  status: ('A' for Active; 'I' for Inactive)
REMARK    1  A    between atoms: C_3  and  C_6
REMARK    2  A    between atoms: N_4  and  C_12
REMARK                            x       y       z     vdW  Elec       q    Type
REMARK                         _______ _______ _______ _____ _____    ______ ____
ROOT
ATOM      1  C   UNL     1      -1.838  -5.819  -5.915  0.00  0.00    +0.017 C 
ATOM      2  C   UNL     1      -0.450  -5.876  -6.605  0.00  0.00    +0.025 C 
ATOM      3  C   UNL     1       0.518  -5.473  -5.473  0.00  0.00    +0.088 C 
ATOM      4  N   UNL     1      -0.265  -4.719  -4.477  0.00  0.00    -0.298 NA
ATOM      5  C   UNL     1      -1.660  -4.616  -4.954  0.00  0.00    +0.085 C 
ATOM      6  C   UNL     1      -0.204  -5.364  -3.159  0.00  0.00    +0.105 C 
ENDROOT
BRANCH   3   7
ATOM      7  C   UNL     1       1.620  -4.606  -6.025  0.00  0.00    -0.012 A 
ATOM      8  C   UNL     1       1.325  -3.391  -6.614  0.00  0.00    +0.115 A 
ATOM      9  N   UNL     1       2.283  -2.627  -7.099  0.00  0.00    -0.263 NA
ATOM     10  C   UNL     1       3.551  -2.985  -7.044  0.00  0.00    +0.111 A 
ATOM     11  C   UNL     1       3.922  -4.186  -6.469  0.00  0.00    +0.020 A 
ATOM     12  C   UNL     1       2.942  -5.014  -5.943  0.00  0.00    +0.008 A 
ENDBRANCH   3   7
TORSDOF 1
ENDMDL
MODEL 5
REMARK VINA RESULT:    -2.582      1.885      3.059
REMARK INTER + INTRA:          -2.986
REMARK INTER:                  -2.802
REMARK INTRA:                  -0.184
REMARK UNBOUND:                -0.253
REMARK  Name = Nicotine.pdb
REMARK  2 active torsions:
REMARK  status: ('A' for Active; 'I' for Inactive)
REMARK    1  A    between atoms: C_3  and  C_6
REMARK    2  A    between atoms: N_4  and  C_12
REMARK                            x       y       z     vdW  Elec       q    Type
REMARK                         _______ _______ _______ _____ _____    ______ ____
ROOT
ATOM      1  C   UNL     1       3.287  -5.328  -4.069  0.00  0.00    +0.017 C 
ATOM      2  C   UNL     1       1.785  -5.704  -3.965  0.00  0.00    +0.025 C 
ATOM      3  C   UNL     1       1.342  -5.771  -5.442  0.00  0.00    +0.088 C 
ATOM      4  N   UNL     1       2.296  -4.963  -6.222  0.00  0.00    -0.298 NA
ATOM      5  C   UNL     1       3.289  -4.381  -5.294  0.00  0.00    +0.085 C 
ATOM      6  C   UNL     1       2.952  -5.773  -7.256  0.00  0.00    +0.105 C 
ENDROOT
BRANCH   3   7
ATOM      7  C   UNL     1      -0.048  -5.208  -5.586  0.00  0.00    -0.012 A 
ATOM      8  C   UNL     1      -0.907  -5.180  -4.504  0.00  0.00    +0.115 A 
ATOM      9  N   UNL     1      -2.125  -4.688  -4.622  0.00  0.00    -0.263 NA
ATOM     10  C   UNL     1      -2.571  -4.207  -5.766  0.00  0.00    +0.111 A 
ATOM     11  C   UNL     1      -1.768  -4.201  -6.891  0.00  0.00    +0.020 A 
ATOM     12  C   UNL     1      -0.480  -4.705  -6.804  0.00  0.00    +0.008 A 
ENDBRANCH   3   7
TORSDOF 1
ENDMDL
MODEL 6
REMARK VINA RESULT:    -2.426      1.939      2.910
REMARK INTER + INTRA:          -2.821
REMARK INTER:                  -2.608
REMARK INTRA:                  -0.213
REMARK UNBOUND:                -0.253
REMARK  Name = Nicotine.pdb
REMARK  2 active torsions:
REMARK  status: ('A' for Active; 'I' for Inactive)
REMARK    1  A    between atoms: C_3  and  C_6
REMARK    2  A    between atoms: N_4  and  C_12
REMARK                            x       y       z     vdW  Elec       q    Type
REMARK                         _______ _______ _______ _____ _____    ______ ____
ROOT
ATOM      1  C   UNL     1       0.152  -3.004  -7.220  0.00  0.00    +0.017 C 
ATOM      2  C   UNL     1       1.358  -3.448  -6.350  0.00  0.00    +0.025 C 
ATOM      3  C   UNL     1       1.006  -4.906  -5.986  0.00  0.00    +0.088 C 
ATOM      4  N   UNL     1      -0.454  -5.050  -6.124  0.00  0.00    -0.298 NA
ATOM      5  C   UNL     1      -1.020  -3.746  -6.530  0.00  0.00    +0.085 C 
ATOM      6  C   UNL     1      -0.790  -6.097  -7.097  0.00  0.00    +0.105 C 
ENDROOT
BRANCH   3   7
ATOM      7  C   UNL     1       1.419  -5.193  -4.566  0.00  0.00    -0.012 A 
ATOM      8  C   UNL     1       2.756  -5.207  -4.216  0.00  0.00    +0.115 A 
ATOM      9  N   UNL     1       3.126  -5.458  -2.975  0.00  0.00    -0.263 NA
ATOM     10  C   UNL     1       2.245  -5.704  -2.025  0.00  0.00    +0.111 A 
ATOM     11  C   UNL     1       0.891  -5.707  -2.300  0.00  0.00    +0.020 A 
ATOM     12  C   UNL     1       0.464  -5.442  -3.592  0.00  0.00    +0.008 A 
ENDBRANCH   3   7
TORSDOF 1
ENDMDL
MODEL 7
REMARK VINA RESULT:    -2.234      2.044      3.547
REMARK INTER + INTRA:          -2.618
REMARK INTER:                  -2.412
REMARK INTRA:                  -0.206
REMARK UNBOUND:                -0.253
REMARK  Name = Nicotine.pdb
REMARK  2 active torsions:
REMARK  status: ('A' for Active; 'I' for Inactive)
REMARK    1  A    between atoms: C_3  and  C_6
REMARK    2  A    between atoms: N_4  and  C_12
REMARK                            x       y       z     vdW  Elec       q    Type
REMARK                         _______ _______ _______ _____ _____    ______ ____
ROOT
ATOM      1  C   UNL     1      -2.582  -6.066  -6.406  0.00  0.00    +0.017 C 
ATOM      2  C   UNL     1      -2.037  -5.895  -4.963  0.00  0.00    +0.025 C 
ATOM      3  C   UNL     1      -0.988  -4.773  -5.120  0.00  0.00    +0.088 C 
ATOM      4  N   UNL     1      -0.581  -4.750  -6.537  0.00  0.00    -0.298 NA
ATOM      5  C   UNL     1      -1.309  -5.819  -7.253  0.00  0.00    +0.085 C 
ATOM      6  C   UNL     1      -0.845  -3.437  -7.139  0.00  0.00    +0.105 C 
ENDROOT
BRANCH   3   7
ATOM      7  C   UNL     1       0.206  -5.062  -4.247  0.00  0.00    -0.012 A 
ATOM      8  C   UNL     1       0.037  -5.357  -2.908  0.00  0.00    +0.115 A 
ATOM      9  N   UNL     1       1.077  -5.611  -2.137  0.00  0.00    -0.263 NA
ATOM     10  C   UNL     1       2.308  -5.594  -2.606  0.00  0.00    +0.111 A 
ATOM     11  C   UNL     1       2.555  -5.307  -3.936  0.00  0.00    +0.020 A 
ATOM     12  C   UNL     1       1.486  -5.040  -4.778  0.00  0.00    +0.008 A 
ENDBRANCH   3   7
TORSDOF 1
ENDMDL
MODEL 8
REMARK VINA RESULT:    -1.628      1.319      1.996
REMARK INTER + INTRA:          -1.976
REMARK INTER:                  -1.765
REMARK INTRA:                  -0.211
REMARK UNBOUND:                -0.253
REMARK  Name = Nicotine.pdb
REMARK  2 active torsions:
REMARK  status: ('A' for Active; 'I' for Inactive)
REMARK    1  A    between atoms: C_3  and  C_6
REMARK    2  A    between atoms: N_4  and  C_12
REMARK                            x       y       z     vdW  Elec       q    Type
REMARK                         _______ _______ _______ _____ _____    ______ ____
ROOT
ATOM      1  C   UNL     1       4.450  -5.378  -6.249  0.00  0.00    +0.017 C 
ATOM      2  C   UNL     1       3.037  -6.009  -6.136  0.00  0.00    +0.025 C 
ATOM      3  C   UNL     1       2.099  -4.810  -6.389  0.00  0.00    +0.088 C 
ATOM      4  N   UNL     1       2.863  -3.587  -6.085  0.00  0.00    -0.298 NA
ATOM      5  C   UNL     1       4.215  -3.976  -5.633  0.00  0.00    +0.085 C 
ATOM      6  C   UNL     1       2.932  -2.703  -7.256  0.00  0.00    +0.105 C 
ENDROOT
BRANCH   3   7
ATOM      7  C   UNL     1       0.895  -4.902  -5.488  0.00  0.00    -0.012 A 
ATOM      8  C   UNL     1       1.024  -5.370  -4.194  0.00  0.00    +0.115 A 
ATOM      9  N   UNL     1      -0.025  -5.453  -3.399  0.00  0.00    -0.263 NA
ATOM     10  C   UNL     1      -1.229  -5.098  -3.801  0.00  0.00    +0.111 A 
ATOM     11  C   UNL     1      -1.436  -4.621  -5.082  0.00  0.00    +0.020 A 
ATOM     12  C   UNL     1      -0.355  -4.514  -5.944  0.00  0.00    +0.008 A 
ENDBRANCH   3   7
TORSDOF 1
ENDMDL
MODEL 9
REMARK VINA RESULT:    -1.444      3.188      4.515
REMARK INTER + INTRA:          -1.782
REMARK INTER:                  -1.567
REMARK INTRA:                  -0.215
REMARK UNBOUND:                -0.253
REMARK  Name = Nicotine.pdb
REMARK  2 active torsions:
REMARK  status: ('A' for Active; 'I' for Inactive)
REMARK    1  A    between atoms: C_3  and  C_6
REMARK    2  A    between atoms: N_4  and  C_12
REMARK                            x       y       z     vdW  Elec       q    Type
REMARK                         _______ _______ _______ _____ _____    ______ ____
ROOT
ATOM      1  C   UNL     1       0.952  -4.942  -4.241  0.00  0.00    +0.017 C 
ATOM      2  C   UNL     1      -0.520  -5.404  -4.074  0.00  0.00    +0.025 C 
ATOM      3  C   UNL     1      -0.916  -5.827  -5.504  0.00  0.00    +0.088 C 
ATOM      4  N   UNL     1      -0.004  -5.135  -6.433  0.00  0.00    -0.298 NA
ATOM      5  C   UNL     1       0.917  -4.288  -5.645  0.00  0.00    +0.085 C 
ATOM      6  C   UNL     1       0.740  -6.097  -7.256  0.00  0.00    +0.105 C 
ENDROOT
BRANCH   3   7
ATOM      7  C   UNL     1      -2.339  -5.420  -5.784  0.00  0.00    -0.012 A 
ATOM      8  C   UNL     1      -2.913  -4.366  -5.099  0.00  0.00    +0.115 A 
ATOM      9  N   UNL     1      -4.158  -4.003  -5.337  0.00  0.00    -0.263 NA
ATOM     10  C   UNL     1      -4.902  -4.626  -6.230  0.00  0.00    +0.111 A 
ATOM     11  C   UNL     1      -4.397  -5.690  -6.954  0.00  0.00    +0.020 A 
ATOM     12  C   UNL     1      -3.090  -6.096  -6.734  0.00  0.00    +0.008 A 
ENDBRANCH   3   7
TORSDOF 1
ENDMDL
