MODEL 1
REMARK VINA RESULT:    -3.362      0.000      0.000
REMARK INTER + INTRA:          -3.775
REMARK INTER:                  -3.558
REMARK INTRA:                  -0.216
REMARK UNBOUND:                -0.216
REMARK  Name = Nicotine.pdb
REMARK  2 active torsions:
REMARK  status: ('A' for Active; 'I' for Inactive)
REMARK    1  A    between atoms: C_3  and  C_6
REMARK    2  A    between atoms: N_4  and  C_12
REMARK                            x       y       z     vdW  Elec       q    Type
REMARK                         _______ _______ _______ _____ _____    ______ ____
ROOT
ATOM      1  C   UNL     1       0.845   3.211   3.777  0.00  0.00    +0.017 C 
ATOM      2  C   UNL     1       1.883   3.672   4.834  0.00  0.00    +0.025 C 
ATOM      3  C   UNL     1       2.775   4.650   4.040  0.00  0.00    +0.088 C 
ATOM      4  N   UNL     1       2.627   4.317   2.612  0.00  0.00    -0.298 NA
ATOM      5  C   UNL     1       1.707   3.165   2.491  0.00  0.00    +0.085 C 
ATOM      6  C   UNL     1       2.131   5.470   1.850  0.00  0.00    +0.105 C 
ENDROOT
BRANCH   3   7
ATOM      7  C   UNL     1       4.213   4.488   4.459  0.00  0.00    -0.012 A 
ATOM      8  C   UNL     1       5.228   4.568   3.524  0.00  0.00    +0.115 A 
ATOM      9  N   UNL     1       6.489   4.427   3.882  0.00  0.00    -0.263 NA
ATOM     10  C   UNL     1       6.833   4.206   5.135  0.00  0.00    +0.111 A 
ATOM     11  C   UNL     1       5.873   4.114   6.126  0.00  0.00    +0.020 A 
ATOM     12  C   UNL     1       4.537   4.262   5.788  0.00  0.00    +0.008 A 
ENDBRANCH   3   7
TORSDOF 1
ENDMDL
MODEL 2
REMARK VINA RESULT:    -3.308      3.412      6.380
REMARK INTER + INTRA:          -3.717
REMARK INTER:                  -3.502
REMARK INTRA:                  -0.215
REMARK UNBOUND:                -0.216
REMARK  Name = Nicotine.pdb
REMARK  2 active torsions:
REMARK  status: ('A' for Active; 'I' for Inactive)
REMARK    1  A    between atoms: C_3  and  C_6
REMARK    2  A    between atoms: N_4  and  C_12
REMARK                            x       y       z     vdW  Elec       q    Type
REMARK                         _______ _______ _______ _____ _____    ______ ____
ROOT
ATOM      1  C   UNL     1       2.382   4.250   2.331  0.00  0.00    +0.017 C 
ATOM      2  C   UNL     1       1.262   5.323   2.320  0.00  0.00    +0.025 C 
ATOM      3  C   UNL     1       0.238   4.767   3.332  0.00  0.00    +0.088 C 
ATOM      4  N   UNL     1       0.468   3.315   3.432  0.00  0.00    -0.298 NA
ATOM      5  C   UNL     1       1.565   2.947   2.513  0.00  0.00    +0.085 C 
ATOM      6  C   UNL     1       0.784   2.925   4.813  0.00  0.00    +0.105 C 
ENDROOT
BRANCH   3   7
ATOM      7  C   UNL     1      -1.162   5.034   2.844  0.00  0.00    -0.012 A 
ATOM      8  C   UNL     1      -1.395   5.325   1.513  0.00  0.00    +0.115 A 
ATOM      9  N   UNL     1      -2.618   5.560   1.078  0.00  0.00    -0.263 NA
ATOM     10  C   UNL     1      -3.659   5.527   1.886  0.00  0.00    +0.111 A 
ATOM     11  C   UNL     1      -3.504   5.242   3.229  0.00  0.00    +0.020 A 
ATOM     12  C   UNL     1      -2.234   4.985   3.722  0.00  0.00    +0.008 A 
ENDBRANCH   3   7
TORSDOF 1
ENDMDL
MODEL 3
REMARK VINA RESULT:    -3.164      2.872      5.999
REMARK INTER + INTRA:          -3.566
REMARK INTER:                  -3.349
REMARK INTRA:                  -0.217
REMARK UNBOUND:                -0.216
REMARK  Name = Nicotine.pdb
REMARK  2 active torsions:
REMARK  status: ('A' for Active; 'I' for Inactive)
REMARK    1  A    between atoms: C_3  and  C_6
REMARK    2  A    between atoms: N_4  and  C_12
REMARK                            x       y       z     vdW  Elec       q    Type
REMARK                         _______ _______ _______ _____ _____    ______ ____
ROOT
ATOM      1  C   UNL     1       3.343   6.583  -0.348  0.00  0.00    +0.017 C 
ATOM      2  C   UNL     1       1.926   6.976   0.147  0.00  0.00    +0.025 C 
ATOM      3  C   UNL     1       1.824   6.259   1.510  0.00  0.00    +0.088 C 
ATOM      4  N   UNL     1       2.792   5.147   1.492  0.00  0.00    -0.298 NA
ATOM      5  C   UNL     1       3.466   5.131   0.177  0.00  0.00    +0.085 C 
ATOM      6  C   UNL     1       3.766   5.280   2.583  0.00  0.00    +0.105 C 
ENDROOT
BRANCH   3   7
ATOM      7  C   UNL     1       0.429   5.723   1.703  0.00  0.00    -0.012 A 
ATOM      8  C   UNL     1       0.192   4.697   2.599  0.00  0.00    +0.115 A 
ATOM      9  N   UNL     1      -1.026   4.223   2.774  0.00  0.00    -0.263 NA
ATOM     10  C   UNL     1      -2.059   4.700   2.109  0.00  0.00    +0.111 A 
ATOM     11  C   UNL     1      -1.899   5.726   1.196  0.00  0.00    +0.020 A 
ATOM     12  C   UNL     1      -0.634   6.254   0.989  0.00  0.00    +0.008 A 
ENDBRANCH   3   7
TORSDOF 1
ENDMDL
MODEL 4
REMARK VINA RESULT:    -3.158      2.595      5.636
REMARK INTER + INTRA:          -3.559
REMARK INTER:                  -3.343
REMARK INTRA:                  -0.216
REMARK UNBOUND:                -0.216
REMARK  Name = Nicotine.pdb
REMARK  2 active torsions:
REMARK  status: ('A' for Active; 'I' for Inactive)
REMARK    1  A    between atoms: C_3  and  C_6
REMARK    2  A    between atoms: N_4  and  C_12
REMARK                            x       y       z     vdW  Elec       q    Type
REMARK                         _______ _______ _______ _____ _____    ______ ____
ROOT
ATOM      1  C   UNL     1       3.452   4.382   3.475  0.00  0.00    +0.017 C 
ATOM      2  C   UNL     1       2.099   3.625   3.411  0.00  0.00    +0.025 C 
ATOM      3  C   UNL     1       1.326   4.387   2.314  0.00  0.00    +0.088 C 
ATOM      4  N   UNL     1       1.921   5.732   2.214  0.00  0.00    -0.298 NA
ATOM      5  C   UNL     1       3.005   5.843   3.213  0.00  0.00    +0.085 C 
ATOM      6  C   UNL     1       2.425   5.985   0.858  0.00  0.00    +0.105 C 
ENDROOT
BRANCH   3   7
ATOM      7  C   UNL     1      -0.128   4.496   2.693  0.00  0.00    -0.012 A 
ATOM      8  C   UNL     1      -0.522   4.334   4.008  0.00  0.00    +0.115 A 
ATOM      9  N   UNL     1      -1.793   4.427   4.349  0.00  0.00    -0.263 NA
ATOM     10  C   UNL     1      -2.732   4.676   3.458  0.00  0.00    +0.111 A 
ATOM     11  C   UNL     1      -2.414   4.850   2.124  0.00  0.00    +0.020 A 
ATOM     12  C   UNL     1      -1.088   4.764   1.729  0.00  0.00    +0.008 A 
ENDBRANCH   3   7
TORSDOF 1
ENDMDL
MODEL 5
REMARK VINA RESULT:    -3.019      1.812      4.562
REMARK INTER + INTRA:          -3.411
REMARK INTER:                  -3.215
REMARK INTRA:                  -0.197
REMARK UNBOUND:                -0.216
REMARK  Name = Nicotine.pdb
REMARK  2 active torsions:
REMARK  status: ('A' for Active; 'I' for Inactive)
REMARK    1  A    between atoms: C_3  and  C_6
REMARK    2  A    between atoms: N_4  and  C_12
REMARK                            x       y       z     vdW  Elec       q    Type
REMARK                         _______ _______ _______ _____ _____    ______ ____
ROOT
ATOM      1  C   UNL     1       1.060   3.209   4.413  0.00  0.00    +0.017 C 
ATOM      2  C   UNL     1       1.242   3.325   2.876  0.00  0.00    +0.025 C 
ATOM      3  C   UNL     1       2.542   4.146   2.742  0.00  0.00    +0.088 C 
ATOM      4  N   UNL     1       2.722   4.888   4.002  0.00  0.00    -0.298 NA
ATOM      5  C   UNL     1       1.584   4.585   4.895  0.00  0.00    +0.085 C 
ATOM      6  C   UNL     1       3.999   4.542   4.640  0.00  0.00    +0.105 C 
ENDROOT
BRANCH   3   7
ATOM      7  C   UNL     1       2.423   5.110   1.590  0.00  0.00    -0.012 A 
ATOM      8  C   UNL     1       1.305   5.912   1.462  0.00  0.00    +0.115 A 
ATOM      9  N   UNL     1       1.193   6.758   0.457  0.00  0.00    -0.263 NA
ATOM     10  C   UNL     1       2.134   6.874  -0.460  0.00  0.00    +0.111 A 
ATOM     11  C   UNL     1       3.281   6.105  -0.397  0.00  0.00    +0.020 A 
ATOM     12  C   UNL     1       3.436   5.208   0.648  0.00  0.00    +0.008 A 
ENDBRANCH   3   7
TORSDOF 1
ENDMDL
MODEL 6
REMARK VINA RESULT:    -2.947      2.285      4.130
REMARK INTER + INTRA:          -3.336
REMARK INTER:                  -3.125
REMARK INTRA:                  -0.211
REMARK UNBOUND:                -0.216
REMARK  Name = Nicotine.pdb
REMARK  2 active torsions:
REMARK  status: ('A' for Active; 'I' for Inactive)
REMARK    1  A    between atoms: C_3  and  C_6
REMARK    2  A    between atoms: N_4  and  C_12
REMARK                            x       y       z     vdW  Elec       q    Type
REMARK                         _______ _______ _______ _____ _____    ______ ____
ROOT
ATOM      1  C   UNL     1       2.654   6.342  -0.136  0.00  0.00    +0.017 C 
ATOM      2  C   UNL     1       1.709   6.186   1.084  0.00  0.00    +0.025 C 
ATOM      3  C   UNL     1       2.680   5.840   2.234  0.00  0.00    +0.088 C 
ATOM      4  N   UNL     1       3.903   5.291   1.622  0.00  0.00    -0.298 NA
ATOM      5  C   UNL     1       3.722   5.258   0.155  0.00  0.00    +0.085 C 
ATOM      6  C   UNL     1       5.080   6.088   1.990  0.00  0.00    +0.105 C 
ENDROOT
BRANCH   3   7
ATOM      7  C   UNL     1       2.054   4.815   3.143  0.00  0.00    -0.012 A 
ATOM      8  C   UNL     1       0.864   4.204   2.794  0.00  0.00    +0.115 A 
ATOM      9  N   UNL     1       0.310   3.305   3.584  0.00  0.00    -0.263 NA
ATOM     10  C   UNL     1       0.862   2.954   4.728  0.00  0.00    +0.111 A 
ATOM     11  C   UNL     1       2.052   3.521   5.143  0.00  0.00    +0.020 A 
ATOM     12  C   UNL     1       2.667   4.466   4.337  0.00  0.00    +0.008 A 
ENDBRANCH   3   7
TORSDOF 1
ENDMDL
MODEL 7
REMARK VINA RESULT:    -2.887      7.640      9.615
REMARK INTER + INTRA:          -3.273
REMARK INTER:                  -3.084
REMARK INTRA:                  -0.189
REMARK UNBOUND:                -0.216
REMARK  Name = Nicotine.pdb
REMARK  2 active torsions:
REMARK  status: ('A' for Active; 'I' for Inactive)
REMARK    1  A    between atoms: C_3  and  C_6
REMARK    2  A    between atoms: N_4  and  C_12
REMARK                            x       y       z     vdW  Elec       q    Type
REMARK                         _______ _______ _______ _____ _____    ______ ____
ROOT
ATOM      1  C   UNL     1      10.709   3.634  -3.884  0.00  0.00    +0.017 C 
ATOM      2  C   UNL     1       9.723   4.686  -4.458  0.00  0.00    +0.025 C 
ATOM      3  C   UNL     1       9.523   5.656  -3.274  0.00  0.00    +0.088 C 
ATOM      4  N   UNL     1       9.866   4.921  -2.043  0.00  0.00    -0.298 NA
ATOM      5  C   UNL     1      10.242   3.539  -2.410  0.00  0.00    +0.085 C 
ATOM      6  C   UNL     1      10.954   5.588  -1.317  0.00  0.00    +0.105 C 
ENDROOT
BRANCH   3   7
ATOM      7  C   UNL     1       8.087   6.109  -3.219  0.00  0.00    -0.012 A 
ATOM      8  C   UNL     1       7.371   6.306  -4.385  0.00  0.00    +0.115 A 
ATOM      9  N   UNL     1       6.114   6.702  -4.345  0.00  0.00    -0.263 NA
ATOM     10  C   UNL     1       5.493   6.925  -3.204  0.00  0.00    +0.111 A 
ATOM     11  C   UNL     1       6.145   6.749  -1.998  0.00  0.00    +0.020 A 
ATOM     12  C   UNL     1       7.466   6.328  -1.999  0.00  0.00    +0.008 A 
ENDBRANCH   3   7
TORSDOF 1
ENDMDL
MODEL 8
REMARK VINA RESULT:    -2.818      1.641      3.071
REMARK INTER + INTRA:          -3.199
REMARK INTER:                  -2.966
REMARK INTRA:                  -0.233
REMARK UNBOUND:                -0.216
REMARK  Name = Nicotine.pdb
REMARK  2 active torsions:
REMARK  status: ('A' for Active; 'I' for Inactive)
REMARK    1  A    between atoms: C_3  and  C_6
REMARK    2  A    between atoms: N_4  and  C_12
REMARK                            x       y       z     vdW  Elec       q    Type
REMARK                         _______ _______ _______ _____ _____    ______ ____
ROOT
ATOM      1  C   UNL     1       2.325   6.312  -0.069  0.00  0.00    +0.017 C 
ATOM      2  C   UNL     1       3.347   5.354   0.597  0.00  0.00    +0.025 C 
ATOM      3  C   UNL     1       2.556   4.776   1.789  0.00  0.00    +0.088 C 
ATOM      4  N   UNL     1       1.469   5.724   2.093  0.00  0.00    -0.298 NA
ATOM      5  C   UNL     1       1.569   6.869   1.163  0.00  0.00    +0.085 C 
ATOM      6  C   UNL     1       0.157   5.073   1.989  0.00  0.00    +0.105 C 
ENDROOT
BRANCH   3   7
ATOM      7  C   UNL     1       3.462   4.632   2.984  0.00  0.00    -0.012 A 
ATOM      8  C   UNL     1       2.950   4.236   4.206  0.00  0.00    +0.115 A 
ATOM      9  N   UNL     1       3.736   4.107   5.257  0.00  0.00    -0.263 NA
ATOM     10  C   UNL     1       5.031   4.348   5.188  0.00  0.00    +0.111 A 
ATOM     11  C   UNL     1       5.614   4.747   4.000  0.00  0.00    +0.020 A 
ATOM     12  C   UNL     1       4.820   4.888   2.872  0.00  0.00    +0.008 A 
ENDBRANCH   3   7
TORSDOF 1
ENDMDL
MODEL 9
REMARK VINA RESULT:    -2.817      2.781      3.971
REMARK INTER + INTRA:          -3.198
REMARK INTER:                  -2.981
REMARK INTRA:                  -0.217
REMARK UNBOUND:                -0.216
REMARK  Name = Nicotine.pdb
REMARK  2 active torsions:
REMARK  status: ('A' for Active; 'I' for Inactive)
REMARK    1  A    between atoms: C_3  and  C_6
REMARK    2  A    between atoms: N_4  and  C_12
REMARK                            x       y       z     vdW  Elec       q    Type
REMARK                         _______ _______ _______ _____ _____    ______ ____
ROOT
ATOM      1  C   UNL     1       1.653   3.513   3.801  0.00  0.00    +0.017 C 
ATOM      2  C   UNL     1       2.967   4.178   3.314  0.00  0.00    +0.025 C 
ATOM      3  C   UNL     1       2.473   5.483   2.655  0.00  0.00    +0.088 C 
ATOM      4  N   UNL     1       1.058   5.281   2.293  0.00  0.00    -0.298 NA
ATOM      5  C   UNL     1       0.667   3.907   2.673  0.00  0.00    +0.085 C 
ATOM      6  C   UNL     1       0.199   6.275   2.949  0.00  0.00    +0.105 C 
ENDROOT
BRANCH   3   7
ATOM      7  C   UNL     1       3.284   5.773   1.419  0.00  0.00    -0.012 A 
ATOM      8  C   UNL     1       2.667   6.225   0.268  0.00  0.00    +0.115 A 
ATOM      9  N   UNL     1       3.369   6.481  -0.818  0.00  0.00    -0.263 NA
ATOM     10  C   UNL     1       4.677   6.318  -0.852  0.00  0.00    +0.111 A 
ATOM     11  C   UNL     1       5.364   5.870   0.261  0.00  0.00    +0.020 A 
ATOM     12  C   UNL     1       4.659   5.595   1.423  0.00  0.00    +0.008 A 
ENDBRANCH   3   7
TORSDOF 1
ENDMDL
MODEL 10
REMARK VINA RESULT:    -2.738      2.217      5.175
REMARK INTER + INTRA:          -3.115
REMARK INTER:                  -2.891
REMARK INTRA:                  -0.224
REMARK UNBOUND:                -0.216
REMARK  Name = Nicotine.pdb
REMARK  2 active torsions:
REMARK  status: ('A' for Active; 'I' for Inactive)
REMARK    1  A    between atoms: C_3  and  C_6
REMARK    2  A    between atoms: N_4  and  C_12
REMARK                            x       y       z     vdW  Elec       q    Type
REMARK                         _______ _______ _______ _____ _____    ______ ____
ROOT
ATOM      1  C   UNL     1       4.597   4.832   3.419  0.00  0.00    +0.017 C 
ATOM      2  C   UNL     1       3.153   4.266   3.384  0.00  0.00    +0.025 C 
ATOM      3  C   UNL     1       2.659   4.663   1.976  0.00  0.00    +0.088 C 
ATOM      4  N   UNL     1       3.482   5.801   1.529  0.00  0.00    -0.298 NA
ATOM      5  C   UNL     1       4.441   6.139   2.602  0.00  0.00    +0.085 C 
ATOM      6  C   UNL     1       4.182   5.485   0.277  0.00  0.00    +0.105 C 
ENDROOT
BRANCH   3   7
ATOM      7  C   UNL     1       1.209   5.070   2.038  0.00  0.00    -0.012 A 
ATOM      8  C   UNL     1       0.812   6.314   1.583  0.00  0.00    +0.115 A 
ATOM      9  N   UNL     1      -0.454   6.678   1.633  0.00  0.00    -0.263 NA
ATOM     10  C   UNL     1      -1.386   5.879   2.114  0.00  0.00    +0.111 A 
ATOM     11  C   UNL     1      -1.065   4.620   2.587  0.00  0.00    +0.020 A 
ATOM     12  C   UNL     1       0.256   4.200   2.545  0.00  0.00    +0.008 A 
ENDBRANCH   3   7
TORSDOF 1
ENDMDL
