MODEL 1
REMARK VINA RESULT:    -3.099      0.000      0.000
REMARK INTER + INTRA:          -3.495
REMARK INTER:                  -3.280
REMARK INTRA:                  -0.215
REMARK UNBOUND:                -0.215
REMARK  Name = Nicotine.pdb
REMARK  2 active torsions:
REMARK  status: ('A' for Active; 'I' for Inactive)
REMARK    1  A    between atoms: C_3  and  C_6
REMARK    2  A    between atoms: N_4  and  C_12
REMARK                            x       y       z     vdW  Elec       q    Type
REMARK                         _______ _______ _______ _____ _____    ______ ____
ROOT
ATOM      1  C   UNL     1       3.427   4.032   4.401  0.00  0.00    +0.017 C 
ATOM      2  C   UNL     1       2.048   3.433   4.021  0.00  0.00    +0.025 C 
ATOM      3  C   UNL     1       1.477   4.473   3.034  0.00  0.00    +0.088 C 
ATOM      4  N   UNL     1       2.167   5.749   3.297  0.00  0.00    -0.298 NA
ATOM      5  C   UNL     1       3.116   5.550   4.413  0.00  0.00    +0.085 C 
ATOM      6  C   UNL     1       2.861   6.230   2.095  0.00  0.00    +0.105 C 
ENDROOT
BRANCH   3   7
ATOM      7  C   UNL     1      -0.004   4.634   3.259  0.00  0.00    -0.012 A 
ATOM      8  C   UNL     1      -0.558   4.358   4.495  0.00  0.00    +0.115 A 
ATOM      9  N   UNL     1      -1.853   4.497   4.701  0.00  0.00    -0.263 NA
ATOM     10  C   UNL     1      -2.667   4.901   3.745  0.00  0.00    +0.111 A 
ATOM     11  C   UNL     1      -2.185   5.196   2.483  0.00  0.00    +0.020 A 
ATOM     12  C   UNL     1      -0.828   5.067   2.232  0.00  0.00    +0.008 A 
ENDBRANCH   3   7
TORSDOF 1
ENDMDL
MODEL 2
REMARK VINA RESULT:    -3.082      2.550      5.560
REMARK INTER + INTRA:          -3.478
REMARK INTER:                  -3.261
REMARK INTRA:                  -0.216
REMARK UNBOUND:                -0.215
REMARK  Name = Nicotine.pdb
REMARK  2 active torsions:
REMARK  status: ('A' for Active; 'I' for Inactive)
REMARK    1  A    between atoms: C_3  and  C_6
REMARK    2  A    between atoms: N_4  and  C_12
REMARK                            x       y       z     vdW  Elec       q    Type
REMARK                         _______ _______ _______ _____ _____    ______ ____
ROOT
ATOM      1  C   UNL     1       0.831   2.978   4.178  0.00  0.00    +0.017 C 
ATOM      2  C   UNL     1       1.936   3.297   5.220  0.00  0.00    +0.025 C 
ATOM      3  C   UNL     1       2.705   4.464   4.565  0.00  0.00    +0.088 C 
ATOM      4  N   UNL     1       2.446   4.398   3.115  0.00  0.00    -0.298 NA
ATOM      5  C   UNL     1       1.576   3.234   2.844  0.00  0.00    +0.085 C 
ATOM      6  C   UNL     1       1.828   5.641   2.634  0.00  0.00    +0.105 C 
ENDROOT
BRANCH   3   7
ATOM      7  C   UNL     1       4.181   4.319   4.830  0.00  0.00    -0.012 A 
ATOM      8  C   UNL     1       5.103   4.679   3.866  0.00  0.00    +0.115 A 
ATOM      9  N   UNL     1       6.397   4.555   4.091  0.00  0.00    -0.263 NA
ATOM     10  C   UNL     1       6.860   4.087   5.232  0.00  0.00    +0.111 A 
ATOM     11  C   UNL     1       5.998   3.706   6.244  0.00  0.00    +0.020 A 
ATOM     12  C   UNL     1       4.631   3.827   6.046  0.00  0.00    +0.008 A 
ENDBRANCH   3   7
TORSDOF 1
ENDMDL
MODEL 3
REMARK VINA RESULT:    -3.070     13.623     14.866
REMARK INTER + INTRA:          -3.465
REMARK INTER:                  -3.226
REMARK INTRA:                  -0.239
REMARK UNBOUND:                -0.215
REMARK  Name = Nicotine.pdb
REMARK  2 active torsions:
REMARK  status: ('A' for Active; 'I' for Inactive)
REMARK    1  A    between atoms: C_3  and  C_6
REMARK    2  A    between atoms: N_4  and  C_12
REMARK                            x       y       z     vdW  Elec       q    Type
REMARK                         _______ _______ _______ _____ _____    ______ ____
ROOT
ATOM      1  C   UNL     1       6.732   0.047  -5.805  0.00  0.00    +0.017 C 
ATOM      2  C   UNL     1       6.824  -1.391  -5.230  0.00  0.00    +0.025 C 
ATOM      3  C   UNL     1       8.086  -1.958  -5.914  0.00  0.00    +0.088 C 
ATOM      4  N   UNL     1       8.310  -1.171  -7.139  0.00  0.00    -0.298 NA
ATOM      5  C   UNL     1       7.234  -0.164  -7.256  0.00  0.00    +0.085 C 
ATOM      6  C   UNL     1       9.632  -0.530  -7.120  0.00  0.00    +0.105 C 
ENDROOT
BRANCH   3   7
ATOM      7  C   UNL     1       7.870  -3.407  -6.266  0.00  0.00    -0.012 A 
ATOM      8  C   UNL     1       8.864  -4.127  -6.903  0.00  0.00    +0.115 A 
ATOM      9  N   UNL     1       8.683  -5.396  -7.214  0.00  0.00    -0.263 NA
ATOM     10  C   UNL     1       7.559  -6.025  -6.936  0.00  0.00    +0.111 A 
ATOM     11  C   UNL     1       6.520  -5.370  -6.300  0.00  0.00    +0.020 A 
ATOM     12  C   UNL     1       6.676  -4.037  -5.951  0.00  0.00    +0.008 A 
ENDBRANCH   3   7
TORSDOF 1
ENDMDL
MODEL 4
REMARK VINA RESULT:    -2.937      1.580      4.929
REMARK INTER + INTRA:          -3.324
REMARK INTER:                  -3.137
REMARK INTRA:                  -0.186
REMARK UNBOUND:                -0.215
REMARK  Name = Nicotine.pdb
REMARK  2 active torsions:
REMARK  status: ('A' for Active; 'I' for Inactive)
REMARK    1  A    between atoms: C_3  and  C_6
REMARK    2  A    between atoms: N_4  and  C_12
REMARK                            x       y       z     vdW  Elec       q    Type
REMARK                         _______ _______ _______ _____ _____    ______ ____
ROOT
ATOM      1  C   UNL     1      -1.074   4.763   3.700  0.00  0.00    +0.017 C 
ATOM      2  C   UNL     1       0.224   4.726   2.850  0.00  0.00    +0.025 C 
ATOM      3  C   UNL     1       1.108   3.714   3.610  0.00  0.00    +0.088 C 
ATOM      4  N   UNL     1       0.614   3.659   4.998  0.00  0.00    -0.298 NA
ATOM      5  C   UNL     1      -0.513   4.606   5.135  0.00  0.00    +0.085 C 
ATOM      6  C   UNL     1       0.204   2.295   5.357  0.00  0.00    +0.105 C 
ENDROOT
BRANCH   3   7
ATOM      7  C   UNL     1       2.543   4.172   3.592  0.00  0.00    -0.012 A 
ATOM      8  C   UNL     1       3.025   4.921   2.535  0.00  0.00    +0.115 A 
ATOM      9  N   UNL     1       4.280   5.326   2.512  0.00  0.00    -0.263 NA
ATOM     10  C   UNL     1       5.119   5.037   3.486  0.00  0.00    +0.111 A 
ATOM     11  C   UNL     1       4.709   4.292   4.577  0.00  0.00    +0.020 A 
ATOM     12  C   UNL     1       3.395   3.853   4.638  0.00  0.00    +0.008 A 
ENDBRANCH   3   7
TORSDOF 1
ENDMDL
MODEL 5
REMARK VINA RESULT:    -2.916      1.960      3.293
REMARK INTER + INTRA:          -3.301
REMARK INTER:                  -3.109
REMARK INTRA:                  -0.192
REMARK UNBOUND:                -0.215
REMARK  Name = Nicotine.pdb
REMARK  2 active torsions:
REMARK  status: ('A' for Active; 'I' for Inactive)
REMARK    1  A    between atoms: C_3  and  C_6
REMARK    2  A    between atoms: N_4  and  C_12
REMARK                            x       y       z     vdW  Elec       q    Type
REMARK                         _______ _______ _______ _____ _____    ______ ____
ROOT
ATOM      1  C   UNL     1       5.780   5.523   1.497  0.00  0.00    +0.017 C 
ATOM      2  C   UNL     1       4.244   5.526   1.285  0.00  0.00    +0.025 C 
ATOM      3  C   UNL     1       3.708   6.039   2.639  0.00  0.00    +0.088 C 
ATOM      4  N   UNL     1       4.751   5.781   3.648  0.00  0.00    -0.298 NA
ATOM      5  C   UNL     1       5.891   5.111   2.986  0.00  0.00    +0.085 C 
ATOM      6  C   UNL     1       5.176   7.027   4.297  0.00  0.00    +0.105 C 
ENDROOT
BRANCH   3   7
ATOM      7  C   UNL     1       2.446   5.301   3.003  0.00  0.00    -0.012 A 
ATOM      8  C   UNL     1       1.209   5.864   2.751  0.00  0.00    +0.115 A 
ATOM      9  N   UNL     1       0.099   5.225   3.067  0.00  0.00    -0.263 NA
ATOM     10  C   UNL     1       0.123   4.035   3.632  0.00  0.00    +0.111 A 
ATOM     11  C   UNL     1       1.322   3.408   3.914  0.00  0.00    +0.020 A 
ATOM     12  C   UNL     1       2.509   4.047   3.591  0.00  0.00    +0.008 A 
ENDBRANCH   3   7
TORSDOF 1
ENDMDL
MODEL 6
REMARK VINA RESULT:    -2.900      1.986      5.026
REMARK INTER + INTRA:          -3.285
REMARK INTER:                  -3.100
REMARK INTRA:                  -0.185
REMARK UNBOUND:                -0.215
REMARK  Name = Nicotine.pdb
REMARK  2 active torsions:
REMARK  status: ('A' for Active; 'I' for Inactive)
REMARK    1  A    between atoms: C_3  and  C_6
REMARK    2  A    between atoms: N_4  and  C_12
REMARK                            x       y       z     vdW  Elec       q    Type
REMARK                         _______ _______ _______ _____ _____    ______ ____
ROOT
ATOM      1  C   UNL     1       1.662   3.245   4.853  0.00  0.00    +0.017 C 
ATOM      2  C   UNL     1       2.904   4.171   4.783  0.00  0.00    +0.025 C 
ATOM      3  C   UNL     1       2.555   5.134   3.629  0.00  0.00    +0.088 C 
ATOM      4  N   UNL     1       1.546   4.463   2.790  0.00  0.00    -0.298 NA
ATOM      5  C   UNL     1       1.277   3.124   3.357  0.00  0.00    +0.085 C 
ATOM      6  C   UNL     1       0.314   5.258   2.709  0.00  0.00    +0.105 C 
ENDROOT
BRANCH   3   7
ATOM      7  C   UNL     1       3.788   5.427   2.814  0.00  0.00    -0.012 A 
ATOM      8  C   UNL     1       5.045   5.236   3.356  0.00  0.00    +0.115 A 
ATOM      9  N   UNL     1       6.130   5.490   2.650  0.00  0.00    -0.263 NA
ATOM     10  C   UNL     1       6.062   5.932   1.410  0.00  0.00    +0.111 A 
ATOM     11  C   UNL     1       4.839   6.146   0.801  0.00  0.00    +0.020 A 
ATOM     12  C   UNL     1       3.677   5.885   1.511  0.00  0.00    +0.008 A 
ENDBRANCH   3   7
TORSDOF 1
ENDMDL
MODEL 7
REMARK VINA RESULT:    -2.856      1.417      1.697
REMARK INTER + INTRA:          -3.238
REMARK INTER:                  -3.025
REMARK INTRA:                  -0.213
REMARK UNBOUND:                -0.215
REMARK  Name = Nicotine.pdb
REMARK  2 active torsions:
REMARK  status: ('A' for Active; 'I' for Inactive)
REMARK    1  A    between atoms: C_3  and  C_6
REMARK    2  A    between atoms: N_4  and  C_12
REMARK                            x       y       z     vdW  Elec       q    Type
REMARK                         _______ _______ _______ _____ _____    ______ ____
ROOT
ATOM      1  C   UNL     1       4.880   4.921   4.344  0.00  0.00    +0.017 C 
ATOM      2  C   UNL     1       3.496   4.221   4.393  0.00  0.00    +0.025 C 
ATOM      3  C   UNL     1       2.912   4.508   2.993  0.00  0.00    +0.088 C 
ATOM      4  N   UNL     1       3.605   5.698   2.467  0.00  0.00    -0.298 NA
ATOM      5  C   UNL     1       4.568   6.171   3.484  0.00  0.00    +0.085 C 
ATOM      6  C   UNL     1       4.283   5.395   1.199  0.00  0.00    +0.105 C 
ENDROOT
BRANCH   3   7
ATOM      7  C   UNL     1       1.434   4.779   3.101  0.00  0.00    -0.012 A 
ATOM      8  C   UNL     1       0.589   3.837   3.656  0.00  0.00    +0.115 A 
ATOM      9  N   UNL     1      -0.706   4.066   3.753  0.00  0.00    -0.263 NA
ATOM     10  C   UNL     1      -1.244   5.193   3.330  0.00  0.00    +0.111 A 
ATOM     11  C   UNL     1      -0.462   6.182   2.764  0.00  0.00    +0.020 A 
ATOM     12  C   UNL     1       0.905   5.979   2.649  0.00  0.00    +0.008 A 
ENDBRANCH   3   7
TORSDOF 1
ENDMDL
MODEL 8
REMARK VINA RESULT:    -2.741      2.434      5.583
REMARK INTER + INTRA:          -3.116
REMARK INTER:                  -2.903
REMARK INTRA:                  -0.213
REMARK UNBOUND:                -0.215
REMARK  Name = Nicotine.pdb
REMARK  2 active torsions:
REMARK  status: ('A' for Active; 'I' for Inactive)
REMARK    1  A    between atoms: C_3  and  C_6
REMARK    2  A    between atoms: N_4  and  C_12
REMARK                            x       y       z     vdW  Elec       q    Type
REMARK                         _______ _______ _______ _____ _____    ______ ____
ROOT
ATOM      1  C   UNL     1       1.882   6.568   2.534  0.00  0.00    +0.017 C 
ATOM      2  C   UNL     1       3.397   6.280   2.705  0.00  0.00    +0.025 C 
ATOM      3  C   UNL     1       3.430   4.769   3.015  0.00  0.00    +0.088 C 
ATOM      4  N   UNL     1       2.102   4.401   3.538  0.00  0.00    -0.298 NA
ATOM      5  C   UNL     1       1.262   5.616   3.587  0.00  0.00    +0.085 C 
ATOM      6  C   UNL     1       1.478   3.362   2.707  0.00  0.00    +0.105 C 
ENDROOT
BRANCH   3   7
ATOM      7  C   UNL     1       4.487   4.481   4.050  0.00  0.00    -0.012 A 
ATOM      8  C   UNL     1       5.826   4.626   3.740  0.00  0.00    +0.115 A 
ATOM      9  N   UNL     1       6.758   4.377   4.640  0.00  0.00    -0.263 NA
ATOM     10  C   UNL     1       6.454   3.981   5.860  0.00  0.00    +0.111 A 
ATOM     11  C   UNL     1       5.136   3.814   6.243  0.00  0.00    +0.020 A 
ATOM     12  C   UNL     1       4.129   4.072   5.326  0.00  0.00    +0.008 A 
ENDBRANCH   3   7
TORSDOF 1
ENDMDL
MODEL 9
REMARK VINA RESULT:    -2.649      1.871      4.841
REMARK INTER + INTRA:          -3.019
REMARK INTER:                  -2.763
REMARK INTRA:                  -0.256
REMARK UNBOUND:                -0.215
REMARK  Name = Nicotine.pdb
REMARK  2 active torsions:
REMARK  status: ('A' for Active; 'I' for Inactive)
REMARK    1  A    between atoms: C_3  and  C_6
REMARK    2  A    between atoms: N_4  and  C_12
REMARK                            x       y       z     vdW  Elec       q    Type
REMARK                         _______ _______ _______ _____ _____    ______ ____
ROOT
ATOM      1  C   UNL     1      -3.461   5.183   6.239  0.00  0.00    +0.017 C 
ATOM      2  C   UNL     1      -1.922   5.250   6.054  0.00  0.00    +0.025 C 
ATOM      3  C   UNL     1      -1.759   5.315   4.520  0.00  0.00    +0.088 C 
ATOM      4  N   UNL     1      -2.987   4.755   3.927  0.00  0.00    -0.298 NA
ATOM      5  C   UNL     1      -3.886   4.327   5.020  0.00  0.00    +0.085 C 
ATOM      6  C   UNL     1      -3.647   5.737   3.057  0.00  0.00    +0.105 C 
ENDROOT
BRANCH   3   7
ATOM      7  C   UNL     1      -0.566   4.499   4.097  0.00  0.00    -0.012 A 
ATOM      8  C   UNL     1       0.033   4.721   2.871  0.00  0.00    +0.115 A 
ATOM      9  N   UNL     1       1.078   4.011   2.492  0.00  0.00    -0.263 NA
ATOM     10  C   UNL     1       1.591   3.070   3.259  0.00  0.00    +0.111 A 
ATOM     11  C   UNL     1       1.046   2.791   4.499  0.00  0.00    +0.020 A 
ATOM     12  C   UNL     1      -0.050   3.520   4.933  0.00  0.00    +0.008 A 
ENDBRANCH   3   7
TORSDOF 1
ENDMDL
MODEL 10
REMARK VINA RESULT:    -1.561     12.391     13.889
REMARK INTER + INTRA:          -1.867
REMARK INTER:                  -1.616
REMARK INTRA:                  -0.251
REMARK UNBOUND:                -0.215
REMARK  Name = Nicotine.pdb
REMARK  2 active torsions:
REMARK  status: ('A' for Active; 'I' for Inactive)
REMARK    1  A    between atoms: C_3  and  C_6
REMARK    2  A    between atoms: N_4  and  C_12
REMARK                            x       y       z     vdW  Elec       q    Type
REMARK                         _______ _______ _______ _____ _____    ______ ____
ROOT
ATOM      1  C   UNL     1       4.984   0.666  -5.231  0.00  0.00    +0.017 C 
ATOM      2  C   UNL     1       6.041  -0.378  -4.784  0.00  0.00    +0.025 C 
ATOM      3  C   UNL     1       7.189  -0.164  -5.792  0.00  0.00    +0.088 C 
ATOM      4  N   UNL     1       6.609   0.478  -6.986  0.00  0.00    -0.298 NA
ATOM      5  C   UNL     1       5.155   0.645  -6.770  0.00  0.00    +0.085 C 
ATOM      6  C   UNL     1       7.253   1.769  -7.256  0.00  0.00    +0.105 C 
ENDROOT
BRANCH   3   7
ATOM      7  C   UNL     1       7.797  -1.490  -6.167  0.00  0.00    -0.012 A 
ATOM      8  C   UNL     1       8.960  -1.541  -6.913  0.00  0.00    +0.115 A 
ATOM      9  N   UNL     1       9.499  -2.698  -7.244  0.00  0.00    -0.263 NA
ATOM     10  C   UNL     1       8.957  -3.844  -6.882  0.00  0.00    +0.111 A 
ATOM     11  C   UNL     1       7.795  -3.872  -6.135  0.00  0.00    +0.020 A 
ATOM     12  C   UNL     1       7.202  -2.676  -5.763  0.00  0.00    +0.008 A 
ENDBRANCH   3   7
TORSDOF 1
ENDMDL
