MODEL 1
REMARK VINA RESULT:    -4.088      0.000      0.000
REMARK INTER + INTRA:          -4.551
REMARK INTER:                  -4.327
REMARK INTRA:                  -0.224
REMARK UNBOUND:                -0.224
REMARK  Name = Nicotine.pdb
REMARK  2 active torsions:
REMARK  status: ('A' for Active; 'I' for Inactive)
REMARK    1  A    between atoms: C_3  and  C_6
REMARK    2  A    between atoms: N_4  and  C_12
REMARK                            x       y       z     vdW  Elec       q    Type
REMARK                         _______ _______ _______ _____ _____    ______ ____
ROOT
ATOM      1  C   UNL     1       6.503  -0.716  -5.387  0.00  0.00    +0.017 C 
ATOM      2  C   UNL     1       6.572   0.640  -4.636  0.00  0.00    +0.025 C 
ATOM      3  C   UNL     1       7.962   1.184  -5.028  0.00  0.00    +0.088 C 
ATOM      4  N   UNL     1       8.782   0.031  -5.441  0.00  0.00    -0.298 NA
ATOM      5  C   UNL     1       7.973  -1.198  -5.298  0.00  0.00    +0.085 C 
ATOM      6  C   UNL     1       9.259   0.190  -6.821  0.00  0.00    +0.105 C 
ENDROOT
BRANCH   3   7
ATOM      7  C   UNL     1       8.597   1.869  -3.845  0.00  0.00    -0.012 A 
ATOM      8  C   UNL     1       9.935   2.215  -3.873  0.00  0.00    +0.115 A 
ATOM      9  N   UNL     1      10.498   2.814  -2.842  0.00  0.00    -0.263 NA
ATOM     10  C   UNL     1       9.816   3.106  -1.752  0.00  0.00    +0.111 A 
ATOM     11  C   UNL     1       8.473   2.791  -1.652  0.00  0.00    +0.020 A 
ATOM     12  C   UNL     1       7.846   2.165  -2.718  0.00  0.00    +0.008 A 
ENDBRANCH   3   7
TORSDOF 1
ENDMDL
MODEL 2
REMARK VINA RESULT:    -3.983      1.445      4.443
REMARK INTER + INTRA:          -4.439
REMARK INTER:                  -4.217
REMARK INTRA:                  -0.223
REMARK UNBOUND:                -0.224
REMARK  Name = Nicotine.pdb
REMARK  2 active torsions:
REMARK  status: ('A' for Active; 'I' for Inactive)
REMARK    1  A    between atoms: C_3  and  C_6
REMARK    2  A    between atoms: N_4  and  C_12
REMARK                            x       y       z     vdW  Elec       q    Type
REMARK                         _______ _______ _______ _____ _____    ______ ____
ROOT
ATOM      1  C   UNL     1       8.449   3.774  -1.716  0.00  0.00    +0.017 C 
ATOM      2  C   UNL     1       7.971   2.381  -2.205  0.00  0.00    +0.025 C 
ATOM      3  C   UNL     1       8.813   2.153  -3.478  0.00  0.00    +0.088 C 
ATOM      4  N   UNL     1       9.248   3.477  -3.958  0.00  0.00    -0.298 NA
ATOM      5  C   UNL     1       8.693   4.510  -3.057  0.00  0.00    +0.085 C 
ATOM      6  C   UNL     1      10.713   3.562  -4.017  0.00  0.00    +0.105 C 
ENDROOT
BRANCH   3   7
ATOM      7  C   UNL     1       7.977   1.474  -4.531  0.00  0.00    -0.012 A 
ATOM      8  C   UNL     1       7.877   2.013  -5.800  0.00  0.00    +0.115 A 
ATOM      9  N   UNL     1       7.147   1.424  -6.727  0.00  0.00    -0.263 NA
ATOM     10  C   UNL     1       6.488   0.309  -6.486  0.00  0.00    +0.111 A 
ATOM     11  C   UNL     1       6.540  -0.290  -5.241  0.00  0.00    +0.020 A 
ATOM     12  C   UNL     1       7.302   0.297  -4.242  0.00  0.00    +0.008 A 
ENDBRANCH   3   7
TORSDOF 1
ENDMDL
MODEL 3
REMARK VINA RESULT:    -3.750      1.379      2.053
REMARK INTER + INTRA:          -4.193
REMARK INTER:                  -4.001
REMARK INTRA:                  -0.192
REMARK UNBOUND:                -0.224
REMARK  Name = Nicotine.pdb
REMARK  2 active torsions:
REMARK  status: ('A' for Active; 'I' for Inactive)
REMARK    1  A    between atoms: C_3  and  C_6
REMARK    2  A    between atoms: N_4  and  C_12
REMARK                            x       y       z     vdW  Elec       q    Type
REMARK                         _______ _______ _______ _____ _____    ______ ____
ROOT
ATOM      1  C   UNL     1       6.532  -0.273  -5.709  0.00  0.00    +0.017 C 
ATOM      2  C   UNL     1       6.977   0.182  -4.294  0.00  0.00    +0.025 C 
ATOM      3  C   UNL     1       7.237   1.692  -4.481  0.00  0.00    +0.088 C 
ATOM      4  N   UNL     1       7.484   1.919  -5.916  0.00  0.00    -0.298 NA
ATOM      5  C   UNL     1       7.415   0.619  -6.617  0.00  0.00    +0.085 C 
ATOM      6  C   UNL     1       6.515   2.871  -6.474  0.00  0.00    +0.105 C 
ENDROOT
BRANCH   3   7
ATOM      7  C   UNL     1       8.442   2.108  -3.679  0.00  0.00    -0.012 A 
ATOM      8  C   UNL     1       8.289   2.660  -2.421  0.00  0.00    +0.115 A 
ATOM      9  N   UNL     1       9.339   3.027  -1.713  0.00  0.00    -0.263 NA
ATOM     10  C   UNL     1      10.568   2.885  -2.170  0.00  0.00    +0.111 A 
ATOM     11  C   UNL     1      10.799   2.340  -3.419  0.00  0.00    +0.020 A 
ATOM     12  C   UNL     1       9.720   1.938  -4.191  0.00  0.00    +0.008 A 
ENDBRANCH   3   7
TORSDOF 1
ENDMDL
MODEL 4
REMARK VINA RESULT:    -3.645      9.816     11.319
REMARK INTER + INTRA:          -4.082
REMARK INTER:                  -3.897
REMARK INTRA:                  -0.185
REMARK UNBOUND:                -0.224
REMARK  Name = Nicotine.pdb
REMARK  2 active torsions:
REMARK  status: ('A' for Active; 'I' for Inactive)
REMARK    1  A    between atoms: C_3  and  C_6
REMARK    2  A    between atoms: N_4  and  C_12
REMARK                            x       y       z     vdW  Elec       q    Type
REMARK                         _______ _______ _______ _____ _____    ______ ____
ROOT
ATOM      1  C   UNL     1       2.695   3.692   6.226  0.00  0.00    +0.017 C 
ATOM      2  C   UNL     1       1.739   3.272   5.078  0.00  0.00    +0.025 C 
ATOM      3  C   UNL     1       2.481   3.755   3.814  0.00  0.00    +0.088 C 
ATOM      4  N   UNL     1       3.410   4.820   4.233  0.00  0.00    -0.298 NA
ATOM      5  C   UNL     1       3.258   5.032   5.688  0.00  0.00    +0.085 C 
ATOM      6  C   UNL     1       4.796   4.473   3.893  0.00  0.00    +0.105 C 
ENDROOT
BRANCH   3   7
ATOM      7  C   UNL     1       1.492   4.300   2.816  0.00  0.00    -0.012 A 
ATOM      8  C   UNL     1       0.154   3.965   2.904  0.00  0.00    +0.115 A 
ATOM      9  N   UNL     1      -0.719   4.437   2.035  0.00  0.00    -0.263 NA
ATOM     10  C   UNL     1      -0.355   5.241   1.055  0.00  0.00    +0.111 A 
ATOM     11  C   UNL     1       0.966   5.621   0.905  0.00  0.00    +0.020 A 
ATOM     12  C   UNL     1       1.910   5.148   1.803  0.00  0.00    +0.008 A 
ENDBRANCH   3   7
TORSDOF 1
ENDMDL
MODEL 5
REMARK VINA RESULT:    -3.442      9.222     10.183
REMARK INTER + INTRA:          -3.867
REMARK INTER:                  -3.645
REMARK INTRA:                  -0.222
REMARK UNBOUND:                -0.224
REMARK  Name = Nicotine.pdb
REMARK  2 active torsions:
REMARK  status: ('A' for Active; 'I' for Inactive)
REMARK    1  A    between atoms: C_3  and  C_6
REMARK    2  A    between atoms: N_4  and  C_12
REMARK                            x       y       z     vdW  Elec       q    Type
REMARK                         _______ _______ _______ _____ _____    ______ ____
ROOT
ATOM      1  C   UNL     1       0.822   3.000   3.619  0.00  0.00    +0.017 C 
ATOM      2  C   UNL     1       1.828   3.287   4.764  0.00  0.00    +0.025 C 
ATOM      3  C   UNL     1       2.667   4.455   4.204  0.00  0.00    +0.088 C 
ATOM      4  N   UNL     1       2.543   4.418   2.735  0.00  0.00    -0.298 NA
ATOM      5  C   UNL     1       1.690   3.269   2.364  0.00  0.00    +0.085 C 
ATOM      6  C   UNL     1       1.987   5.675   2.221  0.00  0.00    +0.105 C 
ENDROOT
BRANCH   3   7
ATOM      7  C   UNL     1       4.110   4.287   4.602  0.00  0.00    -0.012 A 
ATOM      8  C   UNL     1       5.113   4.379   3.655  0.00  0.00    +0.115 A 
ATOM      9  N   UNL     1       6.378   4.234   3.995  0.00  0.00    -0.263 NA
ATOM     10  C   UNL     1       6.738   3.996   5.241  0.00  0.00    +0.111 A 
ATOM     11  C   UNL     1       5.791   3.891   6.243  0.00  0.00    +0.020 A 
ATOM     12  C   UNL     1       4.451   4.044   5.924  0.00  0.00    +0.008 A 
ENDBRANCH   3   7
TORSDOF 1
ENDMDL
MODEL 6
REMARK VINA RESULT:    -3.429      1.390      4.376
REMARK INTER + INTRA:          -3.853
REMARK INTER:                  -3.650
REMARK INTRA:                  -0.204
REMARK UNBOUND:                -0.224
REMARK  Name = Nicotine.pdb
REMARK  2 active torsions:
REMARK  status: ('A' for Active; 'I' for Inactive)
REMARK    1  A    between atoms: C_3  and  C_6
REMARK    2  A    between atoms: N_4  and  C_12
REMARK                            x       y       z     vdW  Elec       q    Type
REMARK                         _______ _______ _______ _____ _____    ______ ____
ROOT
ATOM      1  C   UNL     1       8.700   4.526  -4.051  0.00  0.00    +0.017 C 
ATOM      2  C   UNL     1       8.089   3.431  -4.964  0.00  0.00    +0.025 C 
ATOM      3  C   UNL     1       7.870   2.251  -3.992  0.00  0.00    +0.088 C 
ATOM      4  N   UNL     1       8.781   2.451  -2.851  0.00  0.00    -0.298 NA
ATOM      5  C   UNL     1       9.568   3.680  -3.085  0.00  0.00    +0.085 C 
ATOM      6  C   UNL     1       8.034   2.535  -1.589  0.00  0.00    +0.105 C 
ENDROOT
BRANCH   3   7
ATOM      7  C   UNL     1       8.189   0.951  -4.684  0.00  0.00    -0.012 A 
ATOM      8  C   UNL     1       9.312   0.841  -5.481  0.00  0.00    +0.115 A 
ATOM      9  N   UNL     1       9.598  -0.294  -6.090  0.00  0.00    -0.263 NA
ATOM     10  C   UNL     1       8.833  -1.360  -5.965  0.00  0.00    +0.111 A 
ATOM     11  C   UNL     1       7.693  -1.325  -5.183  0.00  0.00    +0.020 A 
ATOM     12  C   UNL     1       7.363  -0.151  -4.524  0.00  0.00    +0.008 A 
ENDBRANCH   3   7
TORSDOF 1
ENDMDL
MODEL 7
REMARK VINA RESULT:    -3.367     10.415     12.089
REMARK INTER + INTRA:          -3.788
REMARK INTER:                  -3.603
REMARK INTRA:                  -0.185
REMARK UNBOUND:                -0.224
REMARK  Name = Nicotine.pdb
REMARK  2 active torsions:
REMARK  status: ('A' for Active; 'I' for Inactive)
REMARK    1  A    between atoms: C_3  and  C_6
REMARK    2  A    between atoms: N_4  and  C_12
REMARK                            x       y       z     vdW  Elec       q    Type
REMARK                         _______ _______ _______ _____ _____    ______ ____
ROOT
ATOM      1  C   UNL     1       3.346   4.796   3.045  0.00  0.00    +0.017 C 
ATOM      2  C   UNL     1       2.261   3.725   3.333  0.00  0.00    +0.025 C 
ATOM      3  C   UNL     1       1.045   4.239   2.533  0.00  0.00    +0.088 C 
ATOM      4  N   UNL     1       1.237   5.686   2.327  0.00  0.00    -0.298 NA
ATOM      5  C   UNL     1       2.499   6.091   2.983  0.00  0.00    +0.085 C 
ATOM      6  C   UNL     1       1.257   6.016   0.896  0.00  0.00    +0.105 C 
ENDROOT
BRANCH   3   7
ATOM      7  C   UNL     1      -0.222   3.995   3.312  0.00  0.00    -0.012 A 
ATOM      8  C   UNL     1      -0.259   3.030   4.301  0.00  0.00    +0.115 A 
ATOM      9  N   UNL     1      -1.363   2.810   4.987  0.00  0.00    -0.263 NA
ATOM     10  C   UNL     1      -2.468   3.494   4.762  0.00  0.00    +0.111 A 
ATOM     11  C   UNL     1      -2.506   4.475   3.789  0.00  0.00    +0.020 A 
ATOM     12  C   UNL     1      -1.362   4.738   3.050  0.00  0.00    +0.008 A 
ENDBRANCH   3   7
TORSDOF 1
ENDMDL
MODEL 8
REMARK VINA RESULT:    -3.363     10.028     11.091
REMARK INTER + INTRA:          -3.783
REMARK INTER:                  -3.541
REMARK INTRA:                  -0.242
REMARK UNBOUND:                -0.224
REMARK  Name = Nicotine.pdb
REMARK  2 active torsions:
REMARK  status: ('A' for Active; 'I' for Inactive)
REMARK    1  A    between atoms: C_3  and  C_6
REMARK    2  A    between atoms: N_4  and  C_12
REMARK                            x       y       z     vdW  Elec       q    Type
REMARK                         _______ _______ _______ _____ _____    ______ ____
ROOT
ATOM      1  C   UNL     1       0.551   5.769   0.757  0.00  0.00    +0.017 C 
ATOM      2  C   UNL     1       1.648   4.807   1.284  0.00  0.00    +0.025 C 
ATOM      3  C   UNL     1       1.058   4.308   2.621  0.00  0.00    +0.088 C 
ATOM      4  N   UNL     1       0.065   5.305   3.059  0.00  0.00    -0.298 NA
ATOM      5  C   UNL     1       0.033   6.404   2.072  0.00  0.00    +0.085 C 
ATOM      6  C   UNL     1      -1.262   4.695   3.212  0.00  0.00    +0.105 C 
ENDROOT
BRANCH   3   7
ATOM      7  C   UNL     1       2.152   4.185   3.649  0.00  0.00    -0.012 A 
ATOM      8  C   UNL     1       1.869   3.715   4.918  0.00  0.00    +0.115 A 
ATOM      9  N   UNL     1       2.821   3.604   5.824  0.00  0.00    -0.263 NA
ATOM     10  C   UNL     1       4.070   3.934   5.561  0.00  0.00    +0.111 A 
ATOM     11  C   UNL     1       4.428   4.410   4.314  0.00  0.00    +0.020 A 
ATOM     12  C   UNL     1       3.456   4.535   3.334  0.00  0.00    +0.008 A 
ENDBRANCH   3   7
TORSDOF 1
ENDMDL
MODEL 9
REMARK VINA RESULT:    -3.304      9.840     10.521
REMARK INTER + INTRA:          -3.721
REMARK INTER:                  -3.514
REMARK INTRA:                  -0.207
REMARK UNBOUND:                -0.224
REMARK  Name = Nicotine.pdb
REMARK  2 active torsions:
REMARK  status: ('A' for Active; 'I' for Inactive)
REMARK    1  A    between atoms: C_3  and  C_6
REMARK    2  A    between atoms: N_4  and  C_12
REMARK                            x       y       z     vdW  Elec       q    Type
REMARK                         _______ _______ _______ _____ _____    ______ ____
ROOT
ATOM      1  C   UNL     1      -0.078   4.794   1.526  0.00  0.00    +0.017 C 
ATOM      2  C   UNL     1       1.461   4.951   1.413  0.00  0.00    +0.025 C 
ATOM      3  C   UNL     1       1.978   4.223   2.672  0.00  0.00    +0.088 C 
ATOM      4  N   UNL     1       0.872   4.197   3.646  0.00  0.00    -0.298 NA
ATOM      5  C   UNL     1      -0.291   4.894   3.058  0.00  0.00    +0.085 C 
ATOM      6  C   UNL     1       0.528   2.817   4.015  0.00  0.00    +0.105 C 
ENDROOT
BRANCH   3   7
ATOM      7  C   UNL     1       3.153   4.969   3.249  0.00  0.00    -0.012 A 
ATOM      8  C   UNL     1       3.151   6.350   3.295  0.00  0.00    +0.115 A 
ATOM      9  N   UNL     1       4.175   7.010   3.799  0.00  0.00    -0.263 NA
ATOM     10  C   UNL     1       5.235   6.387   4.275  0.00  0.00    +0.111 A 
ATOM     11  C   UNL     1       5.309   5.007   4.263  0.00  0.00    +0.020 A 
ATOM     12  C   UNL     1       4.248   4.279   3.746  0.00  0.00    +0.008 A 
ENDBRANCH   3   7
TORSDOF 1
ENDMDL
MODEL 10
REMARK VINA RESULT:    -3.273     10.218     11.832
REMARK INTER + INTRA:          -3.688
REMARK INTER:                  -3.434
REMARK INTRA:                  -0.254
REMARK UNBOUND:                -0.224
REMARK  Name = Nicotine.pdb
REMARK  2 active torsions:
REMARK  status: ('A' for Active; 'I' for Inactive)
REMARK    1  A    between atoms: C_3  and  C_6
REMARK    2  A    between atoms: N_4  and  C_12
REMARK                            x       y       z     vdW  Elec       q    Type
REMARK                         _______ _______ _______ _____ _____    ______ ____
ROOT
ATOM      1  C   UNL     1       1.230   2.725   5.680  0.00  0.00    +0.017 C 
ATOM      2  C   UNL     1       0.310   2.740   4.431  0.00  0.00    +0.025 C 
ATOM      3  C   UNL     1       1.129   3.552   3.406  0.00  0.00    +0.088 C 
ATOM      4  N   UNL     1       2.086   4.377   4.166  0.00  0.00    -0.298 NA
ATOM      5  C   UNL     1       1.878   4.130   5.609  0.00  0.00    +0.085 C 
ATOM      6  C   UNL     1       3.469   4.076   3.774  0.00  0.00    +0.105 C 
ENDROOT
BRANCH   3   7
ATOM      7  C   UNL     1       0.213   4.438   2.602  0.00  0.00    -0.012 A 
ATOM      8  C   UNL     1       0.510   4.742   1.288  0.00  0.00    +0.115 A 
ATOM      9  N   UNL     1      -0.287   5.517   0.577  0.00  0.00    -0.263 NA
ATOM     10  C   UNL     1      -1.390   6.028   1.086  0.00  0.00    +0.111 A 
ATOM     11  C   UNL     1      -1.753   5.768   2.395  0.00  0.00    +0.020 A 
ATOM     12  C   UNL     1      -0.942   4.953   3.170  0.00  0.00    +0.008 A 
ENDBRANCH   3   7
TORSDOF 1
ENDMDL
