MODEL 1
REMARK VINA RESULT:    -3.924      0.000      0.000
REMARK INTER + INTRA:          -4.366
REMARK INTER:                  -4.153
REMARK INTRA:                  -0.213
REMARK UNBOUND:                -0.213
REMARK  Name = Nicotine.pdb
REMARK  2 active torsions:
REMARK  status: ('A' for Active; 'I' for Inactive)
REMARK    1  A    between atoms: C_3  and  C_6
REMARK    2  A    between atoms: N_4  and  C_12
REMARK                            x       y       z     vdW  Elec       q    Type
REMARK                         _______ _______ _______ _____ _____    ______ ____
ROOT
ATOM      1  C   UNL     1      -2.165  -5.926   5.789  0.00  0.00    +0.017 C 
ATOM      2  C   UNL     1      -2.245  -5.715   4.254  0.00  0.00    +0.025 C 
ATOM      3  C   UNL     1      -0.916  -5.000   3.932  0.00  0.00    +0.088 C 
ATOM      4  N   UNL     1      -0.447  -4.367   5.177  0.00  0.00    -0.298 NA
ATOM      5  C   UNL     1      -1.435  -4.637   6.244  0.00  0.00    +0.085 C 
ATOM      6  C   UNL     1       0.883  -4.865   5.553  0.00  0.00    +0.105 C 
ENDROOT
BRANCH   3   7
ATOM      7  C   UNL     1      -1.143  -3.949   2.875  0.00  0.00    -0.012 A 
ATOM      8  C   UNL     1      -2.333  -3.249   2.830  0.00  0.00    +0.115 A 
ATOM      9  N   UNL     1      -2.540  -2.328   1.909  0.00  0.00    -0.263 NA
ATOM     10  C   UNL     1      -1.628  -2.039   1.001  0.00  0.00    +0.111 A 
ATOM     11  C   UNL     1      -0.413  -2.698   0.984  0.00  0.00    +0.020 A 
ATOM     12  C   UNL     1      -0.158  -3.669   1.940  0.00  0.00    +0.008 A 
ENDBRANCH   3   7
TORSDOF 1
ENDMDL
MODEL 2
REMARK VINA RESULT:    -2.327      1.499      2.230
REMARK INTER + INTRA:          -2.676
REMARK INTER:                  -2.489
REMARK INTRA:                  -0.187
REMARK UNBOUND:                -0.213
REMARK  Name = Nicotine.pdb
REMARK  2 active torsions:
REMARK  status: ('A' for Active; 'I' for Inactive)
REMARK    1  A    between atoms: C_3  and  C_6
REMARK    2  A    between atoms: N_4  and  C_12
REMARK                            x       y       z     vdW  Elec       q    Type
REMARK                         _______ _______ _______ _____ _____    ______ ____
ROOT
ATOM      1  C   UNL     1      -0.245  -6.096   6.128  0.00  0.00    +0.017 C 
ATOM      2  C   UNL     1       0.534  -5.363   5.005  0.00  0.00    +0.025 C 
ATOM      3  C   UNL     1      -0.333  -4.114   4.740  0.00  0.00    +0.088 C 
ATOM      4  N   UNL     1      -1.695  -4.419   5.213  0.00  0.00    -0.298 NA
ATOM      5  C   UNL     1      -1.714  -5.803   5.733  0.00  0.00    +0.085 C 
ATOM      6  C   UNL     1      -2.122  -3.463   6.243  0.00  0.00    +0.105 C 
ENDROOT
BRANCH   3   7
ATOM      7  C   UNL     1      -0.358  -3.810   3.264  0.00  0.00    -0.012 A 
ATOM      8  C   UNL     1       0.558  -4.401   2.414  0.00  0.00    +0.115 A 
ATOM      9  N   UNL     1       0.543  -4.141   1.121  0.00  0.00    -0.263 NA
ATOM     10  C   UNL     1      -0.336  -3.314   0.590  0.00  0.00    +0.111 A 
ATOM     11  C   UNL     1      -1.283  -2.687   1.378  0.00  0.00    +0.020 A 
ATOM     12  C   UNL     1      -1.302  -2.940   2.741  0.00  0.00    +0.008 A 
ENDBRANCH   3   7
TORSDOF 1
ENDMDL
MODEL 3
REMARK VINA RESULT:    -2.174      9.403     10.933
REMARK INTER + INTRA:          -2.514
REMARK INTER:                  -2.316
REMARK INTRA:                  -0.198
REMARK UNBOUND:                -0.213
REMARK  Name = Nicotine.pdb
REMARK  2 active torsions:
REMARK  status: ('A' for Active; 'I' for Inactive)
REMARK    1  A    between atoms: C_3  and  C_6
REMARK    2  A    between atoms: N_4  and  C_12
REMARK                            x       y       z     vdW  Elec       q    Type
REMARK                         _______ _______ _______ _____ _____    ______ ____
ROOT
ATOM      1  C   UNL     1      -1.227   4.732   2.387  0.00  0.00    +0.017 C 
ATOM      2  C   UNL     1       0.112   4.434   3.111  0.00  0.00    +0.025 C 
ATOM      3  C   UNL     1       0.017   5.297   4.387  0.00  0.00    +0.088 C 
ATOM      4  N   UNL     1      -0.954   6.373   4.115  0.00  0.00    -0.298 NA
ATOM      5  C   UNL     1      -1.440   6.228   2.727  0.00  0.00    +0.085 C 
ATOM      6  C   UNL     1      -2.068   6.331   5.071  0.00  0.00    +0.105 C 
ENDROOT
BRANCH   3   7
ATOM      7  C   UNL     1       1.364   5.890   4.707  0.00  0.00    -0.012 A 
ATOM      8  C   UNL     1       2.110   6.505   3.720  0.00  0.00    +0.115 A 
ATOM      9  N   UNL     1       3.291   7.026   3.992  0.00  0.00    -0.263 NA
ATOM     10  C   UNL     1       3.805   6.983   5.205  0.00  0.00    +0.111 A 
ATOM     11  C   UNL     1       3.116   6.384   6.244  0.00  0.00    +0.020 A 
ATOM     12  C   UNL     1       1.870   5.830   5.997  0.00  0.00    +0.008 A 
ENDBRANCH   3   7
TORSDOF 1
ENDMDL
MODEL 4
REMARK VINA RESULT:    -1.579      1.250      4.498
REMARK INTER + INTRA:          -1.884
REMARK INTER:                  -1.636
REMARK INTRA:                  -0.249
REMARK UNBOUND:                -0.213
REMARK  Name = Nicotine.pdb
REMARK  2 active torsions:
REMARK  status: ('A' for Active; 'I' for Inactive)
REMARK    1  A    between atoms: C_3  and  C_6
REMARK    2  A    between atoms: N_4  and  C_12
REMARK                            x       y       z     vdW  Elec       q    Type
REMARK                         _______ _______ _______ _____ _____    ______ ____
ROOT
ATOM      1  C   UNL     1       0.366  -3.481   0.732  0.00  0.00    +0.017 C 
ATOM      2  C   UNL     1       0.108  -4.765   1.563  0.00  0.00    +0.025 C 
ATOM      3  C   UNL     1      -1.189  -4.428   2.329  0.00  0.00    +0.088 C 
ATOM      4  N   UNL     1      -1.298  -2.959   2.378  0.00  0.00    -0.298 NA
ATOM      5  C   UNL     1      -0.119  -2.376   1.703  0.00  0.00    +0.085 C 
ATOM      6  C   UNL     1      -2.544  -2.501   1.751  0.00  0.00    +0.105 C 
ENDROOT
BRANCH   3   7
ATOM      7  C   UNL     1      -1.119  -4.985   3.727  0.00  0.00    -0.012 A 
ATOM      8  C   UNL     1      -2.231  -5.570   4.303  0.00  0.00    +0.115 A 
ATOM      9  N   UNL     1      -2.179  -6.061   5.526  0.00  0.00    -0.263 NA
ATOM     10  C   UNL     1      -1.074  -6.015   6.244  0.00  0.00    +0.111 A 
ATOM     11  C   UNL     1       0.078  -5.445   5.734  0.00  0.00    +0.020 A 
ATOM     12  C   UNL     1       0.062  -4.924   4.450  0.00  0.00    +0.008 A 
ENDBRANCH   3   7
TORSDOF 1
ENDMDL
MODEL 5
REMARK VINA RESULT:    -1.283      1.308      2.015
REMARK INTER + INTRA:          -1.571
REMARK INTER:                  -1.354
REMARK INTRA:                  -0.217
REMARK UNBOUND:                -0.213
REMARK  Name = Nicotine.pdb
REMARK  2 active torsions:
REMARK  status: ('A' for Active; 'I' for Inactive)
REMARK    1  A    between atoms: C_3  and  C_6
REMARK    2  A    between atoms: N_4  and  C_12
REMARK                            x       y       z     vdW  Elec       q    Type
REMARK                         _______ _______ _______ _____ _____    ______ ____
ROOT
ATOM      1  C   UNL     1      -1.220  -4.835   6.244  0.00  0.00    +0.017 C 
ATOM      2  C   UNL     1      -1.125  -3.586   5.328  0.00  0.00    +0.025 C 
ATOM      3  C   UNL     1      -2.086  -3.931   4.171  0.00  0.00    +0.088 C 
ATOM      4  N   UNL     1      -2.226  -5.398   4.140  0.00  0.00    -0.298 NA
ATOM      5  C   UNL     1      -1.377  -5.974   5.205  0.00  0.00    +0.085 C 
ATOM      6  C   UNL     1      -3.628  -5.798   4.310  0.00  0.00    +0.105 C 
ENDROOT
BRANCH   3   7
ATOM      7  C   UNL     1      -1.514  -3.442   2.866  0.00  0.00    -0.012 A 
ATOM      8  C   UNL     1      -2.213  -2.534   2.092  0.00  0.00    +0.115 A 
ATOM      9  N   UNL     1      -1.719  -2.101   0.949  0.00  0.00    -0.263 NA
ATOM     10  C   UNL     1      -0.549  -2.511   0.499  0.00  0.00    +0.111 A 
ATOM     11  C   UNL     1       0.207  -3.418   1.218  0.00  0.00    +0.020 A 
ATOM     12  C   UNL     1      -0.277  -3.891   2.428  0.00  0.00    +0.008 A 
ENDBRANCH   3   7
TORSDOF 1
ENDMDL
