MODEL 1
REMARK VINA RESULT:    11.069      0.000      0.000
REMARK INTER + INTRA:          11.468
REMARK INTER:                  11.716
REMARK INTRA:                  -0.248
REMARK UNBOUND:                -0.248
REMARK  Name = Nicotine.pdb
REMARK  2 active torsions:
REMARK  status: ('A' for Active; 'I' for Inactive)
REMARK    1  A    between atoms: C_3  and  C_6
REMARK    2  A    between atoms: N_4  and  C_12
REMARK                            x       y       z     vdW  Elec       q    Type
REMARK                         _______ _______ _______ _____ _____    ______ ____
ROOT
ATOM      1  C   UNL     1       0.577   1.759   3.217  0.00  0.00    +0.017 C 
ATOM      2  C   UNL     1       1.339   1.864   1.870  0.00  0.00    +0.025 C 
ATOM      3  C   UNL     1       1.575   3.383   1.723  0.00  0.00    +0.088 C 
ATOM      4  N   UNL     1       0.566   4.064   2.554  0.00  0.00    -0.298 NA
ATOM      5  C   UNL     1      -0.293   3.040   3.185  0.00  0.00    +0.085 C 
ATOM      6  C   UNL     1       1.205   4.913   3.568  0.00  0.00    +0.105 C 
ENDROOT
BRANCH   3   7
ATOM      7  C   UNL     1       1.412   3.789   0.281  0.00  0.00    -0.012 A 
ATOM      8  C   UNL     1       1.702   5.080  -0.118  0.00  0.00    +0.115 A 
ATOM      9  N   UNL     1       1.562   5.445  -1.378  0.00  0.00    -0.263 NA
ATOM     10  C   UNL     1       1.144   4.601  -2.301  0.00  0.00    +0.111 A 
ATOM     11  C   UNL     1       0.835   3.293  -1.976  0.00  0.00    +0.020 A 
ATOM     12  C   UNL     1       0.975   2.872  -0.663  0.00  0.00    +0.008 A 
ENDBRANCH   3   7
TORSDOF 1
ENDMDL
MODEL 2
REMARK VINA RESULT:    11.860      1.318      4.617
REMARK INTER + INTRA:          12.306
REMARK INTER:                  12.514
REMARK INTRA:                  -0.208
REMARK UNBOUND:                -0.248
REMARK  Name = Nicotine.pdb
REMARK  2 active torsions:
REMARK  status: ('A' for Active; 'I' for Inactive)
REMARK    1  A    between atoms: C_3  and  C_6
REMARK    2  A    between atoms: N_4  and  C_12
REMARK                            x       y       z     vdW  Elec       q    Type
REMARK                         _______ _______ _______ _____ _____    ______ ____
ROOT
ATOM      1  C   UNL     1       1.525   3.486  -3.273  0.00  0.00    +0.017 C 
ATOM      2  C   UNL     1       0.859   2.761  -2.075  0.00  0.00    +0.025 C 
ATOM      3  C   UNL     1       0.597   3.909  -1.077  0.00  0.00    +0.088 C 
ATOM      4  N   UNL     1       1.526   5.002  -1.415  0.00  0.00    -0.298 NA
ATOM      5  C   UNL     1       2.363   4.573  -2.555  0.00  0.00    +0.085 C 
ATOM      6  C   UNL     1       0.795   6.236  -1.732  0.00  0.00    +0.105 C 
ENDROOT
BRANCH   3   7
ATOM      7  C   UNL     1       0.853   3.433   0.330  0.00  0.00    -0.012 A 
ATOM      8  C   UNL     1       0.238   2.290   0.804  0.00  0.00    +0.115 A 
ATOM      9  N   UNL     1       0.457   1.867   2.034  0.00  0.00    -0.263 NA
ATOM     10  C   UNL     1       1.262   2.510   2.855  0.00  0.00    +0.111 A 
ATOM     11  C   UNL     1       1.912   3.662   2.452  0.00  0.00    +0.020 A 
ATOM     12  C   UNL     1       1.711   4.134   1.164  0.00  0.00    +0.008 A 
ENDBRANCH   3   7
TORSDOF 1
ENDMDL
MODEL 3
REMARK VINA RESULT:    12.178      1.210      4.732
REMARK INTER + INTRA:          12.642
REMARK INTER:                  12.862
REMARK INTRA:                  -0.220
REMARK UNBOUND:                -0.248
REMARK  Name = Nicotine.pdb
REMARK  2 active torsions:
REMARK  status: ('A' for Active; 'I' for Inactive)
REMARK    1  A    between atoms: C_3  and  C_6
REMARK    2  A    between atoms: N_4  and  C_12
REMARK                            x       y       z     vdW  Elec       q    Type
REMARK                         _______ _______ _______ _____ _____    ______ ____
ROOT
ATOM      1  C   UNL     1       1.598   5.929  -1.826  0.00  0.00    +0.017 C 
ATOM      2  C   UNL     1       2.062   5.566  -0.391  0.00  0.00    +0.025 C 
ATOM      3  C   UNL     1       1.920   4.029  -0.359  0.00  0.00    +0.088 C 
ATOM      4  N   UNL     1       0.952   3.657  -1.406  0.00  0.00    -0.298 NA
ATOM      5  C   UNL     1       0.472   4.892  -2.063  0.00  0.00    +0.085 C 
ATOM      6  C   UNL     1       1.556   2.742  -2.382  0.00  0.00    +0.105 C 
ENDROOT
BRANCH   3   7
ATOM      7  C   UNL     1       1.414   3.589   0.990  0.00  0.00    -0.012 A 
ATOM      8  C   UNL     1       0.911   2.314   1.166  0.00  0.00    +0.115 A 
ATOM      9  N   UNL     1       0.465   1.920   2.343  0.00  0.00    -0.263 NA
ATOM     10  C   UNL     1       0.480   2.719   3.392  0.00  0.00    +0.111 A 
ATOM     11  C   UNL     1       0.969   4.008   3.292  0.00  0.00    +0.020 A 
ATOM     12  C   UNL     1       1.451   4.455   2.072  0.00  0.00    +0.008 A 
ENDBRANCH   3   7
TORSDOF 1
ENDMDL
