MODEL 1
REMARK VINA RESULT:    -5.867      0.000      0.000
REMARK INTER + INTRA:          -6.408
REMARK INTER:                  -6.209
REMARK INTRA:                  -0.198
REMARK UNBOUND:                -0.198
REMARK  Name = Nicotine.pdb
REMARK  2 active torsions:
REMARK  status: ('A' for Active; 'I' for Inactive)
REMARK    1  A    between atoms: C_3  and  C_6
REMARK    2  A    between atoms: N_4  and  C_12
REMARK                            x       y       z     vdW  Elec       q    Type
REMARK                         _______ _______ _______ _____ _____    ______ ____
ROOT
ATOM      1  C   UNL     1       1.956  -1.462  -3.529  0.00  0.00    +0.017 C 
ATOM      2  C   UNL     1       2.473  -0.048  -3.901  0.00  0.00    +0.025 C 
ATOM      3  C   UNL     1       3.972  -0.288  -4.180  0.00  0.00    +0.088 C 
ATOM      4  N   UNL     1       4.353  -1.528  -3.481  0.00  0.00    -0.298 NA
ATOM      5  C   UNL     1       3.169  -2.047  -2.764  0.00  0.00    +0.085 C 
ATOM      6  C   UNL     1       4.879  -2.524  -4.423  0.00  0.00    +0.105 C 
ENDROOT
BRANCH   3   7
ATOM      7  C   UNL     1       4.783   0.869  -3.657  0.00  0.00    -0.012 A 
ATOM      8  C   UNL     1       5.358   1.772  -4.530  0.00  0.00    +0.115 A 
ATOM      9  N   UNL     1       6.070   2.787  -4.080  0.00  0.00    -0.263 NA
ATOM     10  C   UNL     1       6.260   2.981  -2.790  0.00  0.00    +0.111 A 
ATOM     11  C   UNL     1       5.715   2.120  -1.856  0.00  0.00    +0.020 A 
ATOM     12  C   UNL     1       4.957   1.045  -2.292  0.00  0.00    +0.008 A 
ENDBRANCH   3   7
TORSDOF 1
ENDMDL
MODEL 2
REMARK VINA RESULT:    -5.827      1.289      2.081
REMARK INTER + INTRA:          -6.366
REMARK INTER:                  -6.191
REMARK INTRA:                  -0.175
REMARK UNBOUND:                -0.198
REMARK  Name = Nicotine.pdb
REMARK  2 active torsions:
REMARK  status: ('A' for Active; 'I' for Inactive)
REMARK    1  A    between atoms: C_3  and  C_6
REMARK    2  A    between atoms: N_4  and  C_12
REMARK                            x       y       z     vdW  Elec       q    Type
REMARK                         _______ _______ _______ _____ _____    ______ ____
ROOT
ATOM      1  C   UNL     1       2.905  -2.468  -3.162  0.00  0.00    +0.017 C 
ATOM      2  C   UNL     1       4.200  -1.711  -2.765  0.00  0.00    +0.025 C 
ATOM      3  C   UNL     1       3.679  -0.306  -2.392  0.00  0.00    +0.088 C 
ATOM      4  N   UNL     1       2.378  -0.131  -3.062  0.00  0.00    -0.298 NA
ATOM      5  C   UNL     1       2.085  -1.348  -3.849  0.00  0.00    +0.085 C 
ATOM      6  C   UNL     1       1.314   0.135  -2.086  0.00  0.00    +0.105 C 
ENDROOT
BRANCH   3   7
ATOM      7  C   UNL     1       4.649   0.743  -2.870  0.00  0.00    -0.012 A 
ATOM      8  C   UNL     1       4.904   0.897  -4.219  0.00  0.00    +0.115 A 
ATOM      9  N   UNL     1       5.752   1.814  -4.646  0.00  0.00    -0.263 NA
ATOM     10  C   UNL     1       6.386   2.613  -3.811  0.00  0.00    +0.111 A 
ATOM     11  C   UNL     1       6.181   2.518  -2.447  0.00  0.00    +0.020 A 
ATOM     12  C   UNL     1       5.293   1.570  -1.962  0.00  0.00    +0.008 A 
ENDBRANCH   3   7
TORSDOF 1
ENDMDL
MODEL 3
REMARK VINA RESULT:    -5.720      1.248      1.756
REMARK INTER + INTRA:          -6.252
REMARK INTER:                  -6.037
REMARK INTRA:                  -0.215
REMARK UNBOUND:                -0.198
REMARK  Name = Nicotine.pdb
REMARK  2 active torsions:
REMARK  status: ('A' for Active; 'I' for Inactive)
REMARK    1  A    between atoms: C_3  and  C_6
REMARK    2  A    between atoms: N_4  and  C_12
REMARK                            x       y       z     vdW  Elec       q    Type
REMARK                         _______ _______ _______ _____ _____    ______ ____
ROOT
ATOM      1  C   UNL     1       1.420  -0.507  -2.693  0.00  0.00    +0.017 C 
ATOM      2  C   UNL     1       2.102   0.881  -2.816  0.00  0.00    +0.025 C 
ATOM      3  C   UNL     1       3.116   0.670  -3.959  0.00  0.00    +0.088 C 
ATOM      4  N   UNL     1       3.383  -0.777  -4.045  0.00  0.00    -0.298 NA
ATOM      5  C   UNL     1       2.602  -1.463  -2.994  0.00  0.00    +0.085 C 
ATOM      6  C   UNL     1       3.046  -1.297  -5.377  0.00  0.00    +0.105 C 
ENDROOT
BRANCH   3   7
ATOM      7  C   UNL     1       4.393   1.411  -3.656  0.00  0.00    -0.012 A 
ATOM      8  C   UNL     1       4.668   1.831  -2.368  0.00  0.00    +0.115 A 
ATOM      9  N   UNL     1       5.783   2.480  -2.094  0.00  0.00    -0.263 NA
ATOM     10  C   UNL     1       6.673   2.754  -3.027  0.00  0.00    +0.111 A 
ATOM     11  C   UNL     1       6.466   2.365  -4.337  0.00  0.00    +0.020 A 
ATOM     12  C   UNL     1       5.308   1.676  -4.663  0.00  0.00    +0.008 A 
ENDBRANCH   3   7
TORSDOF 1
ENDMDL
MODEL 4
REMARK VINA RESULT:    -5.594      1.175      4.561
REMARK INTER + INTRA:          -6.120
REMARK INTER:                  -5.906
REMARK INTRA:                  -0.214
REMARK UNBOUND:                -0.198
REMARK  Name = Nicotine.pdb
REMARK  2 active torsions:
REMARK  status: ('A' for Active; 'I' for Inactive)
REMARK    1  A    between atoms: C_3  and  C_6
REMARK    2  A    between atoms: N_4  and  C_12
REMARK                            x       y       z     vdW  Elec       q    Type
REMARK                         _______ _______ _______ _____ _____    ______ ____
ROOT
ATOM      1  C   UNL     1       6.450   2.744  -4.068  0.00  0.00    +0.017 C 
ATOM      2  C   UNL     1       5.365   1.782  -4.620  0.00  0.00    +0.025 C 
ATOM      3  C   UNL     1       4.339   1.720  -3.469  0.00  0.00    +0.088 C 
ATOM      4  N   UNL     1       5.044   2.105  -2.233  0.00  0.00    -0.298 NA
ATOM      5  C   UNL     1       6.460   2.375  -2.564  0.00  0.00    +0.085 C 
ATOM      6  C   UNL     1       4.415   3.276  -1.610  0.00  0.00    +0.105 C 
ENDROOT
BRANCH   3   7
ATOM      7  C   UNL     1       3.799   0.319  -3.338  0.00  0.00    -0.012 A 
ATOM      8  C   UNL     1       4.580  -0.766  -3.687  0.00  0.00    +0.115 A 
ATOM      9  N   UNL     1       4.116  -1.995  -3.575  0.00  0.00    -0.263 NA
ATOM     10  C   UNL     1       2.899  -2.239  -3.131  0.00  0.00    +0.111 A 
ATOM     11  C   UNL     1       2.060  -1.203  -2.762  0.00  0.00    +0.020 A 
ATOM     12  C   UNL     1       2.516   0.102  -2.861  0.00  0.00    +0.008 A 
ENDBRANCH   3   7
TORSDOF 1
ENDMDL
MODEL 5
REMARK VINA RESULT:    -5.428      3.077      5.000
REMARK INTER + INTRA:          -5.944
REMARK INTER:                  -5.727
REMARK INTRA:                  -0.217
REMARK UNBOUND:                -0.198
REMARK  Name = Nicotine.pdb
REMARK  2 active torsions:
REMARK  status: ('A' for Active; 'I' for Inactive)
REMARK    1  A    between atoms: C_3  and  C_6
REMARK    2  A    between atoms: N_4  and  C_12
REMARK                            x       y       z     vdW  Elec       q    Type
REMARK                         _______ _______ _______ _____ _____    ______ ____
ROOT
ATOM      1  C   UNL     1       4.065   0.585  -4.038  0.00  0.00    +0.017 C 
ATOM      2  C   UNL     1       3.163   1.042  -2.862  0.00  0.00    +0.025 C 
ATOM      3  C   UNL     1       2.258  -0.185  -2.621  0.00  0.00    +0.088 C 
ATOM      4  N   UNL     1       2.248  -0.972  -3.867  0.00  0.00    -0.298 NA
ATOM      5  C   UNL     1       3.082  -0.276  -4.870  0.00  0.00    +0.085 C 
ATOM      6  C   UNL     1       2.735  -2.337  -3.632  0.00  0.00    +0.105 C 
ENDROOT
BRANCH   3   7
ATOM      7  C   UNL     1       0.860   0.267  -2.287  0.00  0.00    -0.012 A 
ATOM      8  C   UNL     1       0.278  -0.090  -1.086  0.00  0.00    +0.115 A 
ATOM      9  N   UNL     1      -0.945   0.301  -0.786  0.00  0.00    -0.263 NA
ATOM     10  C   UNL     1      -1.658   1.042  -1.611  0.00  0.00    +0.111 A 
ATOM     11  C   UNL     1      -1.142   1.438  -2.831  0.00  0.00    +0.020 A 
ATOM     12  C   UNL     1       0.143   1.051  -3.178  0.00  0.00    +0.008 A 
ENDBRANCH   3   7
TORSDOF 1
ENDMDL
MODEL 6
REMARK VINA RESULT:    -5.364      1.724      4.513
REMARK INTER + INTRA:          -5.876
REMARK INTER:                  -5.637
REMARK INTRA:                  -0.239
REMARK UNBOUND:                -0.198
REMARK  Name = Nicotine.pdb
REMARK  2 active torsions:
REMARK  status: ('A' for Active; 'I' for Inactive)
REMARK    1  A    between atoms: C_3  and  C_6
REMARK    2  A    between atoms: N_4  and  C_12
REMARK                            x       y       z     vdW  Elec       q    Type
REMARK                         _______ _______ _______ _____ _____    ______ ____
ROOT
ATOM      1  C   UNL     1       1.602   0.250  -2.550  0.00  0.00    +0.017 C 
ATOM      2  C   UNL     1       2.144  -1.185  -2.779  0.00  0.00    +0.025 C 
ATOM      3  C   UNL     1       3.589  -0.938  -3.261  0.00  0.00    +0.088 C 
ATOM      4  N   UNL     1       3.642   0.434  -3.798  0.00  0.00    -0.298 NA
ATOM      5  C   UNL     1       2.294   1.032  -3.694  0.00  0.00    +0.085 C 
ATOM      6  C   UNL     1       4.635   1.243  -3.081  0.00  0.00    +0.105 C 
ENDROOT
BRANCH   3   7
ATOM      7  C   UNL     1       3.947  -1.927  -4.340  0.00  0.00    -0.012 A 
ATOM      8  C   UNL     1       5.147  -2.611  -4.292  0.00  0.00    +0.115 A 
ATOM      9  N   UNL     1       5.467  -3.478  -5.233  0.00  0.00    -0.263 NA
ATOM     10  C   UNL     1       4.664  -3.727  -6.248  0.00  0.00    +0.111 A 
ATOM     11  C   UNL     1       3.447  -3.082  -6.363  0.00  0.00    +0.020 A 
ATOM     12  C   UNL     1       3.074  -2.167  -5.390  0.00  0.00    +0.008 A 
ENDBRANCH   3   7
TORSDOF 1
ENDMDL
MODEL 7
REMARK VINA RESULT:    -5.184      1.996      2.798
REMARK INTER + INTRA:          -5.686
REMARK INTER:                  -5.432
REMARK INTRA:                  -0.254
REMARK UNBOUND:                -0.198
REMARK  Name = Nicotine.pdb
REMARK  2 active torsions:
REMARK  status: ('A' for Active; 'I' for Inactive)
REMARK    1  A    between atoms: C_3  and  C_6
REMARK    2  A    between atoms: N_4  and  C_12
REMARK                            x       y       z     vdW  Elec       q    Type
REMARK                         _______ _______ _______ _____ _____    ______ ____
ROOT
ATOM      1  C   UNL     1       3.255   0.219  -5.136  0.00  0.00    +0.017 C 
ATOM      2  C   UNL     1       4.646   0.387  -4.470  0.00  0.00    +0.025 C 
ATOM      3  C   UNL     1       4.303   0.473  -2.967  0.00  0.00    +0.088 C 
ATOM      4  N   UNL     1       2.896   0.900  -2.864  0.00  0.00    -0.298 NA
ATOM      5  C   UNL     1       2.365   1.105  -4.229  0.00  0.00    +0.085 C 
ATOM      6  C   UNL     1       2.098  -0.090  -2.131  0.00  0.00    +0.105 C 
ENDROOT
BRANCH   3   7
ATOM      7  C   UNL     1       5.197   1.482  -2.295  0.00  0.00    -0.012 A 
ATOM      8  C   UNL     1       5.272   1.541  -0.916  0.00  0.00    +0.115 A 
ATOM      9  N   UNL     1       6.052   2.421  -0.319  0.00  0.00    -0.263 NA
ATOM     10  C   UNL     1       6.786   3.274  -1.006  0.00  0.00    +0.111 A 
ATOM     11  C   UNL     1       6.763   3.275  -2.388  0.00  0.00    +0.020 A 
ATOM     12  C   UNL     1       5.959   2.361  -3.050  0.00  0.00    +0.008 A 
ENDBRANCH   3   7
TORSDOF 1
ENDMDL
MODEL 8
REMARK VINA RESULT:    -5.127      1.824      4.682
REMARK INTER + INTRA:          -5.626
REMARK INTER:                  -5.411
REMARK INTRA:                  -0.215
REMARK UNBOUND:                -0.198
REMARK  Name = Nicotine.pdb
REMARK  2 active torsions:
REMARK  status: ('A' for Active; 'I' for Inactive)
REMARK    1  A    between atoms: C_3  and  C_6
REMARK    2  A    between atoms: N_4  and  C_12
REMARK                            x       y       z     vdW  Elec       q    Type
REMARK                         _______ _______ _______ _____ _____    ______ ____
ROOT
ATOM      1  C   UNL     1       1.554   0.751  -3.110  0.00  0.00    +0.017 C 
ATOM      2  C   UNL     1       1.674  -0.735  -2.683  0.00  0.00    +0.025 C 
ATOM      3  C   UNL     1       3.198  -0.931  -2.532  0.00  0.00    +0.088 C 
ATOM      4  N   UNL     1       3.855   0.112  -3.340  0.00  0.00    -0.298 NA
ATOM      5  C   UNL     1       2.810   0.924  -4.000  0.00  0.00    +0.085 C 
ATOM      6  C   UNL     1       4.727   0.952  -2.508  0.00  0.00    +0.105 C 
ENDROOT
BRANCH   3   7
ATOM      7  C   UNL     1       3.592  -2.295  -3.035  0.00  0.00    -0.012 A 
ATOM      8  C   UNL     1       2.713  -3.040  -3.799  0.00  0.00    +0.115 A 
ATOM      9  N   UNL     1       3.050  -4.234  -4.244  0.00  0.00    -0.263 NA
ATOM     10  C   UNL     1       4.228  -4.765  -3.981  0.00  0.00    +0.111 A 
ATOM     11  C   UNL     1       5.160  -4.079  -3.224  0.00  0.00    +0.020 A 
ATOM     12  C   UNL     1       4.843  -2.818  -2.744  0.00  0.00    +0.008 A 
ENDBRANCH   3   7
TORSDOF 1
ENDMDL
MODEL 9
REMARK VINA RESULT:    -5.112      1.606      4.618
REMARK INTER + INTRA:          -5.610
REMARK INTER:                  -5.399
REMARK INTRA:                  -0.211
REMARK UNBOUND:                -0.198
REMARK  Name = Nicotine.pdb
REMARK  2 active torsions:
REMARK  status: ('A' for Active; 'I' for Inactive)
REMARK    1  A    between atoms: C_3  and  C_6
REMARK    2  A    between atoms: N_4  and  C_12
REMARK                            x       y       z     vdW  Elec       q    Type
REMARK                         _______ _______ _______ _____ _____    ______ ____
ROOT
ATOM      1  C   UNL     1       5.218   2.125  -3.313  0.00  0.00    +0.017 C 
ATOM      2  C   UNL     1       5.315   0.846  -4.186  0.00  0.00    +0.025 C 
ATOM      3  C   UNL     1       3.852   0.359  -4.252  0.00  0.00    +0.088 C 
ATOM      4  N   UNL     1       3.147   0.935  -3.092  0.00  0.00    -0.298 NA
ATOM      5  C   UNL     1       4.111   1.731  -2.303  0.00  0.00    +0.085 C 
ATOM      6  C   UNL     1       2.010   1.759  -3.522  0.00  0.00    +0.105 C 
ENDROOT
BRANCH   3   7
ATOM      7  C   UNL     1       3.809  -1.145  -4.185  0.00  0.00    -0.012 A 
ATOM      8  C   UNL     1       4.958  -1.866  -3.919  0.00  0.00    +0.115 A 
ATOM      9  N   UNL     1       4.929  -3.183  -3.859  0.00  0.00    -0.263 NA
ATOM     10  C   UNL     1       3.814  -3.861  -4.047  0.00  0.00    +0.111 A 
ATOM     11  C   UNL     1       2.626  -3.209  -4.316  0.00  0.00    +0.020 A 
ATOM     12  C   UNL     1       2.616  -1.824  -4.383  0.00  0.00    +0.008 A 
ENDBRANCH   3   7
TORSDOF 1
ENDMDL
MODEL 10
REMARK VINA RESULT:    -5.001      2.124      5.144
REMARK INTER + INTRA:          -5.492
REMARK INTER:                  -5.265
REMARK INTRA:                  -0.227
REMARK UNBOUND:                -0.198
REMARK  Name = Nicotine.pdb
REMARK  2 active torsions:
REMARK  status: ('A' for Active; 'I' for Inactive)
REMARK    1  A    between atoms: C_3  and  C_6
REMARK    2  A    between atoms: N_4  and  C_12
REMARK                            x       y       z     vdW  Elec       q    Type
REMARK                         _______ _______ _______ _____ _____    ______ ____
ROOT
ATOM      1  C   UNL     1       3.303   0.471  -5.118  0.00  0.00    +0.017 C 
ATOM      2  C   UNL     1       3.043  -1.022  -5.452  0.00  0.00    +0.025 C 
ATOM      3  C   UNL     1       3.550  -1.753  -4.191  0.00  0.00    +0.088 C 
ATOM      4  N   UNL     1       4.503  -0.852  -3.517  0.00  0.00    -0.298 NA
ATOM      5  C   UNL     1       4.625   0.386  -4.315  0.00  0.00    +0.085 C 
ATOM      6  C   UNL     1       4.067  -0.555  -2.146  0.00  0.00    +0.105 C 
ENDROOT
BRANCH   3   7
ATOM      7  C   UNL     1       4.243  -3.032  -4.584  0.00  0.00    -0.012 A 
ATOM      8  C   UNL     1       4.954  -3.759  -3.647  0.00  0.00    +0.115 A 
ATOM      9  N   UNL     1       5.562  -4.879  -3.983  0.00  0.00    -0.263 NA
ATOM     10  C   UNL     1       5.520  -5.350  -5.214  0.00  0.00    +0.111 A 
ATOM     11  C   UNL     1       4.828  -4.678  -6.204  0.00  0.00    +0.020 A 
ATOM     12  C   UNL     1       4.171  -3.499  -5.888  0.00  0.00    +0.008 A 
ENDBRANCH   3   7
TORSDOF 1
ENDMDL
