MODEL 1
REMARK VINA RESULT:    -0.049      0.000      0.000
REMARK INTER + INTRA:          -0.308
REMARK INTER:                  -0.052
REMARK INTRA:                  -0.256
REMARK UNBOUND:                -0.256
REMARK  Name = Nicotine.pdb
REMARK  2 active torsions:
REMARK  status: ('A' for Active; 'I' for Inactive)
REMARK    1  A    between atoms: C_3  and  C_6
REMARK    2  A    between atoms: N_4  and  C_12
REMARK                            x       y       z     vdW  Elec       q    Type
REMARK                         _______ _______ _______ _____ _____    ______ ____
ROOT
ATOM      1  C   UNL     1      -1.103   1.840  -5.448  0.00  0.00    +0.017 C 
ATOM      2  C   UNL     1      -2.221   2.471  -6.319  0.00  0.00    +0.025 C 
ATOM      3  C   UNL     1      -1.668   3.879  -6.628  0.00  0.00    +0.088 C 
ATOM      4  N   UNL     1      -0.675   4.197  -5.586  0.00  0.00    -0.298 NA
ATOM      5  C   UNL     1      -0.610   3.065  -4.637  0.00  0.00    +0.085 C 
ATOM      6  C   UNL     1       0.642   4.466  -6.176  0.00  0.00    +0.105 C 
ENDROOT
BRANCH   3   7
ATOM      7  C   UNL     1      -2.786   4.888  -6.598  0.00  0.00    -0.012 A 
ATOM      8  C   UNL     1      -2.630   6.123  -7.198  0.00  0.00    +0.115 A 
ATOM      9  N   UNL     1      -3.604   7.012  -7.176  0.00  0.00    -0.263 NA
ATOM     10  C   UNL     1      -4.757   6.762  -6.586  0.00  0.00    +0.111 A 
ATOM     11  C   UNL     1      -4.986   5.548  -5.966  0.00  0.00    +0.020 A 
ATOM     12  C   UNL     1      -3.987   4.587  -5.973  0.00  0.00    +0.008 A 
ENDBRANCH   3   7
TORSDOF 1
ENDMDL
MODEL 2
REMARK VINA RESULT:    -0.041      1.404      4.304
REMARK INTER + INTRA:          -0.299
REMARK INTER:                  -0.043
REMARK INTRA:                  -0.256
REMARK UNBOUND:                -0.256
REMARK  Name = Nicotine.pdb
REMARK  2 active torsions:
REMARK  status: ('A' for Active; 'I' for Inactive)
REMARK    1  A    between atoms: C_3  and  C_6
REMARK    2  A    between atoms: N_4  and  C_12
REMARK                            x       y       z     vdW  Elec       q    Type
REMARK                         _______ _______ _______ _____ _____    ______ ____
ROOT
ATOM      1  C   UNL     1      -3.840   6.588  -5.813  0.00  0.00    +0.017 C 
ATOM      2  C   UNL     1      -3.171   5.422  -5.038  0.00  0.00    +0.025 C 
ATOM      3  C   UNL     1      -1.786   5.309  -5.710  0.00  0.00    +0.088 C 
ATOM      4  N   UNL     1      -1.900   5.912  -7.050  0.00  0.00    -0.298 NA
ATOM      5  C   UNL     1      -3.293   6.367  -7.245  0.00  0.00    +0.085 C 
ATOM      6  C   UNL     1      -0.955   7.024  -7.210  0.00  0.00    +0.105 C 
ENDROOT
BRANCH   3   7
ATOM      7  C   UNL     1      -1.391   3.860  -5.830  0.00  0.00    -0.012 A 
ATOM      8  C   UNL     1      -0.064   3.508  -5.989  0.00  0.00    +0.115 A 
ATOM      9  N   UNL     1       0.290   2.242  -6.095  0.00  0.00    -0.263 NA
ATOM     10  C   UNL     1      -0.597   1.268  -6.054  0.00  0.00    +0.111 A 
ATOM     11  C   UNL     1      -1.943   1.543  -5.896  0.00  0.00    +0.020 A 
ATOM     12  C   UNL     1      -2.352   2.862  -5.776  0.00  0.00    +0.008 A 
ENDBRANCH   3   7
TORSDOF 1
ENDMDL
MODEL 3
REMARK VINA RESULT:    -0.039      1.816      3.967
REMARK INTER + INTRA:          -0.297
REMARK INTER:                  -0.041
REMARK INTRA:                  -0.256
REMARK UNBOUND:                -0.256
REMARK  Name = Nicotine.pdb
REMARK  2 active torsions:
REMARK  status: ('A' for Active; 'I' for Inactive)
REMARK    1  A    between atoms: C_3  and  C_6
REMARK    2  A    between atoms: N_4  and  C_12
REMARK                            x       y       z     vdW  Elec       q    Type
REMARK                         _______ _______ _______ _____ _____    ______ ____
ROOT
ATOM      1  C   UNL     1       0.095   6.609  -7.019  0.00  0.00    +0.017 C 
ATOM      2  C   UNL     1      -0.189   5.098  -7.222  0.00  0.00    +0.025 C 
ATOM      3  C   UNL     1      -1.730   5.023  -7.160  0.00  0.00    +0.088 C 
ATOM      4  N   UNL     1      -2.196   6.215  -6.429  0.00  0.00    -0.298 NA
ATOM      5  C   UNL     1      -1.017   7.005  -6.016  0.00  0.00    +0.085 C 
ATOM      6  C   UNL     1      -3.106   7.019  -7.256  0.00  0.00    +0.105 C 
ENDROOT
BRANCH   3   7
ATOM      7  C   UNL     1      -2.154   3.774  -6.432  0.00  0.00    -0.012 A 
ATOM      8  C   UNL     1      -3.382   3.196  -6.694  0.00  0.00    +0.115 A 
ATOM      9  N   UNL     1      -3.761   2.103  -6.061  0.00  0.00    -0.263 NA
ATOM     10  C   UNL     1      -2.993   1.521  -5.160  0.00  0.00    +0.111 A 
ATOM     11  C   UNL     1      -1.752   2.043  -4.847  0.00  0.00    +0.020 A 
ATOM     12  C   UNL     1      -1.317   3.188  -5.496  0.00  0.00    +0.008 A 
ENDBRANCH   3   7
TORSDOF 1
ENDMDL
MODEL 4
REMARK VINA RESULT:    -0.037      1.924      2.812
REMARK INTER + INTRA:          -0.295
REMARK INTER:                  -0.040
REMARK INTRA:                  -0.256
REMARK UNBOUND:                -0.256
REMARK  Name = Nicotine.pdb
REMARK  2 active torsions:
REMARK  status: ('A' for Active; 'I' for Inactive)
REMARK    1  A    between atoms: C_3  and  C_6
REMARK    2  A    between atoms: N_4  and  C_12
REMARK                            x       y       z     vdW  Elec       q    Type
REMARK                         _______ _______ _______ _____ _____    ______ ____
ROOT
ATOM      1  C   UNL     1      -0.516   2.716  -3.597  0.00  0.00    +0.017 C 
ATOM      2  C   UNL     1      -0.533   4.159  -4.168  0.00  0.00    +0.025 C 
ATOM      3  C   UNL     1      -1.965   4.640  -3.851  0.00  0.00    +0.088 C 
ATOM      4  N   UNL     1      -2.801   3.439  -3.678  0.00  0.00    -0.298 NA
ATOM      5  C   UNL     1      -1.960   2.243  -3.898  0.00  0.00    +0.085 C 
ATOM      6  C   UNL     1      -3.417   3.412  -2.345  0.00  0.00    +0.105 C 
ENDROOT
BRANCH   3   7
ATOM      7  C   UNL     1      -2.491   5.472  -4.992  0.00  0.00    -0.012 A 
ATOM      8  C   UNL     1      -3.593   6.286  -4.814  0.00  0.00    +0.115 A 
ATOM      9  N   UNL     1      -4.059   7.018  -5.807  0.00  0.00    -0.263 NA
ATOM     10  C   UNL     1      -3.499   7.004  -7.000  0.00  0.00    +0.111 A 
ATOM     11  C   UNL     1      -2.393   6.214  -7.253  0.00  0.00    +0.020 A 
ATOM     12  C   UNL     1      -1.871   5.436  -6.232  0.00  0.00    +0.008 A 
ENDBRANCH   3   7
TORSDOF 1
ENDMDL
MODEL 5
REMARK VINA RESULT:    -0.033      1.578      1.973
REMARK INTER + INTRA:          -0.291
REMARK INTER:                  -0.036
REMARK INTRA:                  -0.256
REMARK UNBOUND:                -0.256
REMARK  Name = Nicotine.pdb
REMARK  2 active torsions:
REMARK  status: ('A' for Active; 'I' for Inactive)
REMARK    1  A    between atoms: C_3  and  C_6
REMARK    2  A    between atoms: N_4  and  C_12
REMARK                            x       y       z     vdW  Elec       q    Type
REMARK                         _______ _______ _______ _____ _____    ______ ____
ROOT
ATOM      1  C   UNL     1       0.737   3.188  -4.081  0.00  0.00    +0.017 C 
ATOM      2  C   UNL     1      -0.031   3.482  -5.396  0.00  0.00    +0.025 C 
ATOM      3  C   UNL     1      -0.157   5.020  -5.389  0.00  0.00    +0.088 C 
ATOM      4  N   UNL     1      -0.018   5.463  -3.990  0.00  0.00    -0.298 NA
ATOM      5  C   UNL     1       0.162   4.271  -3.134  0.00  0.00    +0.085 C 
ATOM      6  C   UNL     1       1.109   6.394  -3.841  0.00  0.00    +0.105 C 
ENDROOT
BRANCH   3   7
ATOM      7  C   UNL     1      -1.504   5.427  -5.926  0.00  0.00    -0.012 A 
ATOM      8  C   UNL     1      -1.677   6.664  -6.519  0.00  0.00    +0.115 A 
ATOM      9  N   UNL     1      -2.853   7.027  -6.991  0.00  0.00    -0.263 NA
ATOM     10  C   UNL     1      -3.904   6.235  -6.918  0.00  0.00    +0.111 A 
ATOM     11  C   UNL     1      -3.808   4.984  -6.339  0.00  0.00    +0.020 A 
ATOM     12  C   UNL     1      -2.586   4.565  -5.836  0.00  0.00    +0.008 A 
ENDBRANCH   3   7
TORSDOF 1
ENDMDL
MODEL 6
REMARK VINA RESULT:    -0.033      2.012      3.055
REMARK INTER + INTRA:          -0.290
REMARK INTER:                  -0.034
REMARK INTRA:                  -0.256
REMARK UNBOUND:                -0.256
REMARK  Name = Nicotine.pdb
REMARK  2 active torsions:
REMARK  status: ('A' for Active; 'I' for Inactive)
REMARK    1  A    between atoms: C_3  and  C_6
REMARK    2  A    between atoms: N_4  and  C_12
REMARK                            x       y       z     vdW  Elec       q    Type
REMARK                         _______ _______ _______ _____ _____    ______ ____
ROOT
ATOM      1  C   UNL     1       0.762   5.140  -2.447  0.00  0.00    +0.017 C 
ATOM      2  C   UNL     1      -0.581   5.745  -2.932  0.00  0.00    +0.025 C 
ATOM      3  C   UNL     1      -1.164   4.627  -3.823  0.00  0.00    +0.088 C 
ATOM      4  N   UNL     1      -0.037   3.780  -4.253  0.00  0.00    -0.298 NA
ATOM      5  C   UNL     1       1.212   4.337  -3.693  0.00  0.00    +0.085 C 
ATOM      6  C   UNL     1      -0.232   2.388  -3.828  0.00  0.00    +0.105 C 
ENDROOT
BRANCH   3   7
ATOM      7  C   UNL     1      -1.843   5.231  -5.025  0.00  0.00    -0.012 A 
ATOM      8  C   UNL     1      -2.798   4.515  -5.721  0.00  0.00    +0.115 A 
ATOM      9  N   UNL     1      -3.397   5.035  -6.774  0.00  0.00    -0.263 NA
ATOM     10  C   UNL     1      -3.113   6.249  -7.204  0.00  0.00    +0.111 A 
ATOM     11  C   UNL     1      -2.168   7.025  -6.558  0.00  0.00    +0.020 A 
ATOM     12  C   UNL     1      -1.522   6.513  -5.443  0.00  0.00    +0.008 A 
ENDBRANCH   3   7
TORSDOF 1
ENDMDL
MODEL 7
REMARK VINA RESULT:    -0.032      2.641      3.604
REMARK INTER + INTRA:          -0.290
REMARK INTER:                  -0.036
REMARK INTRA:                  -0.254
REMARK UNBOUND:                -0.256
REMARK  Name = Nicotine.pdb
REMARK  2 active torsions:
REMARK  status: ('A' for Active; 'I' for Inactive)
REMARK    1  A    between atoms: C_3  and  C_6
REMARK    2  A    between atoms: N_4  and  C_12
REMARK                            x       y       z     vdW  Elec       q    Type
REMARK                         _______ _______ _______ _____ _____    ______ ____
ROOT
ATOM      1  C   UNL     1       3.000   5.641  -6.341  0.00  0.00    +0.017 C 
ATOM      2  C   UNL     1       1.876   6.710  -6.336  0.00  0.00    +0.025 C 
ATOM      3  C   UNL     1       0.933   6.218  -5.218  0.00  0.00    +0.088 C 
ATOM      4  N   UNL     1       1.178   4.774  -5.044  0.00  0.00    -0.298 NA
ATOM      5  C   UNL     1       2.206   4.351  -6.018  0.00  0.00    +0.085 C 
ATOM      6  C   UNL     1       1.598   4.473  -3.669  0.00  0.00    +0.105 C 
ENDROOT
BRANCH   3   7
ATOM      7  C   UNL     1      -0.501   6.451  -5.616  0.00  0.00    -0.012 A 
ATOM      8  C   UNL     1      -1.513   6.345  -4.680  0.00  0.00    +0.115 A 
ATOM      9  N   UNL     1      -2.771   6.548  -5.020  0.00  0.00    -0.263 NA
ATOM     10  C   UNL     1      -3.113   6.858  -6.255  0.00  0.00    +0.111 A 
ATOM     11  C   UNL     1      -2.156   6.982  -7.245  0.00  0.00    +0.020 A 
ATOM     12  C   UNL     1      -0.823   6.781  -6.924  0.00  0.00    +0.008 A 
ENDBRANCH   3   7
TORSDOF 1
ENDMDL
MODEL 8
REMARK VINA RESULT:    -0.028      2.767      3.898
REMARK INTER + INTRA:          -0.285
REMARK INTER:                  -0.031
REMARK INTRA:                  -0.254
REMARK UNBOUND:                -0.256
REMARK  Name = Nicotine.pdb
REMARK  2 active torsions:
REMARK  status: ('A' for Active; 'I' for Inactive)
REMARK    1  A    between atoms: C_3  and  C_6
REMARK    2  A    between atoms: N_4  and  C_12
REMARK                            x       y       z     vdW  Elec       q    Type
REMARK                         _______ _______ _______ _____ _____    ______ ____
ROOT
ATOM      1  C   UNL     1      -2.753   3.804  -7.167  0.00  0.00    +0.017 C 
ATOM      2  C   UNL     1      -3.213   3.887  -5.688  0.00  0.00    +0.025 C 
ATOM      3  C   UNL     1      -3.250   5.406  -5.420  0.00  0.00    +0.088 C 
ATOM      4  N   UNL     1      -2.363   6.045  -6.409  0.00  0.00    -0.298 NA
ATOM      5  C   UNL     1      -1.762   4.991  -7.254  0.00  0.00    +0.085 C 
ATOM      6  C   UNL     1      -3.098   7.020  -7.225  0.00  0.00    +0.105 C 
ENDROOT
BRANCH   3   7
ATOM      7  C   UNL     1      -2.758   5.694  -4.026  0.00  0.00    -0.012 A 
ATOM      8  C   UNL     1      -3.258   6.769  -3.316  0.00  0.00    +0.115 A 
ATOM      9  N   UNL     1      -2.832   7.028  -2.094  0.00  0.00    -0.263 NA
ATOM     10  C   UNL     1      -1.921   6.279  -1.505  0.00  0.00    +0.111 A 
ATOM     11  C   UNL     1      -1.376   5.186  -2.153  0.00  0.00    +0.020 A 
ATOM     12  C   UNL     1      -1.802   4.880  -3.436  0.00  0.00    +0.008 A 
ENDBRANCH   3   7
TORSDOF 1
ENDMDL
MODEL 9
REMARK VINA RESULT:    -0.025      1.674      2.960
REMARK INTER + INTRA:          -0.282
REMARK INTER:                  -0.026
REMARK INTRA:                  -0.256
REMARK UNBOUND:                -0.256
REMARK  Name = Nicotine.pdb
REMARK  2 active torsions:
REMARK  status: ('A' for Active; 'I' for Inactive)
REMARK    1  A    between atoms: C_3  and  C_6
REMARK    2  A    between atoms: N_4  and  C_12
REMARK                            x       y       z     vdW  Elec       q    Type
REMARK                         _______ _______ _______ _____ _____    ______ ____
ROOT
ATOM      1  C   UNL     1      -0.194   0.900  -6.172  0.00  0.00    +0.017 C 
ATOM      2  C   UNL     1      -0.104   2.357  -5.648  0.00  0.00    +0.025 C 
ATOM      3  C   UNL     1      -1.568   2.842  -5.717  0.00  0.00    +0.088 C 
ATOM      4  N   UNL     1      -2.264   1.991  -6.699  0.00  0.00    -0.298 NA
ATOM      5  C   UNL     1      -1.294   1.025  -7.256  0.00  0.00    +0.085 C 
ATOM      6  C   UNL     1      -3.403   1.299  -6.084  0.00  0.00    +0.105 C 
ENDROOT
BRANCH   3   7
ATOM      7  C   UNL     1      -1.611   4.281  -6.160  0.00  0.00    -0.012 A 
ATOM      8  C   UNL     1      -2.720   5.061  -5.894  0.00  0.00    +0.115 A 
ATOM      9  N   UNL     1      -2.766   6.322  -6.279  0.00  0.00    -0.263 NA
ATOM     10  C   UNL     1      -1.767   6.885  -6.928  0.00  0.00    +0.111 A 
ATOM     11  C   UNL     1      -0.625   6.167  -7.230  0.00  0.00    +0.020 A 
ATOM     12  C   UNL     1      -0.538   4.841  -6.836  0.00  0.00    +0.008 A 
ENDBRANCH   3   7
TORSDOF 1
ENDMDL
MODEL 10
REMARK VINA RESULT:    -0.022      1.643      2.500
REMARK INTER + INTRA:          -0.279
REMARK INTER:                  -0.024
REMARK INTRA:                  -0.255
REMARK UNBOUND:                -0.256
REMARK  Name = Nicotine.pdb
REMARK  2 active torsions:
REMARK  status: ('A' for Active; 'I' for Inactive)
REMARK    1  A    between atoms: C_3  and  C_6
REMARK    2  A    between atoms: N_4  and  C_12
REMARK                            x       y       z     vdW  Elec       q    Type
REMARK                         _______ _______ _______ _____ _____    ______ ____
ROOT
ATOM      1  C   UNL     1       1.242   2.732  -6.611  0.00  0.00    +0.017 C 
ATOM      2  C   UNL     1       0.817   4.220  -6.502  0.00  0.00    +0.025 C 
ATOM      3  C   UNL     1      -0.223   4.202  -5.362  0.00  0.00    +0.088 C 
ATOM      4  N   UNL     1      -0.741   2.825  -5.265  0.00  0.00    -0.298 NA
ATOM      5  C   UNL     1      -0.090   2.003  -6.307  0.00  0.00    +0.085 C 
ATOM      6  C   UNL     1      -0.506   2.266  -3.928  0.00  0.00    +0.105 C 
ENDROOT
BRANCH   3   7
ATOM      7  C   UNL     1      -1.347   5.154  -5.677  0.00  0.00    -0.012 A 
ATOM      8  C   UNL     1      -2.219   5.559  -4.685  0.00  0.00    +0.115 A 
ATOM      9  N   UNL     1      -3.206   6.392  -4.953  0.00  0.00    -0.263 NA
ATOM     10  C   UNL     1      -3.400   6.869  -6.166  0.00  0.00    +0.111 A 
ATOM     11  C   UNL     1      -2.567   6.509  -7.210  0.00  0.00    +0.020 A 
ATOM     12  C   UNL     1      -1.516   5.639  -6.965  0.00  0.00    +0.008 A 
ENDBRANCH   3   7
TORSDOF 1
ENDMDL
