MODEL 1
REMARK VINA RESULT:    -4.209      0.000      0.000
REMARK INTER + INTRA:          -4.700
REMARK INTER:                  -4.455
REMARK INTRA:                  -0.245
REMARK UNBOUND:                -0.245
REMARK  Name = Nicotine.pdb
REMARK  2 active torsions:
REMARK  status: ('A' for Active; 'I' for Inactive)
REMARK    1  A    between atoms: C_3  and  C_6
REMARK    2  A    between atoms: N_4  and  C_12
REMARK                            x       y       z     vdW  Elec       q    Type
REMARK                         _______ _______ _______ _____ _____    ______ ____
ROOT
ATOM      1  C   UNL     1      -3.900   0.596  -2.316  0.00  0.00    +0.017 C 
ATOM      2  C   UNL     1      -4.754  -0.661  -2.001  0.00  0.00    +0.025 C 
ATOM      3  C   UNL     1      -3.691  -1.720  -1.639  0.00  0.00    +0.088 C 
ATOM      4  N   UNL     1      -2.420  -1.290  -2.248  0.00  0.00    -0.298 NA
ATOM      5  C   UNL     1      -2.654  -0.032  -2.988  0.00  0.00    +0.085 C 
ATOM      6  C   UNL     1      -1.379  -1.114  -1.227  0.00  0.00    +0.105 C 
ENDROOT
BRANCH   3   7
ATOM      7  C   UNL     1      -4.097  -3.063  -2.189  0.00  0.00    -0.012 A 
ATOM      8  C   UNL     1      -3.954  -4.204  -1.423  0.00  0.00    +0.115 A 
ATOM      9  N   UNL     1      -4.307  -5.383  -1.897  0.00  0.00    -0.263 NA
ATOM     10  C   UNL     1      -4.805  -5.522  -3.110  0.00  0.00    +0.111 A 
ATOM     11  C   UNL     1      -4.977  -4.425  -3.934  0.00  0.00    +0.020 A 
ATOM     12  C   UNL     1      -4.622  -3.169  -3.468  0.00  0.00    +0.008 A 
ENDBRANCH   3   7
TORSDOF 1
ENDMDL
MODEL 2
REMARK VINA RESULT:    -4.168      2.381      3.500
REMARK INTER + INTRA:          -4.657
REMARK INTER:                  -4.458
REMARK INTRA:                  -0.199
REMARK UNBOUND:                -0.245
REMARK  Name = Nicotine.pdb
REMARK  2 active torsions:
REMARK  status: ('A' for Active; 'I' for Inactive)
REMARK    1  A    between atoms: C_3  and  C_6
REMARK    2  A    between atoms: N_4  and  C_12
REMARK                            x       y       z     vdW  Elec       q    Type
REMARK                         _______ _______ _______ _____ _____    ______ ____
ROOT
ATOM      1  C   UNL     1      -3.569   3.182  -1.666  0.00  0.00    +0.017 C 
ATOM      2  C   UNL     1      -2.852   2.024  -0.923  0.00  0.00    +0.025 C 
ATOM      3  C   UNL     1      -2.451   1.072  -2.069  0.00  0.00    +0.088 C 
ATOM      4  N   UNL     1      -3.341   1.359  -3.208  0.00  0.00    -0.298 NA
ATOM      5  C   UNL     1      -4.288   2.423  -2.809  0.00  0.00    +0.085 C 
ATOM      6  C   UNL     1      -2.570   1.756  -4.393  0.00  0.00    +0.105 C 
ENDROOT
BRANCH   3   7
ATOM      7  C   UNL     1      -2.621  -0.359  -1.631  0.00  0.00    -0.012 A 
ATOM      8  C   UNL     1      -1.516  -1.151  -1.382  0.00  0.00    +0.115 A 
ATOM      9  N   UNL     1      -1.657  -2.405  -0.998  0.00  0.00    -0.263 NA
ATOM     10  C   UNL     1      -2.846  -2.951  -0.838  0.00  0.00    +0.111 A 
ATOM     11  C   UNL     1      -3.997  -2.221  -1.068  0.00  0.00    +0.020 A 
ATOM     12  C   UNL     1      -3.889  -0.898  -1.468  0.00  0.00    +0.008 A 
ENDBRANCH   3   7
TORSDOF 1
ENDMDL
MODEL 3
REMARK VINA RESULT:    -3.937      2.652      4.722
REMARK INTER + INTRA:          -4.413
REMARK INTER:                  -4.157
REMARK INTRA:                  -0.256
REMARK UNBOUND:                -0.245
REMARK  Name = Nicotine.pdb
REMARK  2 active torsions:
REMARK  status: ('A' for Active; 'I' for Inactive)
REMARK    1  A    between atoms: C_3  and  C_6
REMARK    2  A    between atoms: N_4  and  C_12
REMARK                            x       y       z     vdW  Elec       q    Type
REMARK                         _______ _______ _______ _____ _____    ______ ____
ROOT
ATOM      1  C   UNL     1      -2.637   0.752  -1.287  0.00  0.00    +0.017 C 
ATOM      2  C   UNL     1      -2.599   1.177  -2.779  0.00  0.00    +0.025 C 
ATOM      3  C   UNL     1      -2.917  -0.137  -3.522  0.00  0.00    +0.088 C 
ATOM      4  N   UNL     1      -2.581  -1.247  -2.612  0.00  0.00    -0.298 NA
ATOM      5  C   UNL     1      -2.048  -0.679  -1.355  0.00  0.00    +0.085 C 
ATOM      6  C   UNL     1      -3.754  -2.091  -2.354  0.00  0.00    +0.105 C 
ENDROOT
BRANCH   3   7
ATOM      7  C   UNL     1      -2.086  -0.231  -4.776  0.00  0.00    -0.012 A 
ATOM      8  C   UNL     1      -2.455  -1.085  -5.797  0.00  0.00    +0.115 A 
ATOM      9  N   UNL     1      -1.733  -1.173  -6.898  0.00  0.00    -0.263 NA
ATOM     10  C   UNL     1      -0.639  -0.457  -7.068  0.00  0.00    +0.111 A 
ATOM     11  C   UNL     1      -0.207   0.419  -6.089  0.00  0.00    +0.020 A 
ATOM     12  C   UNL     1      -0.944   0.542  -4.921  0.00  0.00    +0.008 A 
ENDBRANCH   3   7
TORSDOF 1
ENDMDL
MODEL 4
REMARK VINA RESULT:    -3.901      1.409      4.403
REMARK INTER + INTRA:          -4.374
REMARK INTER:                  -4.159
REMARK INTRA:                  -0.216
REMARK UNBOUND:                -0.245
REMARK  Name = Nicotine.pdb
REMARK  2 active torsions:
REMARK  status: ('A' for Active; 'I' for Inactive)
REMARK    1  A    between atoms: C_3  and  C_6
REMARK    2  A    between atoms: N_4  and  C_12
REMARK                            x       y       z     vdW  Elec       q    Type
REMARK                         _______ _______ _______ _____ _____    ______ ____
ROOT
ATOM      1  C   UNL     1      -5.171  -4.684  -1.689  0.00  0.00    +0.017 C 
ATOM      2  C   UNL     1      -5.115  -3.141  -1.532  0.00  0.00    +0.025 C 
ATOM      3  C   UNL     1      -4.431  -2.684  -2.839  0.00  0.00    +0.088 C 
ATOM      4  N   UNL     1      -3.676  -3.837  -3.363  0.00  0.00    -0.298 NA
ATOM      5  C   UNL     1      -3.841  -4.971  -2.429  0.00  0.00    +0.085 C 
ATOM      6  C   UNL     1      -4.129  -4.194  -4.713  0.00  0.00    +0.105 C 
ENDROOT
BRANCH   3   7
ATOM      7  C   UNL     1      -3.492  -1.541  -2.553  0.00  0.00    -0.012 A 
ATOM      8  C   UNL     1      -3.026  -1.323  -1.271  0.00  0.00    +0.115 A 
ATOM      9  N   UNL     1      -2.203  -0.325  -1.012  0.00  0.00    -0.263 NA
ATOM     10  C   UNL     1      -1.796   0.500  -1.957  0.00  0.00    +0.111 A 
ATOM     11  C   UNL     1      -2.220   0.344  -3.263  0.00  0.00    +0.020 A 
ATOM     12  C   UNL     1      -3.081  -0.698  -3.574  0.00  0.00    +0.008 A 
ENDBRANCH   3   7
TORSDOF 1
ENDMDL
MODEL 5
REMARK VINA RESULT:    -3.841      1.351      2.195
REMARK INTER + INTRA:          -4.311
REMARK INTER:                  -4.099
REMARK INTRA:                  -0.212
REMARK UNBOUND:                -0.245
REMARK  Name = Nicotine.pdb
REMARK  2 active torsions:
REMARK  status: ('A' for Active; 'I' for Inactive)
REMARK    1  A    between atoms: C_3  and  C_6
REMARK    2  A    between atoms: N_4  and  C_12
REMARK                            x       y       z     vdW  Elec       q    Type
REMARK                         _______ _______ _______ _____ _____    ______ ____
ROOT
ATOM      1  C   UNL     1      -1.967   0.469  -4.181  0.00  0.00    +0.017 C 
ATOM      2  C   UNL     1      -3.058  -0.631  -4.259  0.00  0.00    +0.025 C 
ATOM      3  C   UNL     1      -3.603  -0.681  -2.816  0.00  0.00    +0.088 C 
ATOM      4  N   UNL     1      -2.560  -0.127  -1.935  0.00  0.00    -0.298 NA
ATOM      5  C   UNL     1      -1.390   0.239  -2.762  0.00  0.00    +0.085 C 
ATOM      6  C   UNL     1      -3.062   1.035  -1.190  0.00  0.00    +0.105 C 
ENDROOT
BRANCH   3   7
ATOM      7  C   UNL     1      -3.898  -2.107  -2.429  0.00  0.00    -0.012 A 
ATOM      8  C   UNL     1      -4.760  -2.874  -3.190  0.00  0.00    +0.115 A 
ATOM      9  N   UNL     1      -5.024  -4.123  -2.858  0.00  0.00    -0.263 NA
ATOM     10  C   UNL     1      -4.482  -4.687  -1.797  0.00  0.00    +0.111 A 
ATOM     11  C   UNL     1      -3.610  -3.982  -0.988  0.00  0.00    +0.020 A 
ATOM     12  C   UNL     1      -3.305  -2.669  -1.308  0.00  0.00    +0.008 A 
ENDBRANCH   3   7
TORSDOF 1
ENDMDL
MODEL 6
REMARK VINA RESULT:    -3.782      1.815      4.395
REMARK INTER + INTRA:          -4.249
REMARK INTER:                  -4.035
REMARK INTRA:                  -0.214
REMARK UNBOUND:                -0.245
REMARK  Name = Nicotine.pdb
REMARK  2 active torsions:
REMARK  status: ('A' for Active; 'I' for Inactive)
REMARK    1  A    between atoms: C_3  and  C_6
REMARK    2  A    between atoms: N_4  and  C_12
REMARK                            x       y       z     vdW  Elec       q    Type
REMARK                         _______ _______ _______ _____ _____    ______ ____
ROOT
ATOM      1  C   UNL     1      -4.699  -2.344  -0.853  0.00  0.00    +0.017 C 
ATOM      2  C   UNL     1      -4.416  -1.094  -1.726  0.00  0.00    +0.025 C 
ATOM      3  C   UNL     1      -4.086  -1.701  -3.106  0.00  0.00    +0.088 C 
ATOM      4  N   UNL     1      -3.656  -3.093  -2.879  0.00  0.00    -0.298 NA
ATOM      5  C   UNL     1      -3.681  -3.362  -1.426  0.00  0.00    +0.085 C 
ATOM      6  C   UNL     1      -4.516  -4.035  -3.605  0.00  0.00    +0.105 C 
ENDROOT
BRANCH   3   7
ATOM      7  C   UNL     1      -2.975  -0.920  -3.758  0.00  0.00    -0.012 A 
ATOM      8  C   UNL     1      -2.022  -0.283  -2.985  0.00  0.00    +0.115 A 
ATOM      9  N   UNL     1      -1.046   0.404  -3.548  0.00  0.00    -0.263 NA
ATOM     10  C   UNL     1      -0.939   0.510  -4.857  0.00  0.00    +0.111 A 
ATOM     11  C   UNL     1      -1.855  -0.100  -5.694  0.00  0.00    +0.020 A 
ATOM     12  C   UNL     1      -2.891  -0.835  -5.139  0.00  0.00    +0.008 A 
ENDBRANCH   3   7
TORSDOF 1
ENDMDL
MODEL 7
REMARK VINA RESULT:    -3.719      2.033      5.096
REMARK INTER + INTRA:          -4.182
REMARK INTER:                  -3.977
REMARK INTRA:                  -0.205
REMARK UNBOUND:                -0.245
REMARK  Name = Nicotine.pdb
REMARK  2 active torsions:
REMARK  status: ('A' for Active; 'I' for Inactive)
REMARK    1  A    between atoms: C_3  and  C_6
REMARK    2  A    between atoms: N_4  and  C_12
REMARK                            x       y       z     vdW  Elec       q    Type
REMARK                         _______ _______ _______ _____ _____    ______ ____
ROOT
ATOM      1  C   UNL     1      -4.314  -2.862  -1.803  0.00  0.00    +0.017 C 
ATOM      2  C   UNL     1      -4.200  -1.660  -2.777  0.00  0.00    +0.025 C 
ATOM      3  C   UNL     1      -2.924  -0.940  -2.292  0.00  0.00    +0.088 C 
ATOM      4  N   UNL     1      -2.706  -1.335  -0.889  0.00  0.00    -0.298 NA
ATOM      5  C   UNL     1      -3.800  -2.242  -0.480  0.00  0.00    +0.085 C 
ATOM      6  C   UNL     1      -1.397  -1.978  -0.719  0.00  0.00    +0.105 C 
ENDROOT
BRANCH   3   7
ATOM      7  C   UNL     1      -3.111   0.552  -2.383  0.00  0.00    -0.012 A 
ATOM      8  C   UNL     1      -3.575   1.129  -3.550  0.00  0.00    +0.115 A 
ATOM      9  N   UNL     1      -3.742   2.434  -3.638  0.00  0.00    -0.263 NA
ATOM     10  C   UNL     1      -3.475   3.237  -2.626  0.00  0.00    +0.111 A 
ATOM     11  C   UNL     1      -3.007   2.732  -1.427  0.00  0.00    +0.020 A 
ATOM     12  C   UNL     1      -2.825   1.364  -1.296  0.00  0.00    +0.008 A 
ENDBRANCH   3   7
TORSDOF 1
ENDMDL
MODEL 8
REMARK VINA RESULT:    -3.696      2.867      4.733
REMARK INTER + INTRA:          -4.157
REMARK INTER:                  -3.916
REMARK INTRA:                  -0.241
REMARK UNBOUND:                -0.245
REMARK  Name = Nicotine.pdb
REMARK  2 active torsions:
REMARK  status: ('A' for Active; 'I' for Inactive)
REMARK    1  A    between atoms: C_3  and  C_6
REMARK    2  A    between atoms: N_4  and  C_12
REMARK                            x       y       z     vdW  Elec       q    Type
REMARK                         _______ _______ _______ _____ _____    ______ ____
ROOT
ATOM      1  C   UNL     1      -3.137   4.634  -1.650  0.00  0.00    +0.017 C 
ATOM      2  C   UNL     1      -3.312   3.292  -2.409  0.00  0.00    +0.025 C 
ATOM      3  C   UNL     1      -4.031   2.400  -1.375  0.00  0.00    +0.088 C 
ATOM      4  N   UNL     1      -3.752   2.963  -0.042  0.00  0.00    -0.298 NA
ATOM      5  C   UNL     1      -2.876   4.143  -0.204  0.00  0.00    +0.085 C 
ATOM      6  C   UNL     1      -4.996   3.321   0.650  0.00  0.00    +0.105 C 
ENDROOT
BRANCH   3   7
ATOM      7  C   UNL     1      -3.503   0.991  -1.459  0.00  0.00    -0.012 A 
ATOM      8  C   UNL     1      -4.373  -0.083  -1.463  0.00  0.00    +0.115 A 
ATOM      9  N   UNL     1      -3.919  -1.319  -1.536  0.00  0.00    -0.263 NA
ATOM     10  C   UNL     1      -2.629  -1.580  -1.607  0.00  0.00    +0.111 A 
ATOM     11  C   UNL     1      -1.699  -0.558  -1.609  0.00  0.00    +0.020 A 
ATOM     12  C   UNL     1      -2.139   0.755  -1.539  0.00  0.00    +0.008 A 
ENDBRANCH   3   7
TORSDOF 1
ENDMDL
MODEL 9
REMARK VINA RESULT:    -3.590      2.847      5.861
REMARK INTER + INTRA:          -4.045
REMARK INTER:                  -3.855
REMARK INTRA:                  -0.190
REMARK UNBOUND:                -0.245
REMARK  Name = Nicotine.pdb
REMARK  2 active torsions:
REMARK  status: ('A' for Active; 'I' for Inactive)
REMARK    1  A    between atoms: C_3  and  C_6
REMARK    2  A    between atoms: N_4  and  C_12
REMARK                            x       y       z     vdW  Elec       q    Type
REMARK                         _______ _______ _______ _____ _____    ______ ____
ROOT
ATOM      1  C   UNL     1      -3.219  -1.742  -1.473  0.00  0.00    +0.017 C 
ATOM      2  C   UNL     1      -4.206  -0.557  -1.305  0.00  0.00    +0.025 C 
ATOM      3  C   UNL     1      -3.418   0.636  -1.887  0.00  0.00    +0.088 C 
ATOM      4  N   UNL     1      -1.988   0.286  -1.827  0.00  0.00    -0.298 NA
ATOM      5  C   UNL     1      -1.856  -1.053  -1.214  0.00  0.00    +0.085 C 
ATOM      6  C   UNL     1      -1.382   0.315  -3.165  0.00  0.00    +0.105 C 
ENDROOT
BRANCH   3   7
ATOM      7  C   UNL     1      -3.679   1.873  -1.066  0.00  0.00    -0.012 A 
ATOM      8  C   UNL     1      -4.934   2.107  -0.536  0.00  0.00    +0.115 A 
ATOM      9  N   UNL     1      -5.171   3.187   0.184  0.00  0.00    -0.263 NA
ATOM     10  C   UNL     1      -4.231   4.079   0.425  0.00  0.00    +0.111 A 
ATOM     11  C   UNL     1      -2.952   3.912  -0.073  0.00  0.00    +0.020 A 
ATOM     12  C   UNL     1      -2.664   2.786  -0.829  0.00  0.00    +0.008 A 
ENDBRANCH   3   7
TORSDOF 1
ENDMDL
MODEL 10
REMARK VINA RESULT:    -3.500      2.438      3.938
REMARK INTER + INTRA:          -3.950
REMARK INTER:                  -3.740
REMARK INTRA:                  -0.209
REMARK UNBOUND:                -0.245
REMARK  Name = Nicotine.pdb
REMARK  2 active torsions:
REMARK  status: ('A' for Active; 'I' for Inactive)
REMARK    1  A    between atoms: C_3  and  C_6
REMARK    2  A    between atoms: N_4  and  C_12
REMARK                            x       y       z     vdW  Elec       q    Type
REMARK                         _______ _______ _______ _____ _____    ______ ____
ROOT
ATOM      1  C   UNL     1      -1.752  -0.256  -6.385  0.00  0.00    +0.017 C 
ATOM      2  C   UNL     1      -2.582  -1.103  -5.384  0.00  0.00    +0.025 C 
ATOM      3  C   UNL     1      -2.937  -0.086  -4.279  0.00  0.00    +0.088 C 
ATOM      4  N   UNL     1      -1.945   1.002  -4.352  0.00  0.00    -0.298 NA
ATOM      5  C   UNL     1      -0.983   0.691  -5.430  0.00  0.00    +0.085 C 
ATOM      6  C   UNL     1      -2.598   2.297  -4.585  0.00  0.00    +0.105 C 
ENDROOT
BRANCH   3   7
ATOM      7  C   UNL     1      -2.872  -0.752  -2.929  0.00  0.00    -0.012 A 
ATOM      8  C   UNL     1      -1.860  -0.436  -2.042  0.00  0.00    +0.115 A 
ATOM      9  N   UNL     1      -1.796  -1.014  -0.858  0.00  0.00    -0.263 NA
ATOM     10  C   UNL     1      -2.685  -1.909  -0.475  0.00  0.00    +0.111 A 
ATOM     11  C   UNL     1      -3.725  -2.275  -1.309  0.00  0.00    +0.020 A 
ATOM     12  C   UNL     1      -3.828  -1.685  -2.559  0.00  0.00    +0.008 A 
ENDBRANCH   3   7
TORSDOF 1
ENDMDL
