MODEL 1
REMARK VINA RESULT:    -5.088      0.000      0.000
REMARK INTER + INTRA:          -5.607
REMARK INTER:                  -5.385
REMARK INTRA:                  -0.222
REMARK UNBOUND:                -0.222
REMARK  Name = Nicotine.pdb
REMARK  2 active torsions:
REMARK  status: ('A' for Active; 'I' for Inactive)
REMARK    1  A    between atoms: C_3  and  C_6
REMARK    2  A    between atoms: N_4  and  C_12
REMARK                            x       y       z     vdW  Elec       q    Type
REMARK                         _______ _______ _______ _____ _____    ______ ____
ROOT
ATOM      1  C   UNL     1       5.734   5.956  -6.065  0.00  0.00    +0.017 C 
ATOM      2  C   UNL     1       5.631   4.537  -5.446  0.00  0.00    +0.025 C 
ATOM      3  C   UNL     1       4.152   4.455  -5.012  0.00  0.00    +0.088 C 
ATOM      4  N   UNL     1       3.664   5.838  -4.860  0.00  0.00    -0.298 NA
ATOM      5  C   UNL     1       4.777   6.765  -5.155  0.00  0.00    +0.085 C 
ATOM      6  C   UNL     1       2.518   6.092  -5.742  0.00  0.00    +0.105 C 
ENDROOT
BRANCH   3   7
ATOM      7  C   UNL     1       4.043   3.725  -3.699  0.00  0.00    -0.012 A 
ATOM      8  C   UNL     1       2.868   3.764  -2.972  0.00  0.00    +0.115 A 
ATOM      9  N   UNL     1       2.764   3.127  -1.822  0.00  0.00    -0.263 NA
ATOM     10  C   UNL     1       3.767   2.433  -1.321  0.00  0.00    +0.111 A 
ATOM     11  C   UNL     1       4.973   2.348  -1.992  0.00  0.00    +0.020 A 
ATOM     12  C   UNL     1       5.117   3.000  -3.206  0.00  0.00    +0.008 A 
ENDBRANCH   3   7
TORSDOF 1
ENDMDL
MODEL 2
REMARK VINA RESULT:    -4.078      1.184      2.155
REMARK INTER + INTRA:          -4.539
REMARK INTER:                  -4.352
REMARK INTRA:                  -0.186
REMARK UNBOUND:                -0.222
REMARK  Name = Nicotine.pdb
REMARK  2 active torsions:
REMARK  status: ('A' for Active; 'I' for Inactive)
REMARK    1  A    between atoms: C_3  and  C_6
REMARK    2  A    between atoms: N_4  and  C_12
REMARK                            x       y       z     vdW  Elec       q    Type
REMARK                         _______ _______ _______ _____ _____    ______ ____
ROOT
ATOM      1  C   UNL     1       2.349   4.851  -5.958  0.00  0.00    +0.017 C 
ATOM      2  C   UNL     1       2.311   4.661  -4.419  0.00  0.00    +0.025 C 
ATOM      3  C   UNL     1       3.802   4.512  -4.050  0.00  0.00    +0.088 C 
ATOM      4  N   UNL     1       4.512   4.077  -5.266  0.00  0.00    -0.298 NA
ATOM      5  C   UNL     1       3.526   3.926  -6.358  0.00  0.00    +0.085 C 
ATOM      6  C   UNL     1       5.563   5.033  -5.634  0.00  0.00    +0.105 C 
ENDROOT
BRANCH   3   7
ATOM      7  C   UNL     1       3.961   3.479  -2.964  0.00  0.00    -0.012 A 
ATOM      8  C   UNL     1       2.960   3.286  -2.031  0.00  0.00    +0.115 A 
ATOM      9  N   UNL     1       3.091   2.384  -1.078  0.00  0.00    -0.263 NA
ATOM     10  C   UNL     1       4.172   1.636  -0.976  0.00  0.00    +0.111 A 
ATOM     11  C   UNL     1       5.215   1.773  -1.873  0.00  0.00    +0.020 A 
ATOM     12  C   UNL     1       5.111   2.707  -2.892  0.00  0.00    +0.008 A 
ENDBRANCH   3   7
TORSDOF 1
ENDMDL
MODEL 3
REMARK VINA RESULT:    -3.142      1.024      4.497
REMARK INTER + INTRA:          -3.548
REMARK INTER:                  -3.333
REMARK INTRA:                  -0.215
REMARK UNBOUND:                -0.222
REMARK  Name = Nicotine.pdb
REMARK  2 active torsions:
REMARK  status: ('A' for Active; 'I' for Inactive)
REMARK    1  A    between atoms: C_3  and  C_6
REMARK    2  A    between atoms: N_4  and  C_12
REMARK                            x       y       z     vdW  Elec       q    Type
REMARK                         _______ _______ _______ _____ _____    ______ ____
ROOT
ATOM      1  C   UNL     1       1.995   2.898  -2.029  0.00  0.00    +0.017 C 
ATOM      2  C   UNL     1       2.147   3.564  -3.421  0.00  0.00    +0.025 C 
ATOM      3  C   UNL     1       3.652   3.399  -3.723  0.00  0.00    +0.088 C 
ATOM      4  N   UNL     1       4.338   3.213  -2.432  0.00  0.00    -0.298 NA
ATOM      5  C   UNL     1       3.333   3.282  -1.350  0.00  0.00    +0.085 C 
ATOM      6  C   UNL     1       5.062   1.936  -2.399  0.00  0.00    +0.105 C 
ENDROOT
BRANCH   3   7
ATOM      7  C   UNL     1       4.176   4.632  -4.411  0.00  0.00    -0.012 A 
ATOM      8  C   UNL     1       3.482   5.825  -4.332  0.00  0.00    +0.115 A 
ATOM      9  N   UNL     1       3.933   6.910  -4.931  0.00  0.00    -0.263 NA
ATOM     10  C   UNL     1       5.054   6.902  -5.625  0.00  0.00    +0.111 A 
ATOM     11  C   UNL     1       5.803   5.746  -5.748  0.00  0.00    +0.020 A 
ATOM     12  C   UNL     1       5.362   4.588  -5.127  0.00  0.00    +0.008 A 
ENDBRANCH   3   7
TORSDOF 1
ENDMDL
MODEL 4
REMARK VINA RESULT:    -2.542      2.279      4.078
REMARK INTER + INTRA:          -2.913
REMARK INTER:                  -2.723
REMARK INTRA:                  -0.190
REMARK UNBOUND:                -0.222
REMARK  Name = Nicotine.pdb
REMARK  2 active torsions:
REMARK  status: ('A' for Active; 'I' for Inactive)
REMARK    1  A    between atoms: C_3  and  C_6
REMARK    2  A    between atoms: N_4  and  C_12
REMARK                            x       y       z     vdW  Elec       q    Type
REMARK                         _______ _______ _______ _____ _____    ______ ____
ROOT
ATOM      1  C   UNL     1       5.798   6.801  -4.855  0.00  0.00    +0.017 C 
ATOM      2  C   UNL     1       4.247   6.763  -4.834  0.00  0.00    +0.025 C 
ATOM      3  C   UNL     1       3.937   5.251  -4.834  0.00  0.00    +0.088 C 
ATOM      4  N   UNL     1       5.119   4.563  -5.385  0.00  0.00    -0.298 NA
ATOM      5  C   UNL     1       6.129   5.579  -5.747  0.00  0.00    +0.085 C 
ATOM      6  C   UNL     1       5.664   3.598  -4.421  0.00  0.00    +0.105 C 
ENDROOT
BRANCH   3   7
ATOM      7  C   UNL     1       2.733   4.974  -5.696  0.00  0.00    -0.012 A 
ATOM      8  C   UNL     1       1.939   6.013  -6.143  0.00  0.00    +0.115 A 
ATOM      9  N   UNL     1       0.883   5.779  -6.898  0.00  0.00    -0.263 NA
ATOM     10  C   UNL     1       0.544   4.557  -7.255  0.00  0.00    +0.111 A 
ATOM     11  C   UNL     1       1.290   3.467  -6.847  0.00  0.00    +0.020 A 
ATOM     12  C   UNL     1       2.410   3.674  -6.057  0.00  0.00    +0.008 A 
ENDBRANCH   3   7
TORSDOF 1
ENDMDL
MODEL 5
REMARK VINA RESULT:    -2.253      1.276      4.421
REMARK INTER + INTRA:          -2.607
REMARK INTER:                  -2.386
REMARK INTRA:                  -0.221
REMARK UNBOUND:                -0.222
REMARK  Name = Nicotine.pdb
REMARK  2 active torsions:
REMARK  status: ('A' for Active; 'I' for Inactive)
REMARK    1  A    between atoms: C_3  and  C_6
REMARK    2  A    between atoms: N_4  and  C_12
REMARK                            x       y       z     vdW  Elec       q    Type
REMARK                         _______ _______ _______ _____ _____    ______ ____
ROOT
ATOM      1  C   UNL     1       5.092   1.400  -1.598  0.00  0.00    +0.017 C 
ATOM      2  C   UNL     1       5.338   2.554  -2.605  0.00  0.00    +0.025 C 
ATOM      3  C   UNL     1       4.150   3.503  -2.342  0.00  0.00    +0.088 C 
ATOM      4  N   UNL     1       3.082   2.704  -1.715  0.00  0.00    -0.298 NA
ATOM      5  C   UNL     1       3.546   1.304  -1.603  0.00  0.00    +0.085 C 
ATOM      6  C   UNL     1       2.721   3.246  -0.399  0.00  0.00    +0.105 C 
ENDROOT
BRANCH   3   7
ATOM      7  C   UNL     1       3.660   4.085  -3.643  0.00  0.00    -0.012 A 
ATOM      8  C   UNL     1       2.312   4.083  -3.946  0.00  0.00    +0.115 A 
ATOM      9  N   UNL     1       1.875   4.590  -5.082  0.00  0.00    -0.263 NA
ATOM     10  C   UNL     1       2.698   5.115  -5.969  0.00  0.00    +0.111 A 
ATOM     11  C   UNL     1       4.060   5.152  -5.735  0.00  0.00    +0.020 A 
ATOM     12  C   UNL     1       4.556   4.633  -4.548  0.00  0.00    +0.008 A 
ENDBRANCH   3   7
TORSDOF 1
ENDMDL
MODEL 6
REMARK VINA RESULT:    -2.165      2.008      4.135
REMARK INTER + INTRA:          -2.514
REMARK INTER:                  -2.297
REMARK INTRA:                  -0.217
REMARK UNBOUND:                -0.222
REMARK  Name = Nicotine.pdb
REMARK  2 active torsions:
REMARK  status: ('A' for Active; 'I' for Inactive)
REMARK    1  A    between atoms: C_3  and  C_6
REMARK    2  A    between atoms: N_4  and  C_12
REMARK                            x       y       z     vdW  Elec       q    Type
REMARK                         _______ _______ _______ _____ _____    ______ ____
ROOT
ATOM      1  C   UNL     1       6.071   3.022  -2.686  0.00  0.00    +0.017 C 
ATOM      2  C   UNL     1       5.378   3.840  -3.808  0.00  0.00    +0.025 C 
ATOM      3  C   UNL     1       3.896   3.833  -3.378  0.00  0.00    +0.088 C 
ATOM      4  N   UNL     1       3.706   2.677  -2.483  0.00  0.00    -0.298 NA
ATOM      5  C   UNL     1       4.992   1.959  -2.363  0.00  0.00    +0.085 C 
ATOM      6  C   UNL     1       3.215   3.105  -1.167  0.00  0.00    +0.105 C 
ENDROOT
BRANCH   3   7
ATOM      7  C   UNL     1       3.011   3.696  -4.590  0.00  0.00    -0.012 A 
ATOM      8  C   UNL     1       1.719   3.221  -4.462  0.00  0.00    +0.115 A 
ATOM      9  N   UNL     1       0.938   3.099  -5.518  0.00  0.00    -0.263 NA
ATOM     10  C   UNL     1       1.352   3.420  -6.727  0.00  0.00    +0.111 A 
ATOM     11  C   UNL     1       2.631   3.903  -6.932  0.00  0.00    +0.020 A 
ATOM     12  C   UNL     1       3.480   4.051  -5.846  0.00  0.00    +0.008 A 
ENDBRANCH   3   7
TORSDOF 1
ENDMDL
