MODEL 1
REMARK VINA RESULT:    -2.961      0.000      0.000
REMARK INTER + INTRA:          -3.350
REMARK INTER:                  -3.134
REMARK INTRA:                  -0.215
REMARK UNBOUND:                -0.215
REMARK  Name = Nicotine.pdb
REMARK  2 active torsions:
REMARK  status: ('A' for Active; 'I' for Inactive)
REMARK    1  A    between atoms: C_3  and  C_6
REMARK    2  A    between atoms: N_4  and  C_12
REMARK                            x       y       z     vdW  Elec       q    Type
REMARK                         _______ _______ _______ _____ _____    ______ ____
ROOT
ATOM      1  C   UNL     1      -1.624  -0.227   4.301  0.00  0.00    +0.017 C 
ATOM      2  C   UNL     1      -0.677  -1.035   3.375  0.00  0.00    +0.025 C 
ATOM      3  C   UNL     1      -1.565  -1.337   2.149  0.00  0.00    +0.088 C 
ATOM      4  N   UNL     1      -2.968  -1.238   2.591  0.00  0.00    -0.298 NA
ATOM      5  C   UNL     1      -2.986  -0.915   4.033  0.00  0.00    +0.085 C 
ATOM      6  C   UNL     1      -3.695  -0.225   1.815  0.00  0.00    +0.105 C 
ENDROOT
BRANCH   3   7
ATOM      7  C   UNL     1      -1.283  -2.727   1.642  0.00  0.00    -0.012 A 
ATOM      8  C   UNL     1      -2.301  -3.499   1.113  0.00  0.00    +0.115 A 
ATOM      9  N   UNL     1      -2.062  -4.716   0.667  0.00  0.00    -0.263 NA
ATOM     10  C   UNL     1      -0.855  -5.244   0.706  0.00  0.00    +0.111 A 
ATOM     11  C   UNL     1       0.213  -4.532   1.219  0.00  0.00    +0.020 A 
ATOM     12  C   UNL     1       0.002  -3.247   1.693  0.00  0.00    +0.008 A 
ENDBRANCH   3   7
TORSDOF 1
ENDMDL
MODEL 2
REMARK VINA RESULT:    -2.907      1.630      4.611
REMARK INTER + INTRA:          -3.292
REMARK INTER:                  -3.096
REMARK INTRA:                  -0.196
REMARK UNBOUND:                -0.215
REMARK  Name = Nicotine.pdb
REMARK  2 active torsions:
REMARK  status: ('A' for Active; 'I' for Inactive)
REMARK    1  A    between atoms: C_3  and  C_6
REMARK    2  A    between atoms: N_4  and  C_12
REMARK                            x       y       z     vdW  Elec       q    Type
REMARK                         _______ _______ _______ _____ _____    ______ ____
ROOT
ATOM      1  C   UNL     1      -1.287  -6.042  -0.740  0.00  0.00    +0.017 C 
ATOM      2  C   UNL     1      -0.703  -5.372   0.532  0.00  0.00    +0.025 C 
ATOM      3  C   UNL     1      -1.927  -4.649   1.136  0.00  0.00    +0.088 C 
ATOM      4  N   UNL     1      -2.896  -4.446   0.044  0.00  0.00    -0.298 NA
ATOM      5  C   UNL     1      -2.319  -4.985  -1.205  0.00  0.00    +0.085 C 
ATOM      6  C   UNL     1      -4.180  -5.090   0.353  0.00  0.00    +0.105 C 
ENDROOT
BRANCH   3   7
ATOM      7  C   UNL     1      -1.507  -3.319   1.705  0.00  0.00    -0.012 A 
ATOM      8  C   UNL     1      -0.172  -2.963   1.738  0.00  0.00    +0.115 A 
ATOM      9  N   UNL     1       0.204  -1.800   2.234  0.00  0.00    -0.263 NA
ATOM     10  C   UNL     1      -0.669  -0.937   2.715  0.00  0.00    +0.111 A 
ATOM     11  C   UNL     1      -2.021  -1.224   2.715  0.00  0.00    +0.020 A 
ATOM     12  C   UNL     1      -2.454  -2.434   2.196  0.00  0.00    +0.008 A 
ENDBRANCH   3   7
TORSDOF 1
ENDMDL
MODEL 3
REMARK VINA RESULT:    -2.900      0.904      1.410
REMARK INTER + INTRA:          -3.284
REMARK INTER:                  -3.098
REMARK INTRA:                  -0.187
REMARK UNBOUND:                -0.215
REMARK  Name = Nicotine.pdb
REMARK  2 active torsions:
REMARK  status: ('A' for Active; 'I' for Inactive)
REMARK    1  A    between atoms: C_3  and  C_6
REMARK    2  A    between atoms: N_4  and  C_12
REMARK                            x       y       z     vdW  Elec       q    Type
REMARK                         _______ _______ _______ _____ _____    ______ ____
ROOT
ATOM      1  C   UNL     1      -1.499  -0.005   4.188  0.00  0.00    +0.017 C 
ATOM      2  C   UNL     1      -0.538  -0.789   3.255  0.00  0.00    +0.025 C 
ATOM      3  C   UNL     1      -1.478  -1.309   2.147  0.00  0.00    +0.088 C 
ATOM      4  N   UNL     1      -2.843  -1.326   2.704  0.00  0.00    -0.298 NA
ATOM      5  C   UNL     1      -2.785  -0.866   4.108  0.00  0.00    +0.085 C 
ATOM      6  C   UNL     1      -3.746  -0.483   1.910  0.00  0.00    +0.105 C 
ENDROOT
BRANCH   3   7
ATOM      7  C   UNL     1      -1.071  -2.702   1.742  0.00  0.00    -0.012 A 
ATOM      8  C   UNL     1       0.257  -3.082   1.782  0.00  0.00    +0.115 A 
ATOM      9  N   UNL     1       0.622  -4.299   1.429  0.00  0.00    -0.263 NA
ATOM     10  C   UNL     1      -0.256  -5.196   1.027  0.00  0.00    +0.111 A 
ATOM     11  C   UNL     1      -1.602  -4.889   0.961  0.00  0.00    +0.020 A 
ATOM     12  C   UNL     1      -2.024  -3.621   1.329  0.00  0.00    +0.008 A 
ENDBRANCH   3   7
TORSDOF 1
ENDMDL
MODEL 4
REMARK VINA RESULT:    -2.819      1.454      2.491
REMARK INTER + INTRA:          -3.199
REMARK INTER:                  -2.980
REMARK INTRA:                  -0.218
REMARK UNBOUND:                -0.215
REMARK  Name = Nicotine.pdb
REMARK  2 active torsions:
REMARK  status: ('A' for Active; 'I' for Inactive)
REMARK    1  A    between atoms: C_3  and  C_6
REMARK    2  A    between atoms: N_4  and  C_12
REMARK                            x       y       z     vdW  Elec       q    Type
REMARK                         _______ _______ _______ _____ _____    ______ ____
ROOT
ATOM      1  C   UNL     1      -3.642  -0.143   1.284  0.00  0.00    +0.017 C 
ATOM      2  C   UNL     1      -3.402  -1.640   1.615  0.00  0.00    +0.025 C 
ATOM      3  C   UNL     1      -1.994  -1.633   2.248  0.00  0.00    +0.088 C 
ATOM      4  N   UNL     1      -1.312  -0.413   1.783  0.00  0.00    -0.298 NA
ATOM      5  C   UNL     1      -2.221   0.319   0.875  0.00  0.00    +0.085 C 
ATOM      6  C   UNL     1      -0.908   0.430   2.916  0.00  0.00    +0.105 C 
ENDROOT
BRANCH   3   7
ATOM      7  C   UNL     1      -1.228  -2.852   1.804  0.00  0.00    -0.012 A 
ATOM      8  C   UNL     1       0.151  -2.880   1.889  0.00  0.00    +0.115 A 
ATOM      9  N   UNL     1       0.830  -3.942   1.503  0.00  0.00    -0.263 NA
ATOM     10  C   UNL     1       0.228  -5.013   1.024  0.00  0.00    +0.111 A 
ATOM     11  C   UNL     1      -1.149  -5.059   0.910  0.00  0.00    +0.020 A 
ATOM     12  C   UNL     1      -1.896  -3.962   1.311  0.00  0.00    +0.008 A 
ENDBRANCH   3   7
TORSDOF 1
ENDMDL
MODEL 5
REMARK VINA RESULT:    -2.747      1.075      1.938
REMARK INTER + INTRA:          -3.123
REMARK INTER:                  -2.929
REMARK INTRA:                  -0.194
REMARK UNBOUND:                -0.215
REMARK  Name = Nicotine.pdb
REMARK  2 active torsions:
REMARK  status: ('A' for Active; 'I' for Inactive)
REMARK    1  A    between atoms: C_3  and  C_6
REMARK    2  A    between atoms: N_4  and  C_12
REMARK                            x       y       z     vdW  Elec       q    Type
REMARK                         _______ _______ _______ _____ _____    ______ ____
ROOT
ATOM      1  C   UNL     1      -3.274   0.072   2.073  0.00  0.00    +0.017 C 
ATOM      2  C   UNL     1      -3.285  -1.479   2.112  0.00  0.00    +0.025 C 
ATOM      3  C   UNL     1      -1.827  -1.828   2.476  0.00  0.00    +0.088 C 
ATOM      4  N   UNL     1      -0.994  -0.672   2.099  0.00  0.00    -0.298 NA
ATOM      5  C   UNL     1      -1.865   0.360   1.497  0.00  0.00    +0.085 C 
ATOM      6  C   UNL     1      -0.272  -0.139   3.262  0.00  0.00    +0.105 C 
ENDROOT
BRANCH   3   7
ATOM      7  C   UNL     1      -1.386  -3.050   1.713  0.00  0.00    -0.012 A 
ATOM      8  C   UNL     1      -2.298  -3.779   0.974  0.00  0.00    +0.115 A 
ATOM      9  N   UNL     1      -1.920  -4.850   0.303  0.00  0.00    -0.263 NA
ATOM     10  C   UNL     1      -0.670  -5.267   0.310  0.00  0.00    +0.111 A 
ATOM     11  C   UNL     1       0.298  -4.588   1.026  0.00  0.00    +0.020 A 
ATOM     12  C   UNL     1      -0.060  -3.455   1.740  0.00  0.00    +0.008 A 
ENDBRANCH   3   7
TORSDOF 1
ENDMDL
MODEL 6
REMARK VINA RESULT:    -2.729      2.996      5.315
REMARK INTER + INTRA:          -3.104
REMARK INTER:                  -2.879
REMARK INTRA:                  -0.225
REMARK UNBOUND:                -0.215
REMARK  Name = Nicotine.pdb
REMARK  2 active torsions:
REMARK  status: ('A' for Active; 'I' for Inactive)
REMARK    1  A    between atoms: C_3  and  C_6
REMARK    2  A    between atoms: N_4  and  C_12
REMARK                            x       y       z     vdW  Elec       q    Type
REMARK                         _______ _______ _______ _____ _____    ______ ____
ROOT
ATOM      1  C   UNL     1      -1.752  -5.613  -3.617  0.00  0.00    +0.017 C 
ATOM      2  C   UNL     1      -1.741  -5.691  -2.067  0.00  0.00    +0.025 C 
ATOM      3  C   UNL     1      -2.137  -4.260  -1.645  0.00  0.00    +0.088 C 
ATOM      4  N   UNL     1      -1.821  -3.368  -2.775  0.00  0.00    -0.298 NA
ATOM      5  C   UNL     1      -1.227  -4.176  -3.861  0.00  0.00    +0.085 C 
ATOM      6  C   UNL     1      -3.021  -2.661  -3.239  0.00  0.00    +0.105 C 
ENDROOT
BRANCH   3   7
ATOM      7  C   UNL     1      -1.349  -3.848  -0.428  0.00  0.00    -0.012 A 
ATOM      8  C   UNL     1      -1.350  -2.532  -0.007  0.00  0.00    +0.115 A 
ATOM      9  N   UNL     1      -0.663  -2.163   1.056  0.00  0.00    -0.263 NA
ATOM     10  C   UNL     1       0.048  -3.026   1.756  0.00  0.00    +0.111 A 
ATOM     11  C   UNL     1       0.097  -4.360   1.395  0.00  0.00    +0.020 A 
ATOM     12  C   UNL     1      -0.617  -4.785   0.286  0.00  0.00    +0.008 A 
ENDBRANCH   3   7
TORSDOF 1
ENDMDL
MODEL 7
REMARK VINA RESULT:    -2.569      2.154      4.396
REMARK INTER + INTRA:          -2.934
REMARK INTER:                  -2.679
REMARK INTRA:                  -0.256
REMARK UNBOUND:                -0.215
REMARK  Name = Nicotine.pdb
REMARK  2 active torsions:
REMARK  status: ('A' for Active; 'I' for Inactive)
REMARK    1  A    between atoms: C_3  and  C_6
REMARK    2  A    between atoms: N_4  and  C_12
REMARK                            x       y       z     vdW  Elec       q    Type
REMARK                         _______ _______ _______ _____ _____    ______ ____
ROOT
ATOM      1  C   UNL     1       0.420  -4.589   1.263  0.00  0.00    +0.017 C 
ATOM      2  C   UNL     1      -0.303  -3.248   1.556  0.00  0.00    +0.025 C 
ATOM      3  C   UNL     1      -1.795  -3.638   1.493  0.00  0.00    +0.088 C 
ATOM      4  N   UNL     1      -1.891  -4.869   0.688  0.00  0.00    -0.298 NA
ATOM      5  C   UNL     1      -0.535  -5.241   0.233  0.00  0.00    +0.085 C 
ATOM      6  C   UNL     1      -2.505  -5.957   1.460  0.00  0.00    +0.105 C 
ENDROOT
BRANCH   3   7
ATOM      7  C   UNL     1      -2.586  -2.534   0.840  0.00  0.00    -0.012 A 
ATOM      8  C   UNL     1      -3.923  -2.357   1.144  0.00  0.00    +0.115 A 
ATOM      9  N   UNL     1      -4.622  -1.394   0.577  0.00  0.00    -0.263 NA
ATOM     10  C   UNL     1      -4.081  -0.566  -0.295  0.00  0.00    +0.111 A 
ATOM     11  C   UNL     1      -2.750  -0.681  -0.649  0.00  0.00    +0.020 A 
ATOM     12  C   UNL     1      -1.981  -1.679  -0.069  0.00  0.00    +0.008 A 
ENDBRANCH   3   7
TORSDOF 1
ENDMDL
MODEL 8
REMARK VINA RESULT:    -2.545      3.007      4.542
REMARK INTER + INTRA:          -2.909
REMARK INTER:                  -2.679
REMARK INTRA:                  -0.230
REMARK UNBOUND:                -0.215
REMARK  Name = Nicotine.pdb
REMARK  2 active torsions:
REMARK  status: ('A' for Active; 'I' for Inactive)
REMARK    1  A    between atoms: C_3  and  C_6
REMARK    2  A    between atoms: N_4  and  C_12
REMARK                            x       y       z     vdW  Elec       q    Type
REMARK                         _______ _______ _______ _____ _____    ______ ____
ROOT
ATOM      1  C   UNL     1      -0.893  -2.772   1.419  0.00  0.00    +0.017 C 
ATOM      2  C   UNL     1      -1.399  -2.667  -0.044  0.00  0.00    +0.025 C 
ATOM      3  C   UNL     1      -1.865  -4.106  -0.353  0.00  0.00    +0.088 C 
ATOM      4  N   UNL     1      -1.163  -5.003   0.582  0.00  0.00    -0.298 NA
ATOM      5  C   UNL     1      -0.270  -4.190   1.434  0.00  0.00    +0.085 C 
ATOM      6  C   UNL     1      -2.118  -5.766   1.396  0.00  0.00    +0.105 C 
ENDROOT
BRANCH   3   7
ATOM      7  C   UNL     1      -1.511  -4.465  -1.773  0.00  0.00    -0.012 A 
ATOM      8  C   UNL     1      -1.701  -5.753  -2.237  0.00  0.00    +0.115 A 
ATOM      9  N   UNL     1      -1.394  -6.075  -3.478  0.00  0.00    -0.263 NA
ATOM     10  C   UNL     1      -0.898  -5.192  -4.321  0.00  0.00    +0.111 A 
ATOM     11  C   UNL     1      -0.680  -3.884  -3.929  0.00  0.00    +0.020 A 
ATOM     12  C   UNL     1      -0.996  -3.507  -2.633  0.00  0.00    +0.008 A 
ENDBRANCH   3   7
TORSDOF 1
ENDMDL
MODEL 9
REMARK VINA RESULT:    -2.350      9.140     10.107
REMARK INTER + INTRA:          -2.703
REMARK INTER:                  -2.447
REMARK INTRA:                  -0.256
REMARK UNBOUND:                -0.215
REMARK  Name = Nicotine.pdb
REMARK  2 active torsions:
REMARK  status: ('A' for Active; 'I' for Inactive)
REMARK    1  A    between atoms: C_3  and  C_6
REMARK    2  A    between atoms: N_4  and  C_12
REMARK                            x       y       z     vdW  Elec       q    Type
REMARK                         _______ _______ _______ _____ _____    ______ ____
ROOT
ATOM      1  C   UNL     1       6.604   2.024  -1.736  0.00  0.00    +0.017 C 
ATOM      2  C   UNL     1       7.321   0.650  -1.668  0.00  0.00    +0.025 C 
ATOM      3  C   UNL     1       6.812   0.058  -0.337  0.00  0.00    +0.088 C 
ATOM      4  N   UNL     1       6.360   1.186   0.498  0.00  0.00    -0.298 NA
ATOM      5  C   UNL     1       6.590   2.443  -0.244  0.00  0.00    +0.085 C 
ATOM      6  C   UNL     1       4.945   1.038   0.862  0.00  0.00    +0.105 C 
ENDROOT
BRANCH   3   7
ATOM      7  C   UNL     1       7.929  -0.679   0.356  0.00  0.00    -0.012 A 
ATOM      8  C   UNL     1       7.652  -1.569   1.376  0.00  0.00    +0.115 A 
ATOM      9  N   UNL     1       8.623  -2.219   1.987  0.00  0.00    -0.263 NA
ATOM     10  C   UNL     1       9.887  -2.049   1.655  0.00  0.00    +0.111 A 
ATOM     11  C   UNL     1      10.241  -1.175   0.643  0.00  0.00    +0.020 A 
ATOM     12  C   UNL     1       9.247  -0.478  -0.025  0.00  0.00    +0.008 A 
ENDBRANCH   3   7
TORSDOF 1
ENDMDL
MODEL 10
REMARK VINA RESULT:    -2.224      2.525      4.109
REMARK INTER + INTRA:          -2.569
REMARK INTER:                  -2.314
REMARK INTRA:                  -0.255
REMARK UNBOUND:                -0.215
REMARK  Name = Nicotine.pdb
REMARK  2 active torsions:
REMARK  status: ('A' for Active; 'I' for Inactive)
REMARK    1  A    between atoms: C_3  and  C_6
REMARK    2  A    between atoms: N_4  and  C_12
REMARK                            x       y       z     vdW  Elec       q    Type
REMARK                         _______ _______ _______ _____ _____    ______ ____
ROOT
ATOM      1  C   UNL     1      -5.081  -2.874  -0.826  0.00  0.00    +0.017 C 
ATOM      2  C   UNL     1      -3.551  -2.682  -0.997  0.00  0.00    +0.025 C 
ATOM      3  C   UNL     1      -2.980  -4.053  -0.575  0.00  0.00    +0.088 C 
ATOM      4  N   UNL     1      -3.991  -4.703   0.278  0.00  0.00    -0.298 NA
ATOM      5  C   UNL     1      -5.144  -3.790   0.422  0.00  0.00    +0.085 C 
ATOM      6  C   UNL     1      -4.407  -5.993  -0.288  0.00  0.00    +0.105 C 
ENDROOT
BRANCH   3   7
ATOM      7  C   UNL     1      -1.702  -3.859   0.198  0.00  0.00    -0.012 A 
ATOM      8  C   UNL     1      -0.724  -4.837   0.189  0.00  0.00    +0.115 A 
ATOM      9  N   UNL     1       0.398  -4.675   0.863  0.00  0.00    -0.263 NA
ATOM     10  C   UNL     1       0.632  -3.586   1.568  0.00  0.00    +0.111 A 
ATOM     11  C   UNL     1      -0.299  -2.566   1.624  0.00  0.00    +0.020 A 
ATOM     12  C   UNL     1      -1.488  -2.697   0.924  0.00  0.00    +0.008 A 
ENDBRANCH   3   7
TORSDOF 1
ENDMDL
