MODEL 1
REMARK VINA RESULT:    -3.501      0.000      0.000
REMARK INTER + INTRA:          -3.917
REMARK INTER:                  -3.705
REMARK INTRA:                  -0.212
REMARK UNBOUND:                -0.212
REMARK  Name = Nicotine.pdb
REMARK  2 active torsions:
REMARK  status: ('A' for Active; 'I' for Inactive)
REMARK    1  A    between atoms: C_3  and  C_6
REMARK    2  A    between atoms: N_4  and  C_12
REMARK                            x       y       z     vdW  Elec       q    Type
REMARK                         _______ _______ _______ _____ _____    ______ ____
ROOT
ATOM      1  C   UNL     1      -1.353   2.105  -1.545  0.00  0.00    +0.017 C 
ATOM      2  C   UNL     1      -0.450   1.064  -2.257  0.00  0.00    +0.025 C 
ATOM      3  C   UNL     1      -1.462   0.012  -2.758  0.00  0.00    +0.088 C 
ATOM      4  N   UNL     1      -2.673   0.139  -1.926  0.00  0.00    -0.298 NA
ATOM      5  C   UNL     1      -2.445   1.199  -0.922  0.00  0.00    +0.085 C 
ATOM      6  C   UNL     1      -3.850   0.438  -2.751  0.00  0.00    +0.105 C 
ENDROOT
BRANCH   3   7
ATOM      7  C   UNL     1      -0.881  -1.370  -2.611  0.00  0.00    -0.012 A 
ATOM      8  C   UNL     1      -0.066  -1.676  -1.537  0.00  0.00    +0.115 A 
ATOM      9  N   UNL     1       0.447  -2.883  -1.401  0.00  0.00    -0.263 NA
ATOM     10  C   UNL     1       0.208  -3.840  -2.276  0.00  0.00    +0.111 A 
ATOM     11  C   UNL     1      -0.598  -3.609  -3.375  0.00  0.00    +0.020 A 
ATOM     12  C   UNL     1      -1.159  -2.354  -3.548  0.00  0.00    +0.008 A 
ENDBRANCH   3   7
TORSDOF 1
ENDMDL
MODEL 2
REMARK VINA RESULT:    -3.411      2.026      3.468
REMARK INTER + INTRA:          -3.823
REMARK INTER:                  -3.627
REMARK INTRA:                  -0.196
REMARK UNBOUND:                -0.212
REMARK  Name = Nicotine.pdb
REMARK  2 active torsions:
REMARK  status: ('A' for Active; 'I' for Inactive)
REMARK    1  A    between atoms: C_3  and  C_6
REMARK    2  A    between atoms: N_4  and  C_12
REMARK                            x       y       z     vdW  Elec       q    Type
REMARK                         _______ _______ _______ _____ _____    ______ ____
ROOT
ATOM      1  C   UNL     1      -1.310   2.038  -1.620  0.00  0.00    +0.017 C 
ATOM      2  C   UNL     1      -2.516   1.426  -2.379  0.00  0.00    +0.025 C 
ATOM      3  C   UNL     1      -2.195  -0.084  -2.382  0.00  0.00    +0.088 C 
ATOM      4  N   UNL     1      -0.740  -0.221  -2.189  0.00  0.00    -0.298 NA
ATOM      5  C   UNL     1      -0.148   1.130  -2.095  0.00  0.00    +0.085 C 
ATOM      6  C   UNL     1      -0.439  -1.014  -0.990  0.00  0.00    +0.105 C 
ENDROOT
BRANCH   3   7
ATOM      7  C   UNL     1      -2.599  -0.692  -3.700  0.00  0.00    -0.012 A 
ATOM      8  C   UNL     1      -3.274   0.063  -4.640  0.00  0.00    +0.115 A 
ATOM      9  N   UNL     1      -3.632  -0.462  -5.796  0.00  0.00    -0.263 NA
ATOM     10  C   UNL     1      -3.362  -1.716  -6.101  0.00  0.00    +0.111 A 
ATOM     11  C   UNL     1      -2.689  -2.532  -5.210  0.00  0.00    +0.020 A 
ATOM     12  C   UNL     1      -2.293  -2.013  -3.987  0.00  0.00    +0.008 A 
ENDBRANCH   3   7
TORSDOF 1
ENDMDL
MODEL 3
REMARK VINA RESULT:    -3.404      1.349      2.037
REMARK INTER + INTRA:          -3.815
REMARK INTER:                  -3.598
REMARK INTRA:                  -0.218
REMARK UNBOUND:                -0.212
REMARK  Name = Nicotine.pdb
REMARK  2 active torsions:
REMARK  status: ('A' for Active; 'I' for Inactive)
REMARK    1  A    between atoms: C_3  and  C_6
REMARK    2  A    between atoms: N_4  and  C_12
REMARK                            x       y       z     vdW  Elec       q    Type
REMARK                         _______ _______ _______ _____ _____    ______ ____
ROOT
ATOM      1  C   UNL     1      -2.529   1.400  -0.848  0.00  0.00    +0.017 C 
ATOM      2  C   UNL     1      -2.313  -0.134  -0.764  0.00  0.00    +0.025 C 
ATOM      3  C   UNL     1      -0.900  -0.319  -1.357  0.00  0.00    +0.088 C 
ATOM      4  N   UNL     1      -0.622   0.859  -2.199  0.00  0.00    -0.298 NA
ATOM      5  C   UNL     1      -1.805   1.746  -2.173  0.00  0.00    +0.085 C 
ATOM      6  C   UNL     1       0.578   1.567  -1.735  0.00  0.00    +0.105 C 
ENDROOT
BRANCH   3   7
ATOM      7  C   UNL     1      -0.854  -1.571  -2.193  0.00  0.00    -0.012 A 
ATOM      8  C   UNL     1       0.037  -2.582  -1.890  0.00  0.00    +0.115 A 
ATOM      9  N   UNL     1       0.083  -3.682  -2.616  0.00  0.00    -0.263 NA
ATOM     10  C   UNL     1      -0.711  -3.861  -3.653  0.00  0.00    +0.111 A 
ATOM     11  C   UNL     1      -1.629  -2.893  -4.017  0.00  0.00    +0.020 A 
ATOM     12  C   UNL     1      -1.710  -1.726  -3.273  0.00  0.00    +0.008 A 
ENDBRANCH   3   7
TORSDOF 1
ENDMDL
MODEL 4
REMARK VINA RESULT:    -3.345      1.101      1.533
REMARK INTER + INTRA:          -3.753
REMARK INTER:                  -3.498
REMARK INTRA:                  -0.255
REMARK UNBOUND:                -0.212
REMARK  Name = Nicotine.pdb
REMARK  2 active torsions:
REMARK  status: ('A' for Active; 'I' for Inactive)
REMARK    1  A    between atoms: C_3  and  C_6
REMARK    2  A    between atoms: N_4  and  C_12
REMARK                            x       y       z     vdW  Elec       q    Type
REMARK                         _______ _______ _______ _____ _____    ______ ____
ROOT
ATOM      1  C   UNL     1      -1.385   1.813  -1.625  0.00  0.00    +0.017 C 
ATOM      2  C   UNL     1      -0.653   0.806  -2.552  0.00  0.00    +0.025 C 
ATOM      3  C   UNL     1      -1.794  -0.117  -3.030  0.00  0.00    +0.088 C 
ATOM      4  N   UNL     1      -2.884  -0.012  -2.044  0.00  0.00    -0.298 NA
ATOM      5  C   UNL     1      -2.460   0.910  -0.970  0.00  0.00    +0.085 C 
ATOM      6  C   UNL     1      -4.125   0.451  -2.678  0.00  0.00    +0.105 C 
ENDROOT
BRANCH   3   7
ATOM      7  C   UNL     1      -1.303  -1.540  -3.106  0.00  0.00    -0.012 A 
ATOM      8  C   UNL     1      -1.858  -2.423  -4.013  0.00  0.00    +0.115 A 
ATOM      9  N   UNL     1      -1.434  -3.670  -4.086  0.00  0.00    -0.263 NA
ATOM     10  C   UNL     1      -0.475  -4.123  -3.303  0.00  0.00    +0.111 A 
ATOM     11  C   UNL     1       0.127  -3.297  -2.372  0.00  0.00    +0.020 A 
ATOM     12  C   UNL     1      -0.288  -1.979  -2.270  0.00  0.00    +0.008 A 
ENDBRANCH   3   7
TORSDOF 1
ENDMDL
MODEL 5
REMARK VINA RESULT:    -3.299      7.710      9.426
REMARK INTER + INTRA:          -3.704
REMARK INTER:                  -3.491
REMARK INTRA:                  -0.213
REMARK UNBOUND:                -0.212
REMARK  Name = Nicotine.pdb
REMARK  2 active torsions:
REMARK  status: ('A' for Active; 'I' for Inactive)
REMARK    1  A    between atoms: C_3  and  C_6
REMARK    2  A    between atoms: N_4  and  C_12
REMARK                            x       y       z     vdW  Elec       q    Type
REMARK                         _______ _______ _______ _____ _____    ______ ____
ROOT
ATOM      1  C   UNL     1       5.512  -0.404  -1.108  0.00  0.00    +0.017 C 
ATOM      2  C   UNL     1       6.083   0.204   0.200  0.00  0.00    +0.025 C 
ATOM      3  C   UNL     1       7.010  -0.912   0.726  0.00  0.00    +0.088 C 
ATOM      4  N   UNL     1       6.555  -2.178   0.123  0.00  0.00    -0.298 NA
ATOM      5  C   UNL     1       5.377  -1.899  -0.726  0.00  0.00    +0.085 C 
ATOM      6  C   UNL     1       7.629  -2.808  -0.655  0.00  0.00    +0.105 C 
ENDROOT
BRANCH   3   7
ATOM      7  C   UNL     1       6.914  -0.994   2.227  0.00  0.00    -0.012 A 
ATOM      8  C   UNL     1       5.725  -0.704   2.869  0.00  0.00    +0.115 A 
ATOM      9  N   UNL     1       5.633  -0.773   4.183  0.00  0.00    -0.263 NA
ATOM     10  C   UNL     1       6.661  -1.118   4.932  0.00  0.00    +0.111 A 
ATOM     11  C   UNL     1       7.882  -1.423   4.361  0.00  0.00    +0.020 A 
ATOM     12  C   UNL     1       8.016  -1.367   2.983  0.00  0.00    +0.008 A 
ENDBRANCH   3   7
TORSDOF 1
ENDMDL
MODEL 6
REMARK VINA RESULT:    -3.226      7.808      9.316
REMARK INTER + INTRA:          -3.627
REMARK INTER:                  -3.416
REMARK INTRA:                  -0.210
REMARK UNBOUND:                -0.212
REMARK  Name = Nicotine.pdb
REMARK  2 active torsions:
REMARK  status: ('A' for Active; 'I' for Inactive)
REMARK    1  A    between atoms: C_3  and  C_6
REMARK    2  A    between atoms: N_4  and  C_12
REMARK                            x       y       z     vdW  Elec       q    Type
REMARK                         _______ _______ _______ _____ _____    ______ ____
ROOT
ATOM      1  C   UNL     1       8.037  -1.896   4.205  0.00  0.00    +0.017 C 
ATOM      2  C   UNL     1       8.311  -1.205   2.843  0.00  0.00    +0.025 C 
ATOM      3  C   UNL     1       6.908  -0.734   2.404  0.00  0.00    +0.088 C 
ATOM      4  N   UNL     1       5.924  -1.568   3.117  0.00  0.00    -0.298 NA
ATOM      5  C   UNL     1       6.653  -2.545   3.953  0.00  0.00    +0.085 C 
ATOM      6  C   UNL     1       5.026  -0.742   3.934  0.00  0.00    +0.105 C 
ENDROOT
BRANCH   3   7
ATOM      7  C   UNL     1       6.751  -0.911   0.916  0.00  0.00    -0.012 A 
ATOM      8  C   UNL     1       7.297  -2.010   0.281  0.00  0.00    +0.115 A 
ATOM      9  N   UNL     1       7.163  -2.173  -1.021  0.00  0.00    -0.263 NA
ATOM     10  C   UNL     1       6.510  -1.302  -1.764  0.00  0.00    +0.111 A 
ATOM     11  C   UNL     1       5.936  -0.179  -1.199  0.00  0.00    +0.020 A 
ATOM     12  C   UNL     1       6.051   0.023   0.168  0.00  0.00    +0.008 A 
ENDBRANCH   3   7
TORSDOF 1
ENDMDL
MODEL 7
REMARK VINA RESULT:    -3.217      1.460      4.516
REMARK INTER + INTRA:          -3.617
REMARK INTER:                  -3.368
REMARK INTRA:                  -0.249
REMARK UNBOUND:                -0.212
REMARK  Name = Nicotine.pdb
REMARK  2 active torsions:
REMARK  status: ('A' for Active; 'I' for Inactive)
REMARK    1  A    between atoms: C_3  and  C_6
REMARK    2  A    between atoms: N_4  and  C_12
REMARK                            x       y       z     vdW  Elec       q    Type
REMARK                         _______ _______ _______ _____ _____    ______ ____
ROOT
ATOM      1  C   UNL     1       1.064  -3.619  -1.459  0.00  0.00    +0.017 C 
ATOM      2  C   UNL     1       0.934  -2.240  -0.759  0.00  0.00    +0.025 C 
ATOM      3  C   UNL     1      -0.583  -1.962  -0.818  0.00  0.00    +0.088 C 
ATOM      4  N   UNL     1      -1.133  -2.774  -1.918  0.00  0.00    -0.298 NA
ATOM      5  C   UNL     1      -0.025  -3.517  -2.556  0.00  0.00    +0.085 C 
ATOM      6  C   UNL     1      -2.171  -3.691  -1.429  0.00  0.00    +0.105 C 
ENDROOT
BRANCH   3   7
ATOM      7  C   UNL     1      -0.827  -0.500  -1.086  0.00  0.00    -0.012 A 
ATOM      8  C   UNL     1      -2.107   0.018  -1.025  0.00  0.00    +0.115 A 
ATOM      9  N   UNL     1      -2.329   1.297  -1.258  0.00  0.00    -0.263 NA
ATOM     10  C   UNL     1      -1.349   2.128  -1.556  0.00  0.00    +0.111 A 
ATOM     11  C   UNL     1      -0.043   1.682  -1.635  0.00  0.00    +0.020 A 
ATOM     12  C   UNL     1       0.230   0.345  -1.391  0.00  0.00    +0.008 A 
ENDBRANCH   3   7
TORSDOF 1
ENDMDL
MODEL 8
REMARK VINA RESULT:    -3.202      7.219      8.667
REMARK INTER + INTRA:          -3.601
REMARK INTER:                  -3.385
REMARK INTRA:                  -0.215
REMARK UNBOUND:                -0.212
REMARK  Name = Nicotine.pdb
REMARK  2 active torsions:
REMARK  status: ('A' for Active; 'I' for Inactive)
REMARK    1  A    between atoms: C_3  and  C_6
REMARK    2  A    between atoms: N_4  and  C_12
REMARK                            x       y       z     vdW  Elec       q    Type
REMARK                         _______ _______ _______ _____ _____    ______ ____
ROOT
ATOM      1  C   UNL     1       3.288  -1.089   4.913  0.00  0.00    +0.017 C 
ATOM      2  C   UNL     1       3.458  -1.462   3.417  0.00  0.00    +0.025 C 
ATOM      3  C   UNL     1       4.991  -1.504   3.243  0.00  0.00    +0.088 C 
ATOM      4  N   UNL     1       5.576  -0.685   4.320  0.00  0.00    -0.298 NA
ATOM      5  C   UNL     1       4.477  -0.121   5.132  0.00  0.00    +0.085 C 
ATOM      6  C   UNL     1       6.491  -1.480   5.149  0.00  0.00    +0.105 C 
ENDROOT
BRANCH   3   7
ATOM      7  C   UNL     1       5.371  -0.934   1.900  0.00  0.00    -0.012 A 
ATOM      8  C   UNL     1       6.535  -0.205   1.754  0.00  0.00    +0.115 A 
ATOM      9  N   UNL     1       6.875   0.297   0.583  0.00  0.00    -0.263 NA
ATOM     10  C   UNL     1       6.125   0.126  -0.488  0.00  0.00    +0.111 A 
ATOM     11  C   UNL     1       4.946  -0.592  -0.419  0.00  0.00    +0.020 A 
ATOM     12  C   UNL     1       4.559  -1.140   0.795  0.00  0.00    +0.008 A 
ENDBRANCH   3   7
TORSDOF 1
ENDMDL
MODEL 9
REMARK VINA RESULT:    -3.199      6.811      8.016
REMARK INTER + INTRA:          -3.598
REMARK INTER:                  -3.350
REMARK INTRA:                  -0.248
REMARK UNBOUND:                -0.212
REMARK  Name = Nicotine.pdb
REMARK  2 active torsions:
REMARK  status: ('A' for Active; 'I' for Inactive)
REMARK    1  A    between atoms: C_3  and  C_6
REMARK    2  A    between atoms: N_4  and  C_12
REMARK                            x       y       z     vdW  Elec       q    Type
REMARK                         _______ _______ _______ _____ _____    ______ ____
ROOT
ATOM      1  C   UNL     1       6.083   0.068   0.238  0.00  0.00    +0.017 C 
ATOM      2  C   UNL     1       6.279  -0.260  -1.266  0.00  0.00    +0.025 C 
ATOM      3  C   UNL     1       5.595  -1.637  -1.413  0.00  0.00    +0.088 C 
ATOM      4  N   UNL     1       5.562  -2.253  -0.074  0.00  0.00    -0.298 NA
ATOM      5  C   UNL     1       6.214  -1.334   0.883  0.00  0.00    +0.085 C 
ATOM      6  C   UNL     1       4.184  -2.550   0.336  0.00  0.00    +0.105 C 
ENDROOT
BRANCH   3   7
ATOM      7  C   UNL     1       6.386  -2.503  -2.358  0.00  0.00    -0.012 A 
ATOM      8  C   UNL     1       5.738  -3.307  -3.277  0.00  0.00    +0.115 A 
ATOM      9  N   UNL     1       6.422  -4.069  -4.108  0.00  0.00    -0.263 NA
ATOM     10  C   UNL     1       7.740  -4.096  -4.098  0.00  0.00    +0.111 A 
ATOM     11  C   UNL     1       8.457  -3.318  -3.208  0.00  0.00    +0.020 A 
ATOM     12  C   UNL     1       7.772  -2.501  -2.322  0.00  0.00    +0.008 A 
ENDBRANCH   3   7
TORSDOF 1
ENDMDL
MODEL 10
REMARK VINA RESULT:    -3.110      7.916      8.993
REMARK INTER + INTRA:          -3.504
REMARK INTER:                  -3.300
REMARK INTRA:                  -0.203
REMARK UNBOUND:                -0.212
REMARK  Name = Nicotine.pdb
REMARK  2 active torsions:
REMARK  status: ('A' for Active; 'I' for Inactive)
REMARK    1  A    between atoms: C_3  and  C_6
REMARK    2  A    between atoms: N_4  and  C_12
REMARK                            x       y       z     vdW  Elec       q    Type
REMARK                         _______ _______ _______ _____ _____    ______ ____
ROOT
ATOM      1  C   UNL     1       5.590  -0.803   2.192  0.00  0.00    +0.017 C 
ATOM      2  C   UNL     1       5.409  -1.937   1.149  0.00  0.00    +0.025 C 
ATOM      3  C   UNL     1       6.862  -2.340   0.818  0.00  0.00    +0.088 C 
ATOM      4  N   UNL     1       7.722  -1.195   1.165  0.00  0.00    -0.298 NA
ATOM      5  C   UNL     1       6.868  -0.099   1.670  0.00  0.00    +0.085 C 
ATOM      6  C   UNL     1       8.732  -1.577   2.161  0.00  0.00    +0.105 C 
ENDROOT
BRANCH   3   7
ATOM      7  C   UNL     1       6.986  -2.649  -0.651  0.00  0.00    -0.012 A 
ATOM      8  C   UNL     1       6.386  -1.832  -1.591  0.00  0.00    +0.115 A 
ATOM      9  N   UNL     1       6.489  -2.096  -2.879  0.00  0.00    -0.263 NA
ATOM     10  C   UNL     1       7.163  -3.140  -3.320  0.00  0.00    +0.111 A 
ATOM     11  C   UNL     1       7.790  -4.001  -2.440  0.00  0.00    +0.020 A 
ATOM     12  C   UNL     1       7.708  -3.753  -1.079  0.00  0.00    +0.008 A 
ENDBRANCH   3   7
TORSDOF 1
ENDMDL
