MODEL 1
REMARK VINA RESULT:     0.000      0.000      0.000
REMARK INTER + INTRA:          -0.256
REMARK INTER:                   0.000
REMARK INTRA:                  -0.256
REMARK UNBOUND:                -0.256
REMARK  Name = Nicotine.pdb
REMARK  2 active torsions:
REMARK  status: ('A' for Active; 'I' for Inactive)
REMARK    1  A    between atoms: C_3  and  C_6
REMARK    2  A    between atoms: N_4  and  C_12
REMARK                            x       y       z     vdW  Elec       q    Type
REMARK                         _______ _______ _______ _____ _____    ______ ____
ROOT
ATOM      1  C   UNL     1       6.804  -3.833  -0.395  0.00  0.00    +0.017 C 
ATOM      2  C   UNL     1       7.454  -2.814  -1.368  0.00  0.00    +0.025 C 
ATOM      3  C   UNL     1       6.430  -2.734  -2.521  0.00  0.00    +0.088 C 
ATOM      4  N   UNL     1       5.632  -3.972  -2.483  0.00  0.00    -0.298 NA
ATOM      5  C   UNL     1       6.131  -4.821  -1.381  0.00  0.00    +0.085 C 
ATOM      6  C   UNL     1       4.204  -3.674  -2.314  0.00  0.00    +0.105 C 
ENDROOT
BRANCH   3   7
ATOM      7  C   UNL     1       7.151  -2.626  -3.840  0.00  0.00    -0.012 A 
ATOM      8  C   UNL     1       6.506  -2.110  -4.948  0.00  0.00    +0.115 A 
ATOM      9  N   UNL     1       7.130  -2.012  -6.106  0.00  0.00    -0.263 NA
ATOM     10  C   UNL     1       8.381  -2.399  -6.254  0.00  0.00    +0.111 A 
ATOM     11  C   UNL     1       9.091  -2.924  -5.190  0.00  0.00    +0.020 A 
ATOM     12  C   UNL     1       8.470  -3.037  -3.956  0.00  0.00    +0.008 A 
ENDBRANCH   3   7
TORSDOF 1
ENDMDL
MODEL 2
REMARK VINA RESULT:     0.000      4.866      5.926
REMARK INTER + INTRA:          -0.256
REMARK INTER:                   0.000
REMARK INTRA:                  -0.256
REMARK UNBOUND:                -0.256
REMARK  Name = Nicotine.pdb
REMARK  2 active torsions:
REMARK  status: ('A' for Active; 'I' for Inactive)
REMARK    1  A    between atoms: C_3  and  C_6
REMARK    2  A    between atoms: N_4  and  C_12
REMARK                            x       y       z     vdW  Elec       q    Type
REMARK                         _______ _______ _______ _____ _____    ______ ____
ROOT
ATOM      1  C   UNL     1       3.653   2.816   0.674  0.00  0.00    +0.017 C 
ATOM      2  C   UNL     1       3.054   1.624  -0.118  0.00  0.00    +0.025 C 
ATOM      3  C   UNL     1       4.305   0.830  -0.551  0.00  0.00    +0.088 C 
ATOM      4  N   UNL     1       5.445   1.764  -0.525  0.00  0.00    -0.298 NA
ATOM      5  C   UNL     1       4.952   3.099  -0.122  0.00  0.00    +0.085 C 
ATOM      6  C   UNL     1       6.493   1.292   0.390  0.00  0.00    +0.105 C 
ENDROOT
BRANCH   3   7
ATOM      7  C   UNL     1       4.114   0.291  -1.944  0.00  0.00    -0.012 A 
ATOM      8  C   UNL     1       4.860  -0.785  -2.386  0.00  0.00    +0.115 A 
ATOM      9  N   UNL     1       4.699  -1.263  -3.605  0.00  0.00    -0.263 NA
ATOM     10  C   UNL     1       3.828  -0.740  -4.445  0.00  0.00    +0.111 A 
ATOM     11  C   UNL     1       3.046   0.338  -4.073  0.00  0.00    +0.020 A 
ATOM     12  C   UNL     1       3.184   0.864  -2.798  0.00  0.00    +0.008 A 
ENDBRANCH   3   7
TORSDOF 1
ENDMDL
MODEL 3
REMARK VINA RESULT:     0.000      5.794      6.811
REMARK INTER + INTRA:          -0.256
REMARK INTER:                   0.000
REMARK INTRA:                  -0.256
REMARK UNBOUND:                -0.256
REMARK  Name = Nicotine.pdb
REMARK  2 active torsions:
REMARK  status: ('A' for Active; 'I' for Inactive)
REMARK    1  A    between atoms: C_3  and  C_6
REMARK    2  A    between atoms: N_4  and  C_12
REMARK                            x       y       z     vdW  Elec       q    Type
REMARK                         _______ _______ _______ _____ _____    ______ ____
ROOT
ATOM      1  C   UNL     1       4.489  -0.564  -4.310  0.00  0.00    +0.017 C 
ATOM      2  C   UNL     1       5.156   0.836  -4.360  0.00  0.00    +0.025 C 
ATOM      3  C   UNL     1       3.989   1.788  -4.021  0.00  0.00    +0.088 C 
ATOM      4  N   UNL     1       2.738   1.075  -4.334  0.00  0.00    -0.298 NA
ATOM      5  C   UNL     1       3.078  -0.259  -4.873  0.00  0.00    +0.085 C 
ATOM      6  C   UNL     1       1.884   0.961  -3.145  0.00  0.00    +0.105 C 
ENDROOT
BRANCH   3   7
ATOM      7  C   UNL     1       4.090   3.040  -4.853  0.00  0.00    -0.012 A 
ATOM      8  C   UNL     1       3.460   4.201  -4.449  0.00  0.00    +0.115 A 
ATOM      9  N   UNL     1       3.544   5.301  -5.172  0.00  0.00    -0.263 NA
ATOM     10  C   UNL     1       4.225   5.339  -6.300  0.00  0.00    +0.111 A 
ATOM     11  C   UNL     1       4.883   4.216  -6.768  0.00  0.00    +0.020 A 
ATOM     12  C   UNL     1       4.822   3.043  -6.032  0.00  0.00    +0.008 A 
ENDBRANCH   3   7
TORSDOF 1
ENDMDL
MODEL 4
REMARK VINA RESULT:     0.000      3.887      5.918
REMARK INTER + INTRA:          -0.256
REMARK INTER:                   0.000
REMARK INTRA:                  -0.256
REMARK UNBOUND:                -0.256
REMARK  Name = Nicotine.pdb
REMARK  2 active torsions:
REMARK  status: ('A' for Active; 'I' for Inactive)
REMARK    1  A    between atoms: C_3  and  C_6
REMARK    2  A    between atoms: N_4  and  C_12
REMARK                            x       y       z     vdW  Elec       q    Type
REMARK                         _______ _______ _______ _____ _____    ______ ____
ROOT
ATOM      1  C   UNL     1       3.793  -2.011  -1.917  0.00  0.00    +0.017 C 
ATOM      2  C   UNL     1       2.349  -2.451  -2.274  0.00  0.00    +0.025 C 
ATOM      3  C   UNL     1       2.575  -3.573  -3.310  0.00  0.00    +0.088 C 
ATOM      4  N   UNL     1       3.915  -3.369  -3.890  0.00  0.00    -0.298 NA
ATOM      5  C   UNL     1       4.513  -2.163  -3.280  0.00  0.00    +0.085 C 
ATOM      6  C   UNL     1       4.767  -4.546  -3.675  0.00  0.00    +0.105 C 
ENDROOT
BRANCH   3   7
ATOM      7  C   UNL     1       1.529  -3.490  -4.391  0.00  0.00    -0.012 A 
ATOM      8  C   UNL     1       1.238  -4.596  -5.168  0.00  0.00    +0.115 A 
ATOM      9  N   UNL     1       0.324  -4.532  -6.116  0.00  0.00    -0.263 NA
ATOM     10  C   UNL     1      -0.344  -3.422  -6.362  0.00  0.00    +0.111 A 
ATOM     11  C   UNL     1      -0.107  -2.276  -5.626  0.00  0.00    +0.020 A 
ATOM     12  C   UNL     1       0.843  -2.307  -4.617  0.00  0.00    +0.008 A 
ENDBRANCH   3   7
TORSDOF 1
ENDMDL
MODEL 5
REMARK VINA RESULT:     0.000      8.029     10.010
REMARK INTER + INTRA:          -0.256
REMARK INTER:                   0.000
REMARK INTRA:                  -0.256
REMARK UNBOUND:                -0.256
REMARK  Name = Nicotine.pdb
REMARK  2 active torsions:
REMARK  status: ('A' for Active; 'I' for Inactive)
REMARK    1  A    between atoms: C_3  and  C_6
REMARK    2  A    between atoms: N_4  and  C_12
REMARK                            x       y       z     vdW  Elec       q    Type
REMARK                         _______ _______ _______ _____ _____    ______ ____
ROOT
ATOM      1  C   UNL     1       2.305   0.122  -0.232  0.00  0.00    +0.017 C 
ATOM      2  C   UNL     1       1.234   0.662   0.752  0.00  0.00    +0.025 C 
ATOM      3  C   UNL     1      -0.022   0.788  -0.137  0.00  0.00    +0.088 C 
ATOM      4  N   UNL     1       0.440   0.882  -1.534  0.00  0.00    -0.298 NA
ATOM      5  C   UNL     1       1.917   0.846  -1.545  0.00  0.00    +0.085 C 
ATOM      6  C   UNL     1      -0.120  -0.204  -2.349  0.00  0.00    +0.105 C 
ENDROOT
BRANCH   3   7
ATOM      7  C   UNL     1      -0.792   2.028   0.235  0.00  0.00    -0.012 A 
ATOM      8  C   UNL     1      -2.132   2.141  -0.082  0.00  0.00    +0.115 A 
ATOM      9  N   UNL     1      -2.813   3.223   0.240  0.00  0.00    -0.263 NA
ATOM     10  C   UNL     1      -2.250   4.234   0.871  0.00  0.00    +0.111 A 
ATOM     11  C   UNL     1      -0.913   4.193   1.221  0.00  0.00    +0.020 A 
ATOM     12  C   UNL     1      -0.166   3.069   0.904  0.00  0.00    +0.008 A 
ENDBRANCH   3   7
TORSDOF 1
ENDMDL
MODEL 6
REMARK VINA RESULT:     0.000      7.515      8.839
REMARK INTER + INTRA:          -0.256
REMARK INTER:                   0.000
REMARK INTRA:                  -0.256
REMARK UNBOUND:                -0.256
REMARK  Name = Nicotine.pdb
REMARK  2 active torsions:
REMARK  status: ('A' for Active; 'I' for Inactive)
REMARK    1  A    between atoms: C_3  and  C_6
REMARK    2  A    between atoms: N_4  and  C_12
REMARK                            x       y       z     vdW  Elec       q    Type
REMARK                         _______ _______ _______ _____ _____    ______ ____
ROOT
ATOM      1  C   UNL     1       5.897   3.565   1.881  0.00  0.00    +0.017 C 
ATOM      2  C   UNL     1       4.585   2.930   2.412  0.00  0.00    +0.025 C 
ATOM      3  C   UNL     1       5.093   1.783   3.312  0.00  0.00    +0.088 C 
ATOM      4  N   UNL     1       6.459   1.451   2.867  0.00  0.00    -0.298 NA
ATOM      5  C   UNL     1       6.805   2.319   1.722  0.00  0.00    +0.085 C 
ATOM      6  C   UNL     1       7.424   1.613   3.962  0.00  0.00    +0.105 C 
ENDROOT
BRANCH   3   7
ATOM      7  C   UNL     1       4.198   0.581   3.165  0.00  0.00    -0.012 A 
ATOM      8  C   UNL     1       4.162  -0.388   4.150  0.00  0.00    +0.115 A 
ATOM      9  N   UNL     1       3.381  -1.444   4.030  0.00  0.00    -0.263 NA
ATOM     10  C   UNL     1       2.609  -1.619   2.975  0.00  0.00    +0.111 A 
ATOM     11  C   UNL     1       2.592  -0.691   1.950  0.00  0.00    +0.020 A 
ATOM     12  C   UNL     1       3.396   0.434   2.044  0.00  0.00    +0.008 A 
ENDBRANCH   3   7
TORSDOF 1
ENDMDL
MODEL 7
REMARK VINA RESULT:     0.000      6.680      7.399
REMARK INTER + INTRA:          -0.256
REMARK INTER:                   0.000
REMARK INTRA:                  -0.256
REMARK UNBOUND:                -0.256
REMARK  Name = Nicotine.pdb
REMARK  2 active torsions:
REMARK  status: ('A' for Active; 'I' for Inactive)
REMARK    1  A    between atoms: C_3  and  C_6
REMARK    2  A    between atoms: N_4  and  C_12
REMARK                            x       y       z     vdW  Elec       q    Type
REMARK                         _______ _______ _______ _____ _____    ______ ____
ROOT
ATOM      1  C   UNL     1       0.277  -2.001   0.223  0.00  0.00    +0.017 C 
ATOM      2  C   UNL     1       1.076  -1.166  -0.812  0.00  0.00    +0.025 C 
ATOM      3  C   UNL     1       2.235  -0.588   0.028  0.00  0.00    +0.088 C 
ATOM      4  N   UNL     1       1.802  -0.604   1.437  0.00  0.00    -0.298 NA
ATOM      5  C   UNL     1       0.426  -1.139   1.502  0.00  0.00    +0.085 C 
ATOM      6  C   UNL     1       2.718  -1.404   2.261  0.00  0.00    +0.105 C 
ENDROOT
BRANCH   3   7
ATOM      7  C   UNL     1       2.526   0.825  -0.404  0.00  0.00    -0.012 A 
ATOM      8  C   UNL     1       3.756   1.398  -0.139  0.00  0.00    +0.115 A 
ATOM      9  N   UNL     1       4.019   2.635  -0.514  0.00  0.00    -0.263 NA
ATOM     10  C   UNL     1       3.130   3.370  -1.152  0.00  0.00    +0.111 A 
ATOM     11  C   UNL     1       1.879   2.864  -1.453  0.00  0.00    +0.020 A 
ATOM     12  C   UNL     1       1.568   1.566  -1.079  0.00  0.00    +0.008 A 
ENDBRANCH   3   7
TORSDOF 1
ENDMDL
MODEL 8
REMARK VINA RESULT:     0.000      4.256      5.464
REMARK INTER + INTRA:          -0.256
REMARK INTER:                   0.000
REMARK INTRA:                  -0.256
REMARK UNBOUND:                -0.256
REMARK  Name = Nicotine.pdb
REMARK  2 active torsions:
REMARK  status: ('A' for Active; 'I' for Inactive)
REMARK    1  A    between atoms: C_3  and  C_6
REMARK    2  A    between atoms: N_4  and  C_12
REMARK                            x       y       z     vdW  Elec       q    Type
REMARK                         _______ _______ _______ _____ _____    ______ ____
ROOT
ATOM      1  C   UNL     1       2.204   1.933   0.414  0.00  0.00    +0.017 C 
ATOM      2  C   UNL     1       2.767   1.521  -0.971  0.00  0.00    +0.025 C 
ATOM      3  C   UNL     1       2.371   0.034  -1.079  0.00  0.00    +0.088 C 
ATOM      4  N   UNL     1       2.158  -0.462   0.293  0.00  0.00    -0.298 NA
ATOM      5  C   UNL     1       2.428   0.641   1.239  0.00  0.00    +0.085 C 
ATOM      6  C   UNL     1       0.793  -0.978   0.460  0.00  0.00    +0.105 C 
ENDROOT
BRANCH   3   7
ATOM      7  C   UNL     1       3.478  -0.745  -1.741  0.00  0.00    -0.012 A 
ATOM      8  C   UNL     1       3.214  -1.961  -2.342  0.00  0.00    +0.115 A 
ATOM      9  N   UNL     1       4.178  -2.650  -2.923  0.00  0.00    -0.263 NA
ATOM     10  C   UNL     1       5.421  -2.211  -2.955  0.00  0.00    +0.111 A 
ATOM     11  C   UNL     1       5.760  -1.003  -2.375  0.00  0.00    +0.020 A 
ATOM     12  C   UNL     1       4.773  -0.249  -1.759  0.00  0.00    +0.008 A 
ENDBRANCH   3   7
TORSDOF 1
ENDMDL
MODEL 9
REMARK VINA RESULT:     0.000      5.373      6.117
REMARK INTER + INTRA:          -0.256
REMARK INTER:                   0.000
REMARK INTRA:                  -0.256
REMARK UNBOUND:                -0.256
REMARK  Name = Nicotine.pdb
REMARK  2 active torsions:
REMARK  status: ('A' for Active; 'I' for Inactive)
REMARK    1  A    between atoms: C_3  and  C_6
REMARK    2  A    between atoms: N_4  and  C_12
REMARK                            x       y       z     vdW  Elec       q    Type
REMARK                         _______ _______ _______ _____ _____    ______ ____
ROOT
ATOM      1  C   UNL     1       4.990   2.631  -2.019  0.00  0.00    +0.017 C 
ATOM      2  C   UNL     1       5.971   1.442  -2.198  0.00  0.00    +0.025 C 
ATOM      3  C   UNL     1       7.182   1.858  -1.336  0.00  0.00    +0.088 C 
ATOM      4  N   UNL     1       7.132   3.324  -1.191  0.00  0.00    -0.298 NA
ATOM      5  C   UNL     1       5.966   3.833  -1.944  0.00  0.00    +0.085 C 
ATOM      6  C   UNL     1       7.058   3.712   0.223  0.00  0.00    +0.105 C 
ENDROOT
BRANCH   3   7
ATOM      7  C   UNL     1       8.461   1.451  -2.019  0.00  0.00    -0.012 A 
ATOM      8  C   UNL     1       9.627   1.305  -1.291  0.00  0.00    +0.115 A 
ATOM      9  N   UNL     1      10.751   0.950  -1.881  0.00  0.00    -0.263 NA
ATOM     10  C   UNL     1      10.811   0.721  -3.178  0.00  0.00    +0.111 A 
ATOM     11  C   UNL     1       9.686   0.846  -3.971  0.00  0.00    +0.020 A 
ATOM     12  C   UNL     1       8.484   1.213  -3.385  0.00  0.00    +0.008 A 
ENDBRANCH   3   7
TORSDOF 1
ENDMDL
MODEL 10
REMARK VINA RESULT:     0.000      2.164      3.073
REMARK INTER + INTRA:          -0.256
REMARK INTER:                   0.000
REMARK INTRA:                  -0.256
REMARK UNBOUND:                -0.256
REMARK  Name = Nicotine.pdb
REMARK  2 active torsions:
REMARK  status: ('A' for Active; 'I' for Inactive)
REMARK    1  A    between atoms: C_3  and  C_6
REMARK    2  A    between atoms: N_4  and  C_12
REMARK                            x       y       z     vdW  Elec       q    Type
REMARK                         _______ _______ _______ _____ _____    ______ ____
ROOT
ATOM      1  C   UNL     1       7.356  -1.031   0.559  0.00  0.00    +0.017 C 
ATOM      2  C   UNL     1       8.081  -2.100  -0.302  0.00  0.00    +0.025 C 
ATOM      3  C   UNL     1       7.641  -1.745  -1.738  0.00  0.00    +0.088 C 
ATOM      4  N   UNL     1       6.386  -0.979  -1.634  0.00  0.00    -0.298 NA
ATOM      5  C   UNL     1       6.019  -0.867  -0.206  0.00  0.00    +0.085 C 
ATOM      6  C   UNL     1       6.526   0.348  -2.248  0.00  0.00    +0.105 C 
ENDROOT
BRANCH   3   7
ATOM      7  C   UNL     1       7.409  -3.006  -2.530  0.00  0.00    -0.012 A 
ATOM      8  C   UNL     1       7.442  -2.980  -3.911  0.00  0.00    +0.115 A 
ATOM      9  N   UNL     1       7.240  -4.079  -4.611  0.00  0.00    -0.263 NA
ATOM     10  C   UNL     1       7.000  -5.238  -4.029  0.00  0.00    +0.111 A 
ATOM     11  C   UNL     1       6.953  -5.341  -2.651  0.00  0.00    +0.020 A 
ATOM     12  C   UNL     1       7.165  -4.207  -1.882  0.00  0.00    +0.008 A 
ENDBRANCH   3   7
TORSDOF 1
ENDMDL
