MODEL 1
REMARK VINA RESULT:    -3.648      0.000      0.000
REMARK INTER + INTRA:          -4.059
REMARK INTER:                  -3.861
REMARK INTRA:                  -0.198
REMARK UNBOUND:                -0.198
REMARK  Name = Nicotine.pdb
REMARK  2 active torsions:
REMARK  status: ('A' for Active; 'I' for Inactive)
REMARK    1  A    between atoms: C_3  and  C_6
REMARK    2  A    between atoms: N_4  and  C_12
REMARK                            x       y       z     vdW  Elec       q    Type
REMARK                         _______ _______ _______ _____ _____    ______ ____
ROOT
ATOM      1  C   UNL     1       2.723   4.570  -7.162  0.00  0.00    +0.017 C 
ATOM      2  C   UNL     1       3.790   3.883  -6.270  0.00  0.00    +0.025 C 
ATOM      3  C   UNL     1       4.176   4.995  -5.271  0.00  0.00    +0.088 C 
ATOM      4  N   UNL     1       3.824   6.283  -5.895  0.00  0.00    -0.298 NA
ATOM      5  C   UNL     1       3.265   6.019  -7.238  0.00  0.00    +0.085 C 
ATOM      6  C   UNL     1       2.870   7.028  -5.064  0.00  0.00    +0.105 C 
ENDROOT
BRANCH   3   7
ATOM      7  C   UNL     1       5.656   4.945  -4.995  0.00  0.00    -0.012 A 
ATOM      8  C   UNL     1       6.436   3.945  -5.543  0.00  0.00    +0.115 A 
ATOM      9  N   UNL     1       7.733   3.894  -5.306  0.00  0.00    -0.263 NA
ATOM     10  C   UNL     1       8.333   4.786  -4.543  0.00  0.00    +0.111 A 
ATOM     11  C   UNL     1       7.618   5.816  -3.961  0.00  0.00    +0.020 A 
ATOM     12  C   UNL     1       6.254   5.905  -4.192  0.00  0.00    +0.008 A 
ENDBRANCH   3   7
TORSDOF 1
ENDMDL
MODEL 2
REMARK VINA RESULT:    -3.559      1.163      4.728
REMARK INTER + INTRA:          -3.965
REMARK INTER:                  -3.756
REMARK INTRA:                  -0.209
REMARK UNBOUND:                -0.198
REMARK  Name = Nicotine.pdb
REMARK  2 active torsions:
REMARK  status: ('A' for Active; 'I' for Inactive)
REMARK    1  A    between atoms: C_3  and  C_6
REMARK    2  A    between atoms: N_4  and  C_12
REMARK                            x       y       z     vdW  Elec       q    Type
REMARK                         _______ _______ _______ _____ _____    ______ ____
ROOT
ATOM      1  C   UNL     1       6.662   6.806  -3.197  0.00  0.00    +0.017 C 
ATOM      2  C   UNL     1       5.164   6.461  -3.412  0.00  0.00    +0.025 C 
ATOM      3  C   UNL     1       5.217   5.310  -4.439  0.00  0.00    +0.088 C 
ATOM      4  N   UNL     1       6.509   5.411  -5.143  0.00  0.00    -0.298 NA
ATOM      5  C   UNL     1       7.241   6.583  -4.616  0.00  0.00    +0.085 C 
ATOM      6  C   UNL     1       7.295   4.182  -4.981  0.00  0.00    +0.105 C 
ENDROOT
BRANCH   3   7
ATOM      7  C   UNL     1       4.084   5.448  -5.423  0.00  0.00    -0.012 A 
ATOM      8  C   UNL     1       3.265   6.561  -5.393  0.00  0.00    +0.115 A 
ATOM      9  N   UNL     1       2.271   6.689  -6.250  0.00  0.00    -0.263 NA
ATOM     10  C   UNL     1       2.019   5.771  -7.162  0.00  0.00    +0.111 A 
ATOM     11  C   UNL     1       2.796   4.631  -7.253  0.00  0.00    +0.020 A 
ATOM     12  C   UNL     1       3.853   4.464  -6.372  0.00  0.00    +0.008 A 
ENDBRANCH   3   7
TORSDOF 1
ENDMDL
MODEL 3
REMARK VINA RESULT:    -3.435      1.148      1.599
REMARK INTER + INTRA:          -3.834
REMARK INTER:                  -3.578
REMARK INTRA:                  -0.255
REMARK UNBOUND:                -0.198
REMARK  Name = Nicotine.pdb
REMARK  2 active torsions:
REMARK  status: ('A' for Active; 'I' for Inactive)
REMARK    1  A    between atoms: C_3  and  C_6
REMARK    2  A    between atoms: N_4  and  C_12
REMARK                            x       y       z     vdW  Elec       q    Type
REMARK                         _______ _______ _______ _____ _____    ______ ____
ROOT
ATOM      1  C   UNL     1       3.244   3.721  -6.574  0.00  0.00    +0.017 C 
ATOM      2  C   UNL     1       4.431   3.574  -5.584  0.00  0.00    +0.025 C 
ATOM      3  C   UNL     1       4.586   5.000  -5.015  0.00  0.00    +0.088 C 
ATOM      4  N   UNL     1       3.979   5.927  -5.987  0.00  0.00    -0.298 NA
ATOM      5  C   UNL     1       3.482   5.144  -7.138  0.00  0.00    +0.085 C 
ATOM      6  C   UNL     1       2.896   6.704  -5.370  0.00  0.00    +0.105 C 
ENDROOT
BRANCH   3   7
ATOM      7  C   UNL     1       6.046   5.325  -4.837  0.00  0.00    -0.012 A 
ATOM      8  C   UNL     1       6.434   6.402  -4.062  0.00  0.00    +0.115 A 
ATOM      9  N   UNL     1       7.710   6.693  -3.901  0.00  0.00    -0.263 NA
ATOM     10  C   UNL     1       8.661   5.976  -4.467  0.00  0.00    +0.111 A 
ATOM     11  C   UNL     1       8.350   4.884  -5.256  0.00  0.00    +0.020 A 
ATOM     12  C   UNL     1       7.019   4.545  -5.444  0.00  0.00    +0.008 A 
ENDBRANCH   3   7
TORSDOF 1
ENDMDL
MODEL 4
REMARK VINA RESULT:    -3.399      1.196      4.640
REMARK INTER + INTRA:          -3.795
REMARK INTER:                  -3.609
REMARK INTRA:                  -0.186
REMARK UNBOUND:                -0.198
REMARK  Name = Nicotine.pdb
REMARK  2 active torsions:
REMARK  status: ('A' for Active; 'I' for Inactive)
REMARK    1  A    between atoms: C_3  and  C_6
REMARK    2  A    between atoms: N_4  and  C_12
REMARK                            x       y       z     vdW  Elec       q    Type
REMARK                         _______ _______ _______ _____ _____    ______ ____
ROOT
ATOM      1  C   UNL     1       7.948   6.995  -4.103  0.00  0.00    +0.017 C 
ATOM      2  C   UNL     1       6.427   6.704  -4.191  0.00  0.00    +0.025 C 
ATOM      3  C   UNL     1       6.374   5.166  -4.310  0.00  0.00    +0.088 C 
ATOM      4  N   UNL     1       7.683   4.722  -4.823  0.00  0.00    -0.298 NA
ATOM      5  C   UNL     1       8.529   5.914  -5.048  0.00  0.00    +0.085 C 
ATOM      6  C   UNL     1       8.325   3.789  -3.889  0.00  0.00    +0.105 C 
ENDROOT
BRANCH   3   7
ATOM      7  C   UNL     1       5.283   4.764  -5.268  0.00  0.00    -0.012 A 
ATOM      8  C   UNL     1       4.142   5.533  -5.392  0.00  0.00    +0.115 A 
ATOM      9  N   UNL     1       3.183   5.188  -6.228  0.00  0.00    -0.263 NA
ATOM     10  C   UNL     1       3.270   4.105  -6.975  0.00  0.00    +0.111 A 
ATOM     11  C   UNL     1       4.382   3.286  -6.906  0.00  0.00    +0.020 A 
ATOM     12  C   UNL     1       5.414   3.620  -6.042  0.00  0.00    +0.008 A 
ENDBRANCH   3   7
TORSDOF 1
ENDMDL
MODEL 5
REMARK VINA RESULT:    -3.363      9.561     10.653
REMARK INTER + INTRA:          -3.757
REMARK INTER:                  -3.557
REMARK INTRA:                  -0.200
REMARK UNBOUND:                -0.198
REMARK  Name = Nicotine.pdb
REMARK  2 active torsions:
REMARK  status: ('A' for Active; 'I' for Inactive)
REMARK    1  A    between atoms: C_3  and  C_6
REMARK    2  A    between atoms: N_4  and  C_12
REMARK                            x       y       z     vdW  Elec       q    Type
REMARK                         _______ _______ _______ _____ _____    ______ ____
ROOT
ATOM      1  C   UNL     1       8.054   4.626   4.884  0.00  0.00    +0.017 C 
ATOM      2  C   UNL     1       8.702   3.223   5.019  0.00  0.00    +0.025 C 
ATOM      3  C   UNL     1       9.928   3.315   4.085  0.00  0.00    +0.088 C 
ATOM      4  N   UNL     1       9.658   4.392   3.115  0.00  0.00    -0.298 NA
ATOM      5  C   UNL     1       8.316   4.949   3.392  0.00  0.00    +0.085 C 
ATOM      6  C   UNL     1      10.687   5.437   3.188  0.00  0.00    +0.105 C 
ENDROOT
BRANCH   3   7
ATOM      7  C   UNL     1      10.120   2.008   3.360  0.00  0.00    -0.012 A 
ATOM      8  C   UNL     1      10.781   0.961   3.973  0.00  0.00    +0.115 A 
ATOM      9  N   UNL     1      10.954  -0.187   3.346  0.00  0.00    -0.263 NA
ATOM     10  C   UNL     1      10.507  -0.381   2.121  0.00  0.00    +0.111 A 
ATOM     11  C   UNL     1       9.836   0.621   1.445  0.00  0.00    +0.020 A 
ATOM     12  C   UNL     1       9.631   1.839   2.074  0.00  0.00    +0.008 A 
ENDBRANCH   3   7
TORSDOF 1
ENDMDL
MODEL 6
REMARK VINA RESULT:    -3.244      9.775     10.916
REMARK INTER + INTRA:          -3.632
REMARK INTER:                  -3.423
REMARK INTRA:                  -0.209
REMARK UNBOUND:                -0.198
REMARK  Name = Nicotine.pdb
REMARK  2 active torsions:
REMARK  status: ('A' for Active; 'I' for Inactive)
REMARK    1  A    between atoms: C_3  and  C_6
REMARK    2  A    between atoms: N_4  and  C_12
REMARK                            x       y       z     vdW  Elec       q    Type
REMARK                         _______ _______ _______ _____ _____    ______ ____
ROOT
ATOM      1  C   UNL     1       8.893   6.943   4.698  0.00  0.00    +0.017 C 
ATOM      2  C   UNL     1       9.123   5.905   3.568  0.00  0.00    +0.025 C 
ATOM      3  C   UNL     1       8.343   4.670   4.067  0.00  0.00    +0.088 C 
ATOM      4  N   UNL     1       8.210   4.799   5.529  0.00  0.00    -0.298 NA
ATOM      5  C   UNL     1       8.891   6.039   5.957  0.00  0.00    +0.085 C 
ATOM      6  C   UNL     1       6.797   4.808   5.931  0.00  0.00    +0.105 C 
ENDROOT
BRANCH   3   7
ATOM      7  C   UNL     1       9.102   3.414   3.728  0.00  0.00    -0.012 A 
ATOM      8  C   UNL     1       9.711   2.675   4.725  0.00  0.00    +0.115 A 
ATOM      9  N   UNL     1      10.377   1.574   4.437  0.00  0.00    -0.263 NA
ATOM     10  C   UNL     1      10.490   1.135   3.199  0.00  0.00    +0.111 A 
ATOM     11  C   UNL     1       9.907   1.821   2.150  0.00  0.00    +0.020 A 
ATOM     12  C   UNL     1       9.194   2.980   2.414  0.00  0.00    +0.008 A 
ENDBRANCH   3   7
TORSDOF 1
ENDMDL
MODEL 7
REMARK VINA RESULT:    -3.204      1.505      4.346
REMARK INTER + INTRA:          -3.589
REMARK INTER:                  -3.376
REMARK INTRA:                  -0.213
REMARK UNBOUND:                -0.198
REMARK  Name = Nicotine.pdb
REMARK  2 active torsions:
REMARK  status: ('A' for Active; 'I' for Inactive)
REMARK    1  A    between atoms: C_3  and  C_6
REMARK    2  A    between atoms: N_4  and  C_12
REMARK                            x       y       z     vdW  Elec       q    Type
REMARK                         _______ _______ _______ _____ _____    ______ ____
ROOT
ATOM      1  C   UNL     1       8.057   4.335  -3.884  0.00  0.00    +0.017 C 
ATOM      2  C   UNL     1       7.026   3.662  -4.828  0.00  0.00    +0.025 C 
ATOM      3  C   UNL     1       6.737   4.765  -5.869  0.00  0.00    +0.088 C 
ATOM      4  N   UNL     1       7.090   6.055  -5.249  0.00  0.00    -0.298 NA
ATOM      5  C   UNL     1       7.557   5.802  -3.869  0.00  0.00    +0.085 C 
ATOM      6  C   UNL     1       8.117   6.753  -6.033  0.00  0.00    +0.105 C 
ENDROOT
BRANCH   3   7
ATOM      7  C   UNL     1       5.276   4.753  -6.236  0.00  0.00    -0.012 A 
ATOM      8  C   UNL     1       4.731   3.671  -6.900  0.00  0.00    +0.115 A 
ATOM      9  N   UNL     1       3.453   3.653  -7.224  0.00  0.00    -0.263 NA
ATOM     10  C   UNL     1       2.649   4.657  -6.933  0.00  0.00    +0.111 A 
ATOM     11  C   UNL     1       3.124   5.773  -6.270  0.00  0.00    +0.020 A 
ATOM     12  C   UNL     1       4.461   5.826  -5.908  0.00  0.00    +0.008 A 
ENDBRANCH   3   7
TORSDOF 1
ENDMDL
MODEL 8
REMARK VINA RESULT:    -3.203      9.658     10.768
REMARK INTER + INTRA:          -3.589
REMARK INTER:                  -3.333
REMARK INTRA:                  -0.256
REMARK UNBOUND:                -0.198
REMARK  Name = Nicotine.pdb
REMARK  2 active torsions:
REMARK  status: ('A' for Active; 'I' for Inactive)
REMARK    1  A    between atoms: C_3  and  C_6
REMARK    2  A    between atoms: N_4  and  C_12
REMARK                            x       y       z     vdW  Elec       q    Type
REMARK                         _______ _______ _______ _____ _____    ______ ____
ROOT
ATOM      1  C   UNL     1      10.621  -0.643  -0.325  0.00  0.00    +0.017 C 
ATOM      2  C   UNL     1      10.954   0.687   0.401  0.00  0.00    +0.025 C 
ATOM      3  C   UNL     1      10.921   0.286   1.891  0.00  0.00    +0.088 C 
ATOM      4  N   UNL     1      10.100  -0.933   1.998  0.00  0.00    -0.298 NA
ATOM      5  C   UNL     1       9.605  -1.287   0.650  0.00  0.00    +0.085 C 
ATOM      6  C   UNL     1      10.870  -2.039   2.583  0.00  0.00    +0.105 C 
ENDROOT
BRANCH   3   7
ATOM      7  C   UNL     1      10.306   1.393   2.707  0.00  0.00    -0.012 A 
ATOM      8  C   UNL     1      10.509   1.451   4.073  0.00  0.00    +0.115 A 
ATOM      9  N   UNL     1       9.974   2.417   4.794  0.00  0.00    -0.263 NA
ATOM     10  C   UNL     1       9.231   3.359   4.249  0.00  0.00    +0.111 A 
ATOM     11  C   UNL     1       8.984   3.367   2.888  0.00  0.00    +0.020 A 
ATOM     12  C   UNL     1       9.534   2.370   2.097  0.00  0.00    +0.008 A 
ENDBRANCH   3   7
TORSDOF 1
ENDMDL
MODEL 9
REMARK VINA RESULT:    -3.191      1.903      4.573
REMARK INTER + INTRA:          -3.576
REMARK INTER:                  -3.389
REMARK INTRA:                  -0.187
REMARK UNBOUND:                -0.198
REMARK  Name = Nicotine.pdb
REMARK  2 active torsions:
REMARK  status: ('A' for Active; 'I' for Inactive)
REMARK    1  A    between atoms: C_3  and  C_6
REMARK    2  A    between atoms: N_4  and  C_12
REMARK                            x       y       z     vdW  Elec       q    Type
REMARK                         _______ _______ _______ _____ _____    ______ ____
ROOT
ATOM      1  C   UNL     1       8.997   5.944  -6.216  0.00  0.00    +0.017 C 
ATOM      2  C   UNL     1       8.052   6.919  -5.466  0.00  0.00    +0.025 C 
ATOM      3  C   UNL     1       7.439   6.028  -4.365  0.00  0.00    +0.088 C 
ATOM      4  N   UNL     1       7.562   4.630  -4.814  0.00  0.00    -0.298 NA
ATOM      5  C   UNL     1       8.198   4.619  -6.149  0.00  0.00    +0.085 C 
ATOM      6  C   UNL     1       8.337   3.834  -3.854  0.00  0.00    +0.105 C 
ENDROOT
BRANCH   3   7
ATOM      7  C   UNL     1       5.986   6.380  -4.171  0.00  0.00    -0.012 A 
ATOM      8  C   UNL     1       5.117   6.377  -5.246  0.00  0.00    +0.115 A 
ATOM      9  N   UNL     1       3.844   6.683  -5.085  0.00  0.00    -0.263 NA
ATOM     10  C   UNL     1       3.352   7.003  -3.904  0.00  0.00    +0.111 A 
ATOM     11  C   UNL     1       4.161   7.028  -2.784  0.00  0.00    +0.020 A 
ATOM     12  C   UNL     1       5.504   6.706  -2.913  0.00  0.00    +0.008 A 
ENDBRANCH   3   7
TORSDOF 1
ENDMDL
