MODEL 1
REMARK VINA RESULT:    -4.147      0.000      0.000
REMARK INTER + INTRA:          -4.644
REMARK INTER:                  -4.389
REMARK INTRA:                  -0.255
REMARK UNBOUND:                -0.255
REMARK  Name = Nicotine.pdb
REMARK  2 active torsions:
REMARK  status: ('A' for Active; 'I' for Inactive)
REMARK    1  A    between atoms: C_3  and  C_6
REMARK    2  A    between atoms: N_4  and  C_12
REMARK                            x       y       z     vdW  Elec       q    Type
REMARK                         _______ _______ _______ _____ _____    ______ ____
ROOT
ATOM      1  C   UNL     1       6.867   0.665   1.252  0.00  0.00    +0.017 C 
ATOM      2  C   UNL     1       7.351  -0.457   2.208  0.00  0.00    +0.025 C 
ATOM      3  C   UNL     1       7.560   0.291   3.542  0.00  0.00    +0.088 C 
ATOM      4  N   UNL     1       7.748   1.717   3.220  0.00  0.00    -0.298 NA
ATOM      5  C   UNL     1       7.690   1.879   1.751  0.00  0.00    +0.085 C 
ATOM      6  C   UNL     1       6.732   2.545   3.882  0.00  0.00    +0.105 C 
ENDROOT
BRANCH   3   7
ATOM      7  C   UNL     1       8.783  -0.243   4.243  0.00  0.00    -0.012 A 
ATOM      8  C   UNL     1       8.862  -0.223   5.623  0.00  0.00    +0.115 A 
ATOM      9  N   UNL     1       9.928  -0.689   6.244  0.00  0.00    -0.263 NA
ATOM     10  C   UNL     1      10.954  -1.186   5.582  0.00  0.00    +0.111 A 
ATOM     11  C   UNL     1      10.946  -1.239   4.200  0.00  0.00    +0.020 A 
ATOM     12  C   UNL     1       9.840  -0.764   3.513  0.00  0.00    +0.008 A 
ENDBRANCH   3   7
TORSDOF 1
ENDMDL
MODEL 2
REMARK VINA RESULT:    -3.469      1.214      2.367
REMARK INTER + INTRA:          -3.926
REMARK INTER:                  -3.670
REMARK INTRA:                  -0.256
REMARK UNBOUND:                -0.255
REMARK  Name = Nicotine.pdb
REMARK  2 active torsions:
REMARK  status: ('A' for Active; 'I' for Inactive)
REMARK    1  A    between atoms: C_3  and  C_6
REMARK    2  A    between atoms: N_4  and  C_12
REMARK                            x       y       z     vdW  Elec       q    Type
REMARK                         _______ _______ _______ _____ _____    ______ ____
ROOT
ATOM      1  C   UNL     1       5.871   2.482   2.954  0.00  0.00    +0.017 C 
ATOM      2  C   UNL     1       7.199   2.361   3.748  0.00  0.00    +0.025 C 
ATOM      3  C   UNL     1       7.937   1.219   3.019  0.00  0.00    +0.088 C 
ATOM      4  N   UNL     1       6.918   0.422   2.312  0.00  0.00    -0.298 NA
ATOM      5  C   UNL     1       5.588   1.003   2.592  0.00  0.00    +0.085 C 
ATOM      6  C   UNL     1       7.185   0.387   0.868  0.00  0.00    +0.105 C 
ENDROOT
BRANCH   3   7
ATOM      7  C   UNL     1       8.662   0.356   4.018  0.00  0.00    -0.012 A 
ATOM      8  C   UNL     1       9.681  -0.483   3.609  0.00  0.00    +0.115 A 
ATOM      9  N   UNL     1      10.321  -1.241   4.477  0.00  0.00    -0.263 NA
ATOM     10  C   UNL     1      10.018  -1.232   5.760  0.00  0.00    +0.111 A 
ATOM     11  C   UNL     1       9.011  -0.419   6.244  0.00  0.00    +0.020 A 
ATOM     12  C   UNL     1       8.320   0.397   5.361  0.00  0.00    +0.008 A 
ENDBRANCH   3   7
TORSDOF 1
ENDMDL
MODEL 3
REMARK VINA RESULT:    -2.247      1.260      4.654
REMARK INTER + INTRA:          -2.633
REMARK INTER:                  -2.378
REMARK INTRA:                  -0.255
REMARK UNBOUND:                -0.255
REMARK  Name = Nicotine.pdb
REMARK  2 active torsions:
REMARK  status: ('A' for Active; 'I' for Inactive)
REMARK    1  A    between atoms: C_3  and  C_6
REMARK    2  A    between atoms: N_4  and  C_12
REMARK                            x       y       z     vdW  Elec       q    Type
REMARK                         _______ _______ _______ _____ _____    ______ ____
ROOT
ATOM      1  C   UNL     1      10.183  -0.835   6.244  0.00  0.00    +0.017 C 
ATOM      2  C   UNL     1       8.704  -0.549   5.875  0.00  0.00    +0.025 C 
ATOM      3  C   UNL     1       8.726  -0.546   4.331  0.00  0.00    +0.088 C 
ATOM      4  N   UNL     1      10.112  -0.267   3.915  0.00  0.00    -0.298 NA
ATOM      5  C   UNL     1      10.938  -0.074   5.126  0.00  0.00    +0.085 C 
ATOM      6  C   UNL     1      10.641  -1.356   3.084  0.00  0.00    +0.105 C 
ENDROOT
BRANCH   3   7
ATOM      7  C   UNL     1       7.806   0.527   3.808  0.00  0.00    -0.012 A 
ATOM      8  C   UNL     1       7.193   0.383   2.578  0.00  0.00    +0.115 A 
ATOM      9  N   UNL     1       6.387   1.318   2.112  0.00  0.00    -0.263 NA
ATOM     10  C   UNL     1       6.134   2.417   2.794  0.00  0.00    +0.111 A 
ATOM     11  C   UNL     1       6.710   2.630   4.033  0.00  0.00    +0.020 A 
ATOM     12  C   UNL     1       7.559   1.668   4.557  0.00  0.00    +0.008 A 
ENDBRANCH   3   7
TORSDOF 1
ENDMDL
MODEL 4
REMARK VINA RESULT:    -2.062      1.563      2.018
REMARK INTER + INTRA:          -2.437
REMARK INTER:                  -2.223
REMARK INTRA:                  -0.214
REMARK UNBOUND:                -0.255
REMARK  Name = Nicotine.pdb
REMARK  2 active torsions:
REMARK  status: ('A' for Active; 'I' for Inactive)
REMARK    1  A    between atoms: C_3  and  C_6
REMARK    2  A    between atoms: N_4  and  C_12
REMARK                            x       y       z     vdW  Elec       q    Type
REMARK                         _______ _______ _______ _____ _____    ______ ____
ROOT
ATOM      1  C   UNL     1       5.821   2.483   2.703  0.00  0.00    +0.017 C 
ATOM      2  C   UNL     1       6.250   1.085   3.223  0.00  0.00    +0.025 C 
ATOM      3  C   UNL     1       7.189   1.427   4.400  0.00  0.00    +0.088 C 
ATOM      4  N   UNL     1       7.683   2.798   4.182  0.00  0.00    -0.298 NA
ATOM      5  C   UNL     1       7.115   3.307   2.915  0.00  0.00    +0.085 C 
ATOM      6  C   UNL     1       7.328   3.672   5.308  0.00  0.00    +0.105 C 
ENDROOT
BRANCH   3   7
ATOM      7  C   UNL     1       8.345   0.462   4.430  0.00  0.00    -0.012 A 
ATOM      8  C   UNL     1       8.830  -0.086   3.257  0.00  0.00    +0.115 A 
ATOM      9  N   UNL     1       9.842  -0.931   3.275  0.00  0.00    -0.263 NA
ATOM     10  C   UNL     1      10.429  -1.286   4.400  0.00  0.00    +0.111 A 
ATOM     11  C   UNL     1      10.000  -0.779   5.613  0.00  0.00    +0.020 A 
ATOM     12  C   UNL     1       8.942   0.116   5.633  0.00  0.00    +0.008 A 
ENDBRANCH   3   7
TORSDOF 1
ENDMDL
