MODEL 1
REMARK VINA RESULT:    -3.333      0.000      0.000
REMARK INTER + INTRA:          -3.783
REMARK INTER:                  -3.527
REMARK INTRA:                  -0.255
REMARK UNBOUND:                -0.255
REMARK  Name = Nicotine.pdb
REMARK  2 active torsions:
REMARK  status: ('A' for Active; 'I' for Inactive)
REMARK    1  A    between atoms: C_3  and  C_6
REMARK    2  A    between atoms: N_4  and  C_12
REMARK                            x       y       z     vdW  Elec       q    Type
REMARK                         _______ _______ _______ _____ _____    ______ ____
ROOT
ATOM      1  C   UNL     1      -3.418   6.282  -2.214  0.00  0.00    +0.017 C 
ATOM      2  C   UNL     1      -2.684   5.029  -2.759  0.00  0.00    +0.025 C 
ATOM      3  C   UNL     1      -3.041   5.043  -4.261  0.00  0.00    +0.088 C 
ATOM      4  N   UNL     1      -4.276   5.834  -4.409  0.00  0.00    -0.298 NA
ATOM      5  C   UNL     1      -4.710   6.285  -3.069  0.00  0.00    +0.085 C 
ATOM      6  C   UNL     1      -4.066   6.977  -5.307  0.00  0.00    +0.105 C 
ENDROOT
BRANCH   3   7
ATOM      7  C   UNL     1      -3.271   3.636  -4.747  0.00  0.00    -0.012 A 
ATOM      8  C   UNL     1      -3.042   3.307  -6.070  0.00  0.00    +0.115 A 
ATOM      9  N   UNL     1      -3.240   2.077  -6.503  0.00  0.00    -0.263 NA
ATOM     10  C   UNL     1      -3.661   1.119  -5.702  0.00  0.00    +0.111 A 
ATOM     11  C   UNL     1      -3.911   1.373  -4.366  0.00  0.00    +0.020 A 
ATOM     12  C   UNL     1      -3.709   2.653  -3.873  0.00  0.00    +0.008 A 
ENDBRANCH   3   7
TORSDOF 1
ENDMDL
MODEL 2
REMARK VINA RESULT:    -3.192      1.458      4.481
REMARK INTER + INTRA:          -3.634
REMARK INTER:                  -3.415
REMARK INTRA:                  -0.218
REMARK UNBOUND:                -0.255
REMARK  Name = Nicotine.pdb
REMARK  2 active torsions:
REMARK  status: ('A' for Active; 'I' for Inactive)
REMARK    1  A    between atoms: C_3  and  C_6
REMARK    2  A    between atoms: N_4  and  C_12
REMARK                            x       y       z     vdW  Elec       q    Type
REMARK                         _______ _______ _______ _____ _____    ______ ____
ROOT
ATOM      1  C   UNL     1      -3.897  -0.315  -4.883  0.00  0.00    +0.017 C 
ATOM      2  C   UNL     1      -3.943   0.965  -4.009  0.00  0.00    +0.025 C 
ATOM      3  C   UNL     1      -4.348   2.061  -5.018  0.00  0.00    +0.088 C 
ATOM      4  N   UNL     1      -3.988   1.571  -6.362  0.00  0.00    -0.298 NA
ATOM      5  C   UNL     1      -3.359   0.241  -6.225  0.00  0.00    +0.085 C 
ATOM      6  C   UNL     1      -5.168   1.510  -7.233  0.00  0.00    +0.105 C 
ENDROOT
BRANCH   3   7
ATOM      7  C   UNL     1      -3.602   3.335  -4.719  0.00  0.00    -0.012 A 
ATOM      8  C   UNL     1      -3.036   4.071  -5.743  0.00  0.00    +0.115 A 
ATOM      9  N   UNL     1      -2.382   5.188  -5.489  0.00  0.00    -0.263 NA
ATOM     10  C   UNL     1      -2.241   5.645  -4.261  0.00  0.00    +0.111 A 
ATOM     11  C   UNL     1      -2.781   4.963  -3.186  0.00  0.00    +0.020 A 
ATOM     12  C   UNL     1      -3.480   3.788  -3.414  0.00  0.00    +0.008 A 
ENDBRANCH   3   7
TORSDOF 1
ENDMDL
MODEL 3
REMARK VINA RESULT:    -3.182     13.096     14.190
REMARK INTER + INTRA:          -3.624
REMARK INTER:                  -3.369
REMARK INTRA:                  -0.254
REMARK UNBOUND:                -0.255
REMARK  Name = Nicotine.pdb
REMARK  2 active torsions:
REMARK  status: ('A' for Active; 'I' for Inactive)
REMARK    1  A    between atoms: C_3  and  C_6
REMARK    2  A    between atoms: N_4  and  C_12
REMARK                            x       y       z     vdW  Elec       q    Type
REMARK                         _______ _______ _______ _____ _____    ______ ____
ROOT
ATOM      1  C   UNL     1       8.005  -2.045  -1.198  0.00  0.00    +0.017 C 
ATOM      2  C   UNL     1       7.869  -0.559  -1.623  0.00  0.00    +0.025 C 
ATOM      3  C   UNL     1       8.463  -0.550  -3.048  0.00  0.00    +0.088 C 
ATOM      4  N   UNL     1       9.346  -1.725  -3.161  0.00  0.00    -0.298 NA
ATOM      5  C   UNL     1       9.345  -2.441  -1.868  0.00  0.00    +0.085 C 
ATOM      6  C   UNL     1       8.913  -2.607  -4.253  0.00  0.00    +0.105 C 
ENDROOT
BRANCH   3   7
ATOM      7  C   UNL     1       9.255   0.712  -3.266  0.00  0.00    -0.012 A 
ATOM      8  C   UNL     1       9.326   1.286  -4.521  0.00  0.00    +0.115 A 
ATOM      9  N   UNL     1      10.017   2.391  -4.720  0.00  0.00    -0.263 NA
ATOM     10  C   UNL     1      10.665   2.989  -3.740  0.00  0.00    +0.111 A 
ATOM     11  C   UNL     1      10.640   2.474  -2.457  0.00  0.00    +0.020 A 
ATOM     12  C   UNL     1       9.919   1.316  -2.209  0.00  0.00    +0.008 A 
ENDBRANCH   3   7
TORSDOF 1
ENDMDL
MODEL 4
REMARK VINA RESULT:    -2.996     13.667     14.487
REMARK INTER + INTRA:          -3.426
REMARK INTER:                  -3.170
REMARK INTRA:                  -0.256
REMARK UNBOUND:                -0.255
REMARK  Name = Nicotine.pdb
REMARK  2 active torsions:
REMARK  status: ('A' for Active; 'I' for Inactive)
REMARK    1  A    between atoms: C_3  and  C_6
REMARK    2  A    between atoms: N_4  and  C_12
REMARK                            x       y       z     vdW  Elec       q    Type
REMARK                         _______ _______ _______ _____ _____    ______ ____
ROOT
ATOM      1  C   UNL     1       7.652   0.004  -1.867  0.00  0.00    +0.017 C 
ATOM      2  C   UNL     1       7.668  -1.419  -1.251  0.00  0.00    +0.025 C 
ATOM      3  C   UNL     1       9.032  -1.979  -1.708  0.00  0.00    +0.088 C 
ATOM      4  N   UNL     1       9.442  -1.214  -2.899  0.00  0.00    -0.298 NA
ATOM      5  C   UNL     1       8.386  -0.228  -3.212  0.00  0.00    +0.085 C 
ATOM      6  C   UNL     1      10.734  -0.550  -2.680  0.00  0.00    +0.105 C 
ENDROOT
BRANCH   3   7
ATOM      7  C   UNL     1       8.897  -3.439  -2.057  0.00  0.00    -0.012 A 
ATOM      8  C   UNL     1       9.990  -4.281  -1.978  0.00  0.00    +0.115 A 
ATOM      9  N   UNL     1       9.879  -5.560  -2.282  0.00  0.00    -0.263 NA
ATOM     10  C   UNL     1       8.733  -6.084  -2.669  0.00  0.00    +0.111 A 
ATOM     11  C   UNL     1       7.597  -5.303  -2.771  0.00  0.00    +0.020 A 
ATOM     12  C   UNL     1       7.673  -3.955  -2.455  0.00  0.00    +0.008 A 
ENDBRANCH   3   7
TORSDOF 1
ENDMDL
MODEL 5
REMARK VINA RESULT:    -2.974     13.253     14.678
REMARK INTER + INTRA:          -3.403
REMARK INTER:                  -3.210
REMARK INTRA:                  -0.193
REMARK UNBOUND:                -0.255
REMARK  Name = Nicotine.pdb
REMARK  2 active torsions:
REMARK  status: ('A' for Active; 'I' for Inactive)
REMARK    1  A    between atoms: C_3  and  C_6
REMARK    2  A    between atoms: N_4  and  C_12
REMARK                            x       y       z     vdW  Elec       q    Type
REMARK                         _______ _______ _______ _____ _____    ______ ____
ROOT
ATOM      1  C   UNL     1       7.021  -5.944  -2.004  0.00  0.00    +0.017 C 
ATOM      2  C   UNL     1       6.981  -4.637  -2.839  0.00  0.00    +0.025 C 
ATOM      3  C   UNL     1       8.384  -4.035  -2.608  0.00  0.00    +0.088 C 
ATOM      4  N   UNL     1       8.905  -4.609  -1.354  0.00  0.00    -0.298 NA
ATOM      5  C   UNL     1       7.881  -5.514  -0.790  0.00  0.00    +0.085 C 
ATOM      6  C   UNL     1      10.168  -5.320  -1.585  0.00  0.00    +0.105 C 
ENDROOT
BRANCH   3   7
ATOM      7  C   UNL     1       8.284  -2.536  -2.485  0.00  0.00    -0.012 A 
ATOM      8  C   UNL     1       8.603  -1.724  -3.557  0.00  0.00    +0.115 A 
ATOM      9  N   UNL     1       8.519  -0.412  -3.458  0.00  0.00    -0.263 NA
ATOM     10  C   UNL     1       8.131   0.175  -2.343  0.00  0.00    +0.111 A 
ATOM     11  C   UNL     1       7.795  -0.572  -1.230  0.00  0.00    +0.020 A 
ATOM     12  C   UNL     1       7.867  -1.955  -1.298  0.00  0.00    +0.008 A 
ENDBRANCH   3   7
TORSDOF 1
ENDMDL
MODEL 6
REMARK VINA RESULT:    -2.963     13.666     14.452
REMARK INTER + INTRA:          -3.391
REMARK INTER:                  -3.182
REMARK INTRA:                  -0.209
REMARK UNBOUND:                -0.255
REMARK  Name = Nicotine.pdb
REMARK  2 active torsions:
REMARK  status: ('A' for Active; 'I' for Inactive)
REMARK    1  A    between atoms: C_3  and  C_6
REMARK    2  A    between atoms: N_4  and  C_12
REMARK                            x       y       z     vdW  Elec       q    Type
REMARK                         _______ _______ _______ _____ _____    ______ ____
ROOT
ATOM      1  C   UNL     1       8.923   0.274  -3.671  0.00  0.00    +0.017 C 
ATOM      2  C   UNL     1       9.012  -1.258  -3.897  0.00  0.00    +0.025 C 
ATOM      3  C   UNL     1       8.189  -1.830  -2.723  0.00  0.00    +0.088 C 
ATOM      4  N   UNL     1       8.160  -0.802  -1.668  0.00  0.00    -0.298 NA
ATOM      5  C   UNL     1       8.946   0.364  -2.125  0.00  0.00    +0.085 C 
ATOM      6  C   UNL     1       6.780  -0.415  -1.347  0.00  0.00    +0.105 C 
ENDROOT
BRANCH   3   7
ATOM      7  C   UNL     1       8.843  -3.084  -2.202  0.00  0.00    -0.012 A 
ATOM      8  C   UNL     1      10.219  -3.163  -2.098  0.00  0.00    +0.115 A 
ATOM      9  N   UNL     1      10.799  -4.257  -1.643  0.00  0.00    -0.263 NA
ATOM     10  C   UNL     1      10.098  -5.309  -1.271  0.00  0.00    +0.111 A 
ATOM     11  C   UNL     1       8.718  -5.303  -1.345  0.00  0.00    +0.020 A 
ATOM     12  C   UNL     1       8.072  -4.169  -1.814  0.00  0.00    +0.008 A 
ENDBRANCH   3   7
TORSDOF 1
ENDMDL
MODEL 7
REMARK VINA RESULT:    -2.787      1.434      2.126
REMARK INTER + INTRA:          -3.205
REMARK INTER:                  -2.993
REMARK INTRA:                  -0.212
REMARK UNBOUND:                -0.255
REMARK  Name = Nicotine.pdb
REMARK  2 active torsions:
REMARK  status: ('A' for Active; 'I' for Inactive)
REMARK    1  A    between atoms: C_3  and  C_6
REMARK    2  A    between atoms: N_4  and  C_12
REMARK                            x       y       z     vdW  Elec       q    Type
REMARK                         _______ _______ _______ _____ _____    ______ ____
ROOT
ATOM      1  C   UNL     1      -5.143   5.820  -3.852  0.00  0.00    +0.017 C 
ATOM      2  C   UNL     1      -4.972   4.301  -3.587  0.00  0.00    +0.025 C 
ATOM      3  C   UNL     1      -3.550   4.015  -4.114  0.00  0.00    +0.088 C 
ATOM      4  N   UNL     1      -3.217   5.081  -5.075  0.00  0.00    -0.298 NA
ATOM      5  C   UNL     1      -4.375   5.994  -5.186  0.00  0.00    +0.085 C 
ATOM      6  C   UNL     1      -2.011   5.808  -4.660  0.00  0.00    +0.105 C 
ENDROOT
BRANCH   3   7
ATOM      7  C   UNL     1      -3.517   2.674  -4.801  0.00  0.00    -0.012 A 
ATOM      8  C   UNL     1      -3.903   1.533  -4.124  0.00  0.00    +0.115 A 
ATOM      9  N   UNL     1      -3.878   0.355  -4.718  0.00  0.00    -0.263 NA
ATOM     10  C   UNL     1      -3.486   0.219  -5.969  0.00  0.00    +0.111 A 
ATOM     11  C   UNL     1      -3.086   1.316  -6.709  0.00  0.00    +0.020 A 
ATOM     12  C   UNL     1      -3.104   2.571  -6.120  0.00  0.00    +0.008 A 
ENDBRANCH   3   7
TORSDOF 1
ENDMDL
MODEL 8
REMARK VINA RESULT:    -2.602     13.174     14.720
REMARK INTER + INTRA:          -3.009
REMARK INTER:                  -2.756
REMARK INTRA:                  -0.253
REMARK UNBOUND:                -0.255
REMARK  Name = Nicotine.pdb
REMARK  2 active torsions:
REMARK  status: ('A' for Active; 'I' for Inactive)
REMARK    1  A    between atoms: C_3  and  C_6
REMARK    2  A    between atoms: N_4  and  C_12
REMARK                            x       y       z     vdW  Elec       q    Type
REMARK                         _______ _______ _______ _____ _____    ______ ____
ROOT
ATOM      1  C   UNL     1       9.300  -5.565  -4.404  0.00  0.00    +0.017 C 
ATOM      2  C   UNL     1       9.787  -4.331  -3.600  0.00  0.00    +0.025 C 
ATOM      3  C   UNL     1       8.636  -4.092  -2.600  0.00  0.00    +0.088 C 
ATOM      4  N   UNL     1       7.428  -4.718  -3.167  0.00  0.00    -0.298 NA
ATOM      5  C   UNL     1       7.774  -5.308  -4.478  0.00  0.00    +0.085 C 
ATOM      6  C   UNL     1       6.885  -5.735  -2.258  0.00  0.00    +0.105 C 
ENDROOT
BRANCH   3   7
ATOM      7  C   UNL     1       8.412  -2.613  -2.421  0.00  0.00    -0.012 A 
ATOM      8  C   UNL     1       8.034  -2.107  -1.191  0.00  0.00    +0.115 A 
ATOM      9  N   UNL     1       7.837  -0.814  -1.025  0.00  0.00    -0.263 NA
ATOM     10  C   UNL     1       7.989   0.043  -2.016  0.00  0.00    +0.111 A 
ATOM     11  C   UNL     1       8.366  -0.389  -3.273  0.00  0.00    +0.020 A 
ATOM     12  C   UNL     1       8.588  -1.741  -3.484  0.00  0.00    +0.008 A 
ENDBRANCH   3   7
TORSDOF 1
ENDMDL
MODEL 9
REMARK VINA RESULT:    -2.522     13.322     13.885
REMARK INTER + INTRA:          -2.925
REMARK INTER:                  -2.709
REMARK INTRA:                  -0.216
REMARK UNBOUND:                -0.255
REMARK  Name = Nicotine.pdb
REMARK  2 active torsions:
REMARK  status: ('A' for Active; 'I' for Inactive)
REMARK    1  A    between atoms: C_3  and  C_6
REMARK    2  A    between atoms: N_4  and  C_12
REMARK                            x       y       z     vdW  Elec       q    Type
REMARK                         _______ _______ _______ _____ _____    ______ ____
ROOT
ATOM      1  C   UNL     1       8.473  -1.000  -1.687  0.00  0.00    +0.017 C 
ATOM      2  C   UNL     1       8.045  -2.491  -1.631  0.00  0.00    +0.025 C 
ATOM      3  C   UNL     1       8.718  -3.092  -2.883  0.00  0.00    +0.088 C 
ATOM      4  N   UNL     1       8.975  -1.982  -3.818  0.00  0.00    -0.298 NA
ATOM      5  C   UNL     1       8.469  -0.731  -3.213  0.00  0.00    +0.085 C 
ATOM      6  C   UNL     1      10.406  -1.876  -4.130  0.00  0.00    +0.105 C 
ENDROOT
BRANCH   3   7
ATOM      7  C   UNL     1       7.800  -4.102  -3.524  0.00  0.00    -0.012 A 
ATOM      8  C   UNL     1       7.914  -4.394  -4.869  0.00  0.00    +0.115 A 
ATOM      9  N   UNL     1       7.115  -5.277  -5.438  0.00  0.00    -0.263 NA
ATOM     10  C   UNL     1       6.183  -5.910  -4.753  0.00  0.00    +0.111 A 
ATOM     11  C   UNL     1       6.011  -5.669  -3.403  0.00  0.00    +0.020 A 
ATOM     12  C   UNL     1       6.836  -4.752  -2.770  0.00  0.00    +0.008 A 
ENDBRANCH   3   7
TORSDOF 1
ENDMDL
