MODEL 1
REMARK VINA RESULT:    -1.457      0.000      0.000
REMARK INTER + INTRA:          -1.794
REMARK INTER:                  -1.542
REMARK INTRA:                  -0.252
REMARK UNBOUND:                -0.252
REMARK  Name = Nicotine.pdb
REMARK  2 active torsions:
REMARK  status: ('A' for Active; 'I' for Inactive)
REMARK    1  A    between atoms: C_3  and  C_6
REMARK    2  A    between atoms: N_4  and  C_12
REMARK                            x       y       z     vdW  Elec       q    Type
REMARK                         _______ _______ _______ _____ _____    ______ ____
ROOT
ATOM      1  C   UNL     1       0.497   4.348  -5.628  0.00  0.00    +0.017 C 
ATOM      2  C   UNL     1       1.890   3.989  -5.047  0.00  0.00    +0.025 C 
ATOM      3  C   UNL     1       2.818   5.040  -5.693  0.00  0.00    +0.088 C 
ATOM      4  N   UNL     1       2.147   5.523  -6.914  0.00  0.00    -0.298 NA
ATOM      5  C   UNL     1       0.865   4.802  -7.063  0.00  0.00    +0.085 C 
ATOM      6  C   UNL     1       1.933   6.975  -6.858  0.00  0.00    +0.105 C 
ENDROOT
BRANCH   3   7
ATOM      7  C   UNL     1       4.139   4.408  -6.049  0.00  0.00    -0.012 A 
ATOM      8  C   UNL     1       5.203   5.193  -6.450  0.00  0.00    +0.115 A 
ATOM      9  N   UNL     1       6.363   4.648  -6.763  0.00  0.00    -0.263 NA
ATOM     10  C   UNL     1       6.554   3.345  -6.706  0.00  0.00    +0.111 A 
ATOM     11  C   UNL     1       5.536   2.497  -6.313  0.00  0.00    +0.020 A 
ATOM     12  C   UNL     1       4.304   3.034  -5.972  0.00  0.00    +0.008 A 
ENDBRANCH   3   7
TORSDOF 1
ENDMDL
MODEL 2
REMARK VINA RESULT:    -1.218      1.899      3.963
REMARK INTER + INTRA:          -1.542
REMARK INTER:                  -1.345
REMARK INTRA:                  -0.196
REMARK UNBOUND:                -0.252
REMARK  Name = Nicotine.pdb
REMARK  2 active torsions:
REMARK  status: ('A' for Active; 'I' for Inactive)
REMARK    1  A    between atoms: C_3  and  C_6
REMARK    2  A    between atoms: N_4  and  C_12
REMARK                            x       y       z     vdW  Elec       q    Type
REMARK                         _______ _______ _______ _____ _____    ______ ____
ROOT
ATOM      1  C   UNL     1       5.078   0.520  -7.105  0.00  0.00    +0.017 C 
ATOM      2  C   UNL     1       5.727   1.902  -6.828  0.00  0.00    +0.025 C 
ATOM      3  C   UNL     1       4.781   2.525  -5.779  0.00  0.00    +0.088 C 
ATOM      4  N   UNL     1       3.478   1.847  -5.908  0.00  0.00    -0.298 NA
ATOM      5  C   UNL     1       3.570   0.856  -7.001  0.00  0.00    +0.085 C 
ATOM      6  C   UNL     1       3.091   1.206  -4.645  0.00  0.00    +0.105 C 
ENDROOT
BRANCH   3   7
ATOM      7  C   UNL     1       4.622   4.000  -6.045  0.00  0.00    -0.012 A 
ATOM      8  C   UNL     1       5.717   4.771  -6.386  0.00  0.00    +0.115 A 
ATOM      9  N   UNL     1       5.586   6.062  -6.620  0.00  0.00    -0.263 NA
ATOM     10  C   UNL     1       4.417   6.666  -6.539  0.00  0.00    +0.111 A 
ATOM     11  C   UNL     1       3.277   5.960  -6.204  0.00  0.00    +0.020 A 
ATOM     12  C   UNL     1       3.375   4.599  -5.956  0.00  0.00    +0.008 A 
ENDBRANCH   3   7
TORSDOF 1
ENDMDL
MODEL 3
REMARK VINA RESULT:    -1.215      1.602      2.088
REMARK INTER + INTRA:          -1.538
REMARK INTER:                  -1.289
REMARK INTRA:                  -0.249
REMARK UNBOUND:                -0.252
REMARK  Name = Nicotine.pdb
REMARK  2 active torsions:
REMARK  status: ('A' for Active; 'I' for Inactive)
REMARK    1  A    between atoms: C_3  and  C_6
REMARK    2  A    between atoms: N_4  and  C_12
REMARK                            x       y       z     vdW  Elec       q    Type
REMARK                         _______ _______ _______ _____ _____    ______ ____
ROOT
ATOM      1  C   UNL     1       2.781   5.125  -4.609  0.00  0.00    +0.017 C 
ATOM      2  C   UNL     1       4.071   4.282  -4.431  0.00  0.00    +0.025 C 
ATOM      3  C   UNL     1       4.999   4.829  -5.536  0.00  0.00    +0.088 C 
ATOM      4  N   UNL     1       4.140   5.454  -6.558  0.00  0.00    -0.298 NA
ATOM      5  C   UNL     1       2.729   5.295  -6.148  0.00  0.00    +0.085 C 
ATOM      6  C   UNL     1       4.481   6.871  -6.738  0.00  0.00    +0.105 C 
ENDROOT
BRANCH   3   7
ATOM      7  C   UNL     1       5.789   3.701  -6.148  0.00  0.00    -0.012 A 
ATOM      8  C   UNL     1       7.115   3.882  -6.490  0.00  0.00    +0.115 A 
ATOM      9  N   UNL     1       7.814   2.900  -7.026  0.00  0.00    -0.263 NA
ATOM     10  C   UNL     1       7.281   1.716  -7.256  0.00  0.00    +0.111 A 
ATOM     11  C   UNL     1       5.960   1.461  -6.939  0.00  0.00    +0.020 A 
ATOM     12  C   UNL     1       5.196   2.468  -6.369  0.00  0.00    +0.008 A 
ENDBRANCH   3   7
TORSDOF 1
ENDMDL
MODEL 4
REMARK VINA RESULT:    -1.197      3.084      5.906
REMARK INTER + INTRA:          -1.519
REMARK INTER:                  -1.265
REMARK INTRA:                  -0.254
REMARK UNBOUND:                -0.252
REMARK  Name = Nicotine.pdb
REMARK  2 active torsions:
REMARK  status: ('A' for Active; 'I' for Inactive)
REMARK    1  A    between atoms: C_3  and  C_6
REMARK    2  A    between atoms: N_4  and  C_12
REMARK                            x       y       z     vdW  Elec       q    Type
REMARK                         _______ _______ _______ _____ _____    ______ ____
ROOT
ATOM      1  C   UNL     1       9.791   3.009  -4.437  0.00  0.00    +0.017 C 
ATOM      2  C   UNL     1       8.510   3.819  -4.107  0.00  0.00    +0.025 C 
ATOM      3  C   UNL     1       7.563   3.463  -5.273  0.00  0.00    +0.088 C 
ATOM      4  N   UNL     1       8.404   3.008  -6.395  0.00  0.00    -0.298 NA
ATOM      5  C   UNL     1       9.822   3.090  -5.984  0.00  0.00    +0.085 C 
ATOM      6  C   UNL     1       8.051   1.640  -6.797  0.00  0.00    +0.105 C 
ENDROOT
BRANCH   3   7
ATOM      7  C   UNL     1       6.774   4.679  -5.683  0.00  0.00    -0.012 A 
ATOM      8  C   UNL     1       5.684   4.555  -6.523  0.00  0.00    +0.115 A 
ATOM      9  N   UNL     1       4.988   5.615  -6.886  0.00  0.00    -0.263 NA
ATOM     10  C   UNL     1       5.300   6.826  -6.468  0.00  0.00    +0.111 A 
ATOM     11  C   UNL     1       6.377   7.028  -5.625  0.00  0.00    +0.020 A 
ATOM     12  C   UNL     1       7.129   5.937  -5.217  0.00  0.00    +0.008 A 
ENDBRANCH   3   7
TORSDOF 1
ENDMDL
MODEL 5
REMARK VINA RESULT:    -1.139      2.996      6.157
REMARK INTER + INTRA:          -1.458
REMARK INTER:                  -1.202
REMARK INTRA:                  -0.256
REMARK UNBOUND:                -0.252
REMARK  Name = Nicotine.pdb
REMARK  2 active torsions:
REMARK  status: ('A' for Active; 'I' for Inactive)
REMARK    1  A    between atoms: C_3  and  C_6
REMARK    2  A    between atoms: N_4  and  C_12
REMARK                            x       y       z     vdW  Elec       q    Type
REMARK                         _______ _______ _______ _____ _____    ______ ____
ROOT
ATOM      1  C   UNL     1       6.945  -1.761  -6.538  0.00  0.00    +0.017 C 
ATOM      2  C   UNL     1       6.228  -0.568  -7.223  0.00  0.00    +0.025 C 
ATOM      3  C   UNL     1       7.309   0.534  -7.221  0.00  0.00    +0.088 C 
ATOM      4  N   UNL     1       8.270   0.201  -6.154  0.00  0.00    -0.298 NA
ATOM      5  C   UNL     1       7.819  -1.037  -5.484  0.00  0.00    +0.085 C 
ATOM      6  C   UNL     1       9.626   0.043  -6.696  0.00  0.00    +0.105 C 
ENDROOT
BRANCH   3   7
ATOM      7  C   UNL     1       6.676   1.873  -6.943  0.00  0.00    -0.012 A 
ATOM      8  C   UNL     1       7.346   3.041  -7.255  0.00  0.00    +0.115 A 
ATOM      9  N   UNL     1       6.799   4.217  -7.015  0.00  0.00    -0.263 NA
ATOM     10  C   UNL     1       5.602   4.327  -6.474  0.00  0.00    +0.111 A 
ATOM     11  C   UNL     1       4.872   3.203  -6.136  0.00  0.00    +0.020 A 
ATOM     12  C   UNL     1       5.412   1.949  -6.378  0.00  0.00    +0.008 A 
ENDBRANCH   3   7
TORSDOF 1
ENDMDL
MODEL 6
REMARK VINA RESULT:    -1.137      1.755      5.202
REMARK INTER + INTRA:          -1.456
REMARK INTER:                  -1.200
REMARK INTRA:                  -0.256
REMARK UNBOUND:                -0.252
REMARK  Name = Nicotine.pdb
REMARK  2 active torsions:
REMARK  status: ('A' for Active; 'I' for Inactive)
REMARK    1  A    between atoms: C_3  and  C_6
REMARK    2  A    between atoms: N_4  and  C_12
REMARK                            x       y       z     vdW  Elec       q    Type
REMARK                         _______ _______ _______ _____ _____    ______ ____
ROOT
ATOM      1  C   UNL     1       8.569   1.583  -6.522  0.00  0.00    +0.017 C 
ATOM      2  C   UNL     1       7.249   2.039  -7.198  0.00  0.00    +0.025 C 
ATOM      3  C   UNL     1       7.138   3.520  -6.779  0.00  0.00    +0.088 C 
ATOM      4  N   UNL     1       7.950   3.692  -5.561  0.00  0.00    -0.298 NA
ATOM      5  C   UNL     1       8.534   2.384  -5.196  0.00  0.00    +0.085 C 
ATOM      6  C   UNL     1       9.000   4.699  -5.765  0.00  0.00    +0.105 C 
ENDROOT
BRANCH   3   7
ATOM      7  C   UNL     1       5.700   3.865  -6.491  0.00  0.00    -0.012 A 
ATOM      8  C   UNL     1       5.258   5.170  -6.603  0.00  0.00    +0.115 A 
ATOM      9  N   UNL     1       4.001   5.481  -6.353  0.00  0.00    -0.263 NA
ATOM     10  C   UNL     1       3.122   4.569  -5.988  0.00  0.00    +0.111 A 
ATOM     11  C   UNL     1       3.490   3.243  -5.854  0.00  0.00    +0.020 A 
ATOM     12  C   UNL     1       4.802   2.878  -6.114  0.00  0.00    +0.008 A 
ENDBRANCH   3   7
TORSDOF 1
ENDMDL
MODEL 7
REMARK VINA RESULT:    -1.111      1.827      3.963
REMARK INTER + INTRA:          -1.428
REMARK INTER:                  -1.251
REMARK INTRA:                  -0.177
REMARK UNBOUND:                -0.252
REMARK  Name = Nicotine.pdb
REMARK  2 active torsions:
REMARK  status: ('A' for Active; 'I' for Inactive)
REMARK    1  A    between atoms: C_3  and  C_6
REMARK    2  A    between atoms: N_4  and  C_12
REMARK                            x       y       z     vdW  Elec       q    Type
REMARK                         _______ _______ _______ _____ _____    ______ ____
ROOT
ATOM      1  C   UNL     1       4.915   1.804  -3.614  0.00  0.00    +0.017 C 
ATOM      2  C   UNL     1       4.204   3.175  -3.756  0.00  0.00    +0.025 C 
ATOM      3  C   UNL     1       3.736   3.174  -5.227  0.00  0.00    +0.088 C 
ATOM      4  N   UNL     1       4.586   2.215  -5.955  0.00  0.00    -0.298 NA
ATOM      5  C   UNL     1       5.570   1.646  -5.009  0.00  0.00    +0.085 C 
ATOM      6  C   UNL     1       3.777   1.157  -6.573  0.00  0.00    +0.105 C 
ENDROOT
BRANCH   3   7
ATOM      7  C   UNL     1       3.894   4.551  -5.816  0.00  0.00    -0.012 A 
ATOM      8  C   UNL     1       5.069   4.911  -6.447  0.00  0.00    +0.115 A 
ATOM      9  N   UNL     1       5.216   6.115  -6.966  0.00  0.00    -0.263 NA
ATOM     10  C   UNL     1       4.256   7.017  -6.905  0.00  0.00    +0.111 A 
ATOM     11  C   UNL     1       3.052   6.729  -6.291  0.00  0.00    +0.020 A 
ATOM     12  C   UNL     1       2.860   5.472  -5.738  0.00  0.00    +0.008 A 
ENDBRANCH   3   7
TORSDOF 1
ENDMDL
MODEL 8
REMARK VINA RESULT:    -1.103      2.358      4.878
REMARK INTER + INTRA:          -1.420
REMARK INTER:                  -1.168
REMARK INTRA:                  -0.251
REMARK UNBOUND:                -0.252
REMARK  Name = Nicotine.pdb
REMARK  2 active torsions:
REMARK  status: ('A' for Active; 'I' for Inactive)
REMARK    1  A    between atoms: C_3  and  C_6
REMARK    2  A    between atoms: N_4  and  C_12
REMARK                            x       y       z     vdW  Elec       q    Type
REMARK                         _______ _______ _______ _____ _____    ______ ____
ROOT
ATOM      1  C   UNL     1       4.138  -0.946  -6.200  0.00  0.00    +0.017 C 
ATOM      2  C   UNL     1       4.197   0.358  -7.038  0.00  0.00    +0.025 C 
ATOM      3  C   UNL     1       5.556   0.969  -6.636  0.00  0.00    +0.088 C 
ATOM      4  N   UNL     1       5.919   0.402  -5.324  0.00  0.00    -0.298 NA
ATOM      5  C   UNL     1       4.837  -0.507  -4.889  0.00  0.00    +0.085 C 
ATOM      6  C   UNL     1       7.205  -0.304  -5.392  0.00  0.00    +0.105 C 
ENDROOT
BRANCH   3   7
ATOM      7  C   UNL     1       5.435   2.467  -6.533  0.00  0.00    -0.012 A 
ATOM      8  C   UNL     1       6.478   3.282  -6.933  0.00  0.00    +0.115 A 
ATOM      9  N   UNL     1       6.380   4.594  -6.847  0.00  0.00    -0.263 NA
ATOM     10  C   UNL     1       5.295   5.179  -6.379  0.00  0.00    +0.111 A 
ATOM     11  C   UNL     1       4.212   4.429  -5.960  0.00  0.00    +0.020 A 
ATOM     12  C   UNL     1       4.276   3.046  -6.041  0.00  0.00    +0.008 A 
ENDBRANCH   3   7
TORSDOF 1
ENDMDL
MODEL 9
REMARK VINA RESULT:    -1.101      2.916      4.377
REMARK INTER + INTRA:          -1.417
REMARK INTER:                  -1.163
REMARK INTRA:                  -0.254
REMARK UNBOUND:                -0.252
REMARK  Name = Nicotine.pdb
REMARK  2 active torsions:
REMARK  status: ('A' for Active; 'I' for Inactive)
REMARK    1  A    between atoms: C_3  and  C_6
REMARK    2  A    between atoms: N_4  and  C_12
REMARK                            x       y       z     vdW  Elec       q    Type
REMARK                         _______ _______ _______ _____ _____    ______ ____
ROOT
ATOM      1  C   UNL     1       5.110   4.182  -4.730  0.00  0.00    +0.017 C 
ATOM      2  C   UNL     1       6.642   4.077  -4.506  0.00  0.00    +0.025 C 
ATOM      3  C   UNL     1       7.192   5.280  -5.302  0.00  0.00    +0.088 C 
ATOM      4  N   UNL     1       6.177   5.639  -6.309  0.00  0.00    -0.298 NA
ATOM      5  C   UNL     1       5.042   4.700  -6.188  0.00  0.00    +0.085 C 
ATOM      6  C   UNL     1       5.733   7.028  -6.138  0.00  0.00    +0.105 C 
ENDROOT
BRANCH   3   7
ATOM      7  C   UNL     1       8.480   4.898  -5.983  0.00  0.00    -0.012 A 
ATOM      8  C   UNL     1       9.467   5.843  -6.193  0.00  0.00    +0.115 A 
ATOM      9  N   UNL     1      10.597   5.516  -6.789  0.00  0.00    -0.263 NA
ATOM     10  C   UNL     1      10.832   4.288  -7.205  0.00  0.00    +0.111 A 
ATOM     11  C   UNL     1       9.892   3.289  -7.029  0.00  0.00    +0.020 A 
ATOM     12  C   UNL     1       8.693   3.594  -6.402  0.00  0.00    +0.008 A 
ENDBRANCH   3   7
TORSDOF 1
ENDMDL
