MODEL 1
REMARK VINA RESULT:     2.555      0.000      0.000
REMARK INTER + INTRA:           2.515
REMARK INTER:                   2.704
REMARK INTRA:                  -0.189
REMARK UNBOUND:                -0.189
REMARK  Name = Nicotine.pdb
REMARK  2 active torsions:
REMARK  status: ('A' for Active; 'I' for Inactive)
REMARK    1  A    between atoms: C_3  and  C_6
REMARK    2  A    between atoms: N_4  and  C_12
REMARK                            x       y       z     vdW  Elec       q    Type
REMARK                         _______ _______ _______ _____ _____    ______ ____
ROOT
ATOM      1  C   UNL     1       3.056  -3.075  -7.238  0.00  0.00    +0.017 C 
ATOM      2  C   UNL     1       4.029  -3.454  -6.091  0.00  0.00    +0.025 C 
ATOM      3  C   UNL     1       3.513  -4.837  -5.640  0.00  0.00    +0.088 C 
ATOM      4  N   UNL     1       2.104  -4.936  -6.062  0.00  0.00    -0.298 NA
ATOM      5  C   UNL     1       1.721  -3.672  -6.727  0.00  0.00    +0.085 C 
ATOM      6  C   UNL     1       1.900  -6.084  -6.955  0.00  0.00    +0.105 C 
ENDROOT
BRANCH   3   7
ATOM      7  C   UNL     1       3.611  -4.958  -4.142  0.00  0.00    -0.012 A 
ATOM      8  C   UNL     1       3.035  -4.003  -3.324  0.00  0.00    +0.115 A 
ATOM      9  N   UNL     1       3.116  -4.101  -2.012  0.00  0.00    -0.263 NA
ATOM     10  C   UNL     1       3.743  -5.104  -1.429  0.00  0.00    +0.111 A 
ATOM     11  C   UNL     1       4.343  -6.096  -2.182  0.00  0.00    +0.020 A 
ATOM     12  C   UNL     1       4.274  -6.030  -3.565  0.00  0.00    +0.008 A 
ENDBRANCH   3   7
TORSDOF 1
ENDMDL
MODEL 2
REMARK VINA RESULT:     4.636      1.077      4.552
REMARK INTER + INTRA:           4.718
REMARK INTER:                   4.891
REMARK INTRA:                  -0.174
REMARK UNBOUND:                -0.189
REMARK  Name = Nicotine.pdb
REMARK  2 active torsions:
REMARK  status: ('A' for Active; 'I' for Inactive)
REMARK    1  A    between atoms: C_3  and  C_6
REMARK    2  A    between atoms: N_4  and  C_12
REMARK                            x       y       z     vdW  Elec       q    Type
REMARK                         _______ _______ _______ _____ _____    ______ ____
ROOT
ATOM      1  C   UNL     1       5.370  -6.048  -2.591  0.00  0.00    +0.017 C 
ATOM      2  C   UNL     1       5.166  -5.704  -4.090  0.00  0.00    +0.025 C 
ATOM      3  C   UNL     1       4.076  -4.612  -4.050  0.00  0.00    +0.088 C 
ATOM      4  N   UNL     1       3.352  -4.763  -2.775  0.00  0.00    -0.298 NA
ATOM      5  C   UNL     1       3.928  -5.910  -2.040  0.00  0.00    +0.085 C 
ATOM      6  C   UNL     1       3.429  -3.533  -1.976  0.00  0.00    +0.105 C 
ENDROOT
BRANCH   3   7
ATOM      7  C   UNL     1       3.125  -4.796  -5.205  0.00  0.00    -0.012 A 
ATOM      8  C   UNL     1       2.328  -5.922  -5.282  0.00  0.00    +0.115 A 
ATOM      9  N   UNL     1       1.493  -6.090  -6.289  0.00  0.00    -0.263 NA
ATOM     10  C   UNL     1       1.385  -5.200  -7.256  0.00  0.00    +0.111 A 
ATOM     11  C   UNL     1       2.150  -4.048  -7.246  0.00  0.00    +0.020 A 
ATOM     12  C   UNL     1       3.035  -3.835  -6.200  0.00  0.00    +0.008 A 
ENDBRANCH   3   7
TORSDOF 1
ENDMDL
MODEL 3
REMARK VINA RESULT:     4.945      1.441      2.116
REMARK INTER + INTRA:           5.045
REMARK INTER:                   5.281
REMARK INTRA:                  -0.235
REMARK UNBOUND:                -0.189
REMARK  Name = Nicotine.pdb
REMARK  2 active torsions:
REMARK  status: ('A' for Active; 'I' for Inactive)
REMARK    1  A    between atoms: C_3  and  C_6
REMARK    2  A    between atoms: N_4  and  C_12
REMARK                            x       y       z     vdW  Elec       q    Type
REMARK                         _______ _______ _______ _____ _____    ______ ____
ROOT
ATOM      1  C   UNL     1       2.210  -3.913  -7.251  0.00  0.00    +0.017 C 
ATOM      2  C   UNL     1       2.200  -4.916  -6.068  0.00  0.00    +0.025 C 
ATOM      3  C   UNL     1       2.539  -4.026  -4.854  0.00  0.00    +0.088 C 
ATOM      4  N   UNL     1       3.228  -2.829  -5.368  0.00  0.00    -0.298 NA
ATOM      5  C   UNL     1       3.353  -2.952  -6.836  0.00  0.00    +0.085 C 
ATOM      6  C   UNL     1       2.504  -1.605  -5.002  0.00  0.00    +0.105 C 
ENDROOT
BRANCH   3   7
ATOM      7  C   UNL     1       3.442  -4.772  -3.906  0.00  0.00    -0.012 A 
ATOM      8  C   UNL     1       3.152  -4.820  -2.556  0.00  0.00    +0.115 A 
ATOM      9  N   UNL     1       3.937  -5.471  -1.720  0.00  0.00    -0.263 NA
ATOM     10  C   UNL     1       5.021  -6.096  -2.132  0.00  0.00    +0.111 A 
ATOM     11  C   UNL     1       5.376  -6.092  -3.469  0.00  0.00    +0.020 A 
ATOM     12  C   UNL     1       4.571  -5.423  -4.378  0.00  0.00    +0.008 A 
ENDBRANCH   3   7
TORSDOF 1
ENDMDL
