MODEL 1
REMARK VINA RESULT:     3.140      0.000      0.000
REMARK INTER + INTRA:           3.106
REMARK INTER:                   3.324
REMARK INTRA:                  -0.217
REMARK UNBOUND:                -0.217
REMARK  Name = Nicotine.pdb
REMARK  2 active torsions:
REMARK  status: ('A' for Active; 'I' for Inactive)
REMARK    1  A    between atoms: C_3  and  C_6
REMARK    2  A    between atoms: N_4  and  C_12
REMARK                            x       y       z     vdW  Elec       q    Type
REMARK                         _______ _______ _______ _____ _____    ______ ____
ROOT
ATOM      1  C   UNL     1       0.101  -1.994  -3.579  0.00  0.00    +0.017 C 
ATOM      2  C   UNL     1      -1.077  -1.933  -4.587  0.00  0.00    +0.025 C 
ATOM      3  C   UNL     1      -2.316  -2.120  -3.685  0.00  0.00    +0.088 C 
ATOM      4  N   UNL     1      -1.862  -2.789  -2.452  0.00  0.00    -0.298 NA
ATOM      5  C   UNL     1      -0.410  -3.046  -2.563  0.00  0.00    +0.085 C 
ATOM      6  C   UNL     1      -2.164  -1.975  -1.268  0.00  0.00    +0.105 C 
ENDROOT
BRANCH   3   7
ATOM      7  C   UNL     1      -3.338  -2.975  -4.388  0.00  0.00    -0.012 A 
ATOM      8  C   UNL     1      -3.666  -4.223  -3.891  0.00  0.00    +0.115 A 
ATOM      9  N   UNL     1      -4.559  -4.978  -4.501  0.00  0.00    -0.263 NA
ATOM     10  C   UNL     1      -5.171  -4.579  -5.598  0.00  0.00    +0.111 A 
ATOM     11  C   UNL     1      -4.895  -3.343  -6.152  0.00  0.00    +0.020 A 
ATOM     12  C   UNL     1      -3.965  -2.519  -5.537  0.00  0.00    +0.008 A 
ENDBRANCH   3   7
TORSDOF 1
ENDMDL
MODEL 2
REMARK VINA RESULT:     3.213     10.700     13.296
REMARK INTER + INTRA:           3.184
REMARK INTER:                   3.369
REMARK INTRA:                  -0.185
REMARK UNBOUND:                -0.217
REMARK  Name = Nicotine.pdb
REMARK  2 active torsions:
REMARK  status: ('A' for Active; 'I' for Inactive)
REMARK    1  A    between atoms: C_3  and  C_6
REMARK    2  A    between atoms: N_4  and  C_12
REMARK                            x       y       z     vdW  Elec       q    Type
REMARK                         _______ _______ _______ _____ _____    ______ ____
ROOT
ATOM      1  C   UNL     1       0.234   5.664   0.123  0.00  0.00    +0.017 C 
ATOM      2  C   UNL     1       0.501   6.504   1.400  0.00  0.00    +0.025 C 
ATOM      3  C   UNL     1       1.936   7.027   1.177  0.00  0.00    +0.088 C 
ATOM      4  N   UNL     1       2.587   6.122   0.213  0.00  0.00    -0.298 NA
ATOM      5  C   UNL     1       1.632   5.052  -0.147  0.00  0.00    +0.085 C 
ATOM      6  C   UNL     1       3.034   6.853  -0.979  0.00  0.00    +0.105 C 
ENDROOT
BRANCH   3   7
ATOM      7  C   UNL     1       2.692   7.022   2.480  0.00  0.00    -0.012 A 
ATOM      8  C   UNL     1       2.012   7.006   3.683  0.00  0.00    +0.115 A 
ATOM      9  N   UNL     1       2.666   7.001   4.828  0.00  0.00    -0.263 NA
ATOM     10  C   UNL     1       3.983   7.010   4.873  0.00  0.00    +0.111 A 
ATOM     11  C   UNL     1       4.732   7.025   3.711  0.00  0.00    +0.020 A 
ATOM     12  C   UNL     1       4.079   7.026   2.488  0.00  0.00    +0.008 A 
ENDBRANCH   3   7
TORSDOF 1
ENDMDL
MODEL 3
REMARK VINA RESULT:     3.503      1.372      2.251
REMARK INTER + INTRA:           3.490
REMARK INTER:                   3.660
REMARK INTRA:                  -0.170
REMARK UNBOUND:                -0.217
REMARK  Name = Nicotine.pdb
REMARK  2 active torsions:
REMARK  status: ('A' for Active; 'I' for Inactive)
REMARK    1  A    between atoms: C_3  and  C_6
REMARK    2  A    between atoms: N_4  and  C_12
REMARK                            x       y       z     vdW  Elec       q    Type
REMARK                         _______ _______ _______ _____ _____    ______ ____
ROOT
ATOM      1  C   UNL     1      -0.973  -1.728  -1.394  0.00  0.00    +0.017 C 
ATOM      2  C   UNL     1      -2.337  -2.364  -1.772  0.00  0.00    +0.025 C 
ATOM      3  C   UNL     1      -1.951  -3.395  -2.854  0.00  0.00    +0.088 C 
ATOM      4  N   UNL     1      -0.660  -2.969  -3.422  0.00  0.00    -0.298 NA
ATOM      5  C   UNL     1      -0.245  -1.713  -2.761  0.00  0.00    +0.085 C 
ATOM      6  C   UNL     1       0.359  -4.013  -3.256  0.00  0.00    +0.105 C 
ENDROOT
BRANCH   3   7
ATOM      7  C   UNL     1      -3.003  -3.424  -3.932  0.00  0.00    -0.012 A 
ATOM      8  C   UNL     1      -3.138  -2.362  -4.806  0.00  0.00    +0.115 A 
ATOM      9  N   UNL     1      -4.056  -2.380  -5.752  0.00  0.00    -0.263 NA
ATOM     10  C   UNL     1      -4.876  -3.401  -5.904  0.00  0.00    +0.111 A 
ATOM     11  C   UNL     1      -4.800  -4.500  -5.068  0.00  0.00    +0.020 A 
ATOM     12  C   UNL     1      -3.844  -4.519  -4.064  0.00  0.00    +0.008 A 
ENDBRANCH   3   7
TORSDOF 1
ENDMDL
MODEL 4
REMARK VINA RESULT:     4.537      1.210      1.732
REMARK INTER + INTRA:           4.585
REMARK INTER:                   4.793
REMARK INTRA:                  -0.207
REMARK UNBOUND:                -0.217
REMARK  Name = Nicotine.pdb
REMARK  2 active torsions:
REMARK  status: ('A' for Active; 'I' for Inactive)
REMARK    1  A    between atoms: C_3  and  C_6
REMARK    2  A    between atoms: N_4  and  C_12
REMARK                            x       y       z     vdW  Elec       q    Type
REMARK                         _______ _______ _______ _____ _____    ______ ____
ROOT
ATOM      1  C   UNL     1       1.121  -2.541  -3.175  0.00  0.00    +0.017 C 
ATOM      2  C   UNL     1       0.009  -2.281  -4.226  0.00  0.00    +0.025 C 
ATOM      3  C   UNL     1      -1.240  -2.031  -3.355  0.00  0.00    +0.088 C 
ATOM      4  N   UNL     1      -0.991  -2.657  -2.044  0.00  0.00    -0.298 NA
ATOM      5  C   UNL     1       0.339  -3.301  -2.075  0.00  0.00    +0.085 C 
ATOM      6  C   UNL     1      -1.072  -1.666  -0.963  0.00  0.00    +0.105 C 
ENDROOT
BRANCH   3   7
ATOM      7  C   UNL     1      -2.449  -2.656  -4.001  0.00  0.00    -0.012 A 
ATOM      8  C   UNL     1      -3.037  -2.063  -5.103  0.00  0.00    +0.115 A 
ATOM      9  N   UNL     1      -4.096  -2.604  -5.675  0.00  0.00    -0.263 NA
ATOM     10  C   UNL     1      -4.632  -3.720  -5.224  0.00  0.00    +0.111 A 
ATOM     11  C   UNL     1      -4.098  -4.370  -4.127  0.00  0.00    +0.020 A 
ATOM     12  C   UNL     1      -2.982  -3.835  -3.503  0.00  0.00    +0.008 A 
ENDBRANCH   3   7
TORSDOF 1
ENDMDL
MODEL 5
REMARK VINA RESULT:     5.936      1.889      4.730
REMARK INTER + INTRA:           6.066
REMARK INTER:                   6.266
REMARK INTRA:                  -0.200
REMARK UNBOUND:                -0.217
REMARK  Name = Nicotine.pdb
REMARK  2 active torsions:
REMARK  status: ('A' for Active; 'I' for Inactive)
REMARK    1  A    between atoms: C_3  and  C_6
REMARK    2  A    between atoms: N_4  and  C_12
REMARK                            x       y       z     vdW  Elec       q    Type
REMARK                         _______ _______ _______ _____ _____    ______ ____
ROOT
ATOM      1  C   UNL     1      -3.632  -3.434  -4.500  0.00  0.00    +0.017 C 
ATOM      2  C   UNL     1      -2.438  -4.090  -3.758  0.00  0.00    +0.025 C 
ATOM      3  C   UNL     1      -1.858  -2.921  -2.933  0.00  0.00    +0.088 C 
ATOM      4  N   UNL     1      -2.288  -1.671  -3.584  0.00  0.00    -0.298 NA
ATOM      5  C   UNL     1      -3.082  -2.013  -4.783  0.00  0.00    +0.085 C 
ATOM      6  C   UNL     1      -3.063  -0.834  -2.660  0.00  0.00    +0.105 C 
ENDROOT
BRANCH   3   7
ATOM      7  C   UNL     1      -0.354  -3.002  -2.917  0.00  0.00    -0.012 A 
ATOM      8  C   UNL     1       0.297  -4.047  -3.546  0.00  0.00    +0.115 A 
ATOM      9  N   UNL     1       1.613  -4.126  -3.537  0.00  0.00    -0.263 NA
ATOM     10  C   UNL     1       2.357  -3.220  -2.934  0.00  0.00    +0.111 A 
ATOM     11  C   UNL     1       1.777  -2.146  -2.284  0.00  0.00    +0.020 A 
ATOM     12  C   UNL     1       0.396  -2.027  -2.277  0.00  0.00    +0.008 A 
ENDBRANCH   3   7
TORSDOF 1
ENDMDL
