MODEL 1
REMARK VINA RESULT:    -4.022      0.000      0.000
REMARK INTER + INTRA:          -4.503
REMARK INTER:                  -4.257
REMARK INTRA:                  -0.246
REMARK UNBOUND:                -0.246
REMARK  Name = Nicotine.pdb
REMARK  2 active torsions:
REMARK  status: ('A' for Active; 'I' for Inactive)
REMARK    1  A    between atoms: C_3  and  C_6
REMARK    2  A    between atoms: N_4  and  C_12
REMARK                            x       y       z     vdW  Elec       q    Type
REMARK                         _______ _______ _______ _____ _____    ______ ____
ROOT
ATOM      1  C   UNL     1       3.134   4.233  -0.498  0.00  0.00    +0.017 C 
ATOM      2  C   UNL     1       3.866   5.020   0.621  0.00  0.00    +0.025 C 
ATOM      3  C   UNL     1       4.606   3.910   1.398  0.00  0.00    +0.088 C 
ATOM      4  N   UNL     1       3.904   2.643   1.123  0.00  0.00    -0.298 NA
ATOM      5  C   UNL     1       2.755   2.923   0.236  0.00  0.00    +0.085 C 
ATOM      6  C   UNL     1       4.811   1.659   0.517  0.00  0.00    +0.105 C 
ENDROOT
BRANCH   3   7
ATOM      7  C   UNL     1       4.571   4.207   2.874  0.00  0.00    -0.012 A 
ATOM      8  C   UNL     1       5.255   3.403   3.766  0.00  0.00    +0.115 A 
ATOM      9  N   UNL     1       5.229   3.656   5.060  0.00  0.00    -0.263 NA
ATOM     10  C   UNL     1       4.557   4.677   5.553  0.00  0.00    +0.111 A 
ATOM     11  C   UNL     1       3.849   5.526   4.723  0.00  0.00    +0.020 A 
ATOM     12  C   UNL     1       3.857   5.294   3.356  0.00  0.00    +0.008 A 
ENDBRANCH   3   7
TORSDOF 1
ENDMDL
MODEL 2
REMARK VINA RESULT:    -3.959      1.295      4.539
REMARK INTER + INTRA:          -4.437
REMARK INTER:                  -4.233
REMARK INTRA:                  -0.204
REMARK UNBOUND:                -0.246
REMARK  Name = Nicotine.pdb
REMARK  2 active torsions:
REMARK  status: ('A' for Active; 'I' for Inactive)
REMARK    1  A    between atoms: C_3  and  C_6
REMARK    2  A    between atoms: N_4  and  C_12
REMARK                            x       y       z     vdW  Elec       q    Type
REMARK                         _______ _______ _______ _____ _____    ______ ____
ROOT
ATOM      1  C   UNL     1       5.325   4.062   6.000  0.00  0.00    +0.017 C 
ATOM      2  C   UNL     1       5.417   3.096   4.789  0.00  0.00    +0.025 C 
ATOM      3  C   UNL     1       5.535   4.056   3.587  0.00  0.00    +0.088 C 
ATOM      4  N   UNL     1       4.982   5.356   4.009  0.00  0.00    -0.298 NA
ATOM      5  C   UNL     1       4.506   5.234   5.404  0.00  0.00    +0.085 C 
ATOM      6  C   UNL     1       5.985   6.421   3.886  0.00  0.00    +0.105 C 
ENDROOT
BRANCH   3   7
ATOM      7  C   UNL     1       4.749   3.517   2.420  0.00  0.00    -0.012 A 
ATOM      8  C   UNL     1       4.905   2.204   2.019  0.00  0.00    +0.115 A 
ATOM      9  N   UNL     1       4.220   1.724   0.999  0.00  0.00    -0.263 NA
ATOM     10  C   UNL     1       3.366   2.470   0.326  0.00  0.00    +0.111 A 
ATOM     11  C   UNL     1       3.156   3.792   0.670  0.00  0.00    +0.020 A 
ATOM     12  C   UNL     1       3.855   4.330   1.740  0.00  0.00    +0.008 A 
ENDBRANCH   3   7
TORSDOF 1
ENDMDL
MODEL 3
REMARK VINA RESULT:    -3.956      1.443      4.625
REMARK INTER + INTRA:          -4.433
REMARK INTER:                  -4.177
REMARK INTRA:                  -0.256
REMARK UNBOUND:                -0.246
REMARK  Name = Nicotine.pdb
REMARK  2 active torsions:
REMARK  status: ('A' for Active; 'I' for Inactive)
REMARK    1  A    between atoms: C_3  and  C_6
REMARK    2  A    between atoms: N_4  and  C_12
REMARK                            x       y       z     vdW  Elec       q    Type
REMARK                         _______ _______ _______ _____ _____    ______ ____
ROOT
ATOM      1  C   UNL     1       4.181   7.028   5.868  0.00  0.00    +0.017 C 
ATOM      2  C   UNL     1       3.495   5.887   5.071  0.00  0.00    +0.025 C 
ATOM      3  C   UNL     1       4.621   4.841   4.923  0.00  0.00    +0.088 C 
ATOM      4  N   UNL     1       5.902   5.553   5.082  0.00  0.00    -0.298 NA
ATOM      5  C   UNL     1       5.620   6.989   5.295  0.00  0.00    +0.085 C 
ATOM      6  C   UNL     1       6.679   4.997   6.197  0.00  0.00    +0.105 C 
ENDROOT
BRANCH   3   7
ATOM      7  C   UNL     1       4.553   4.204   3.559  0.00  0.00    -0.012 A 
ATOM      8  C   UNL     1       5.131   2.969   3.335  0.00  0.00    +0.115 A 
ATOM      9  N   UNL     1       5.076   2.404   2.144  0.00  0.00    -0.263 NA
ATOM     10  C   UNL     1       4.473   2.988   1.128  0.00  0.00    +0.111 A 
ATOM     11  C   UNL     1       3.871   4.224   1.276  0.00  0.00    +0.020 A 
ATOM     12  C   UNL     1       3.905   4.846   2.515  0.00  0.00    +0.008 A 
ENDBRANCH   3   7
TORSDOF 1
ENDMDL
MODEL 4
REMARK VINA RESULT:    -3.908      5.270      7.791
REMARK INTER + INTRA:          -4.383
REMARK INTER:                  -4.136
REMARK INTRA:                  -0.247
REMARK UNBOUND:                -0.246
REMARK  Name = Nicotine.pdb
REMARK  2 active torsions:
REMARK  status: ('A' for Active; 'I' for Inactive)
REMARK    1  A    between atoms: C_3  and  C_6
REMARK    2  A    between atoms: N_4  and  C_12
REMARK                            x       y       z     vdW  Elec       q    Type
REMARK                         _______ _______ _______ _____ _____    ______ ____
ROOT
ATOM      1  C   UNL     1       3.060   5.165  -1.428  0.00  0.00    +0.017 C 
ATOM      2  C   UNL     1       2.083   3.989  -1.691  0.00  0.00    +0.025 C 
ATOM      3  C   UNL     1       1.848   4.068  -3.215  0.00  0.00    +0.088 C 
ATOM      4  N   UNL     1       2.163   5.445  -3.635  0.00  0.00    -0.298 NA
ATOM      5  C   UNL     1       2.556   6.223  -2.441  0.00  0.00    +0.085 C 
ATOM      6  C   UNL     1       3.227   5.457  -4.646  0.00  0.00    +0.105 C 
ENDROOT
BRANCH   3   7
ATOM      7  C   UNL     1       0.408   3.751  -3.528  0.00  0.00    -0.012 A 
ATOM      8  C   UNL     1       0.087   2.961  -4.615  0.00  0.00    +0.115 A 
ATOM      9  N   UNL     1      -1.171   2.679  -4.896  0.00  0.00    -0.263 NA
ATOM     10  C   UNL     1      -2.164   3.135  -4.159  0.00  0.00    +0.111 A 
ATOM     11  C   UNL     1      -1.920   3.931  -3.055  0.00  0.00    +0.020 A 
ATOM     12  C   UNL     1      -0.610   4.244  -2.726  0.00  0.00    +0.008 A 
ENDBRANCH   3   7
TORSDOF 1
ENDMDL
MODEL 5
REMARK VINA RESULT:    -3.866      5.223      7.482
REMARK INTER + INTRA:          -4.338
REMARK INTER:                  -4.084
REMARK INTRA:                  -0.254
REMARK UNBOUND:                -0.246
REMARK  Name = Nicotine.pdb
REMARK  2 active torsions:
REMARK  status: ('A' for Active; 'I' for Inactive)
REMARK    1  A    between atoms: C_3  and  C_6
REMARK    2  A    between atoms: N_4  and  C_12
REMARK                            x       y       z     vdW  Elec       q    Type
REMARK                         _______ _______ _______ _____ _____    ______ ____
ROOT
ATOM      1  C   UNL     1      -2.159   2.924  -4.327  0.00  0.00    +0.017 C 
ATOM      2  C   UNL     1      -1.540   3.705  -3.138  0.00  0.00    +0.025 C 
ATOM      3  C   UNL     1      -0.638   4.745  -3.837  0.00  0.00    +0.088 C 
ATOM      4  N   UNL     1      -0.334   4.224  -5.182  0.00  0.00    -0.298 NA
ATOM      5  C   UNL     1      -0.983   2.905  -5.335  0.00  0.00    +0.085 C 
ATOM      6  C   UNL     1      -0.785   5.157  -6.223  0.00  0.00    +0.105 C 
ENDROOT
BRANCH   3   7
ATOM      7  C   UNL     1       0.637   4.926  -3.055  0.00  0.00    -0.012 A 
ATOM      8  C   UNL     1       1.260   6.159  -3.009  0.00  0.00    +0.115 A 
ATOM      9  N   UNL     1       2.376   6.326  -2.327  0.00  0.00    -0.263 NA
ATOM     10  C   UNL     1       2.940   5.334  -1.667  0.00  0.00    +0.111 A 
ATOM     11  C   UNL     1       2.374   4.072  -1.666  0.00  0.00    +0.020 A 
ATOM     12  C   UNL     1       1.197   3.860  -2.368  0.00  0.00    +0.008 A 
ENDBRANCH   3   7
TORSDOF 1
ENDMDL
MODEL 6
REMARK VINA RESULT:    -3.810      1.787      2.209
REMARK INTER + INTRA:          -4.279
REMARK INTER:                  -4.023
REMARK INTRA:                  -0.255
REMARK UNBOUND:                -0.246
REMARK  Name = Nicotine.pdb
REMARK  2 active torsions:
REMARK  status: ('A' for Active; 'I' for Inactive)
REMARK    1  A    between atoms: C_3  and  C_6
REMARK    2  A    between atoms: N_4  and  C_12
REMARK                            x       y       z     vdW  Elec       q    Type
REMARK                         _______ _______ _______ _____ _____    ______ ____
ROOT
ATOM      1  C   UNL     1       3.923   2.852   1.053  0.00  0.00    +0.017 C 
ATOM      2  C   UNL     1       3.683   4.299   1.560  0.00  0.00    +0.025 C 
ATOM      3  C   UNL     1       4.997   4.630   2.300  0.00  0.00    +0.088 C 
ATOM      4  N   UNL     1       5.625   3.349   2.669  0.00  0.00    -0.298 NA
ATOM      5  C   UNL     1       4.750   2.247   2.215  0.00  0.00    +0.085 C 
ATOM      6  C   UNL     1       6.967   3.232   2.083  0.00  0.00    +0.105 C 
ENDROOT
BRANCH   3   7
ATOM      7  C   UNL     1       4.699   5.432   3.540  0.00  0.00    -0.012 A 
ATOM      8  C   UNL     1       5.707   6.125   4.183  0.00  0.00    +0.115 A 
ATOM      9  N   UNL     1       5.454   6.830   5.269  0.00  0.00    -0.263 NA
ATOM     10  C   UNL     1       4.242   6.902   5.782  0.00  0.00    +0.111 A 
ATOM     11  C   UNL     1       3.183   6.236   5.193  0.00  0.00    +0.020 A 
ATOM     12  C   UNL     1       3.409   5.490   4.047  0.00  0.00    +0.008 A 
ENDBRANCH   3   7
TORSDOF 1
ENDMDL
MODEL 7
REMARK VINA RESULT:    -3.643      7.594      8.752
REMARK INTER + INTRA:          -4.102
REMARK INTER:                  -3.888
REMARK INTRA:                  -0.214
REMARK UNBOUND:                -0.246
REMARK  Name = Nicotine.pdb
REMARK  2 active torsions:
REMARK  status: ('A' for Active; 'I' for Inactive)
REMARK    1  A    between atoms: C_3  and  C_6
REMARK    2  A    between atoms: N_4  and  C_12
REMARK                            x       y       z     vdW  Elec       q    Type
REMARK                         _______ _______ _______ _____ _____    ______ ____
ROOT
ATOM      1  C   UNL     1      -2.143   3.676  -3.068  0.00  0.00    +0.017 C 
ATOM      2  C   UNL     1      -0.779   4.400  -3.221  0.00  0.00    +0.025 C 
ATOM      3  C   UNL     1      -0.460   4.227  -4.722  0.00  0.00    +0.088 C 
ATOM      4  N   UNL     1      -1.230   3.064  -5.200  0.00  0.00    -0.298 NA
ATOM      5  C   UNL     1      -1.985   2.499  -4.063  0.00  0.00    +0.085 C 
ATOM      6  C   UNL     1      -2.132   3.444  -6.296  0.00  0.00    +0.105 C 
ENDROOT
BRANCH   3   7
ATOM      7  C   UNL     1       1.014   3.980  -4.908  0.00  0.00    -0.012 A 
ATOM      8  C   UNL     1       1.939   4.918  -4.488  0.00  0.00    +0.115 A 
ATOM      9  N   UNL     1       3.231   4.709  -4.647  0.00  0.00    -0.263 NA
ATOM     10  C   UNL     1       3.692   3.608  -5.208  0.00  0.00    +0.111 A 
ATOM     11  C   UNL     1       2.827   2.625  -5.652  0.00  0.00    +0.020 A 
ATOM     12  C   UNL     1       1.461   2.807  -5.497  0.00  0.00    +0.008 A 
ENDBRANCH   3   7
TORSDOF 1
ENDMDL
MODEL 8
REMARK VINA RESULT:    -3.640      1.363      2.445
REMARK INTER + INTRA:          -4.099
REMARK INTER:                  -3.857
REMARK INTRA:                  -0.242
REMARK UNBOUND:                -0.246
REMARK  Name = Nicotine.pdb
REMARK  2 active torsions:
REMARK  status: ('A' for Active; 'I' for Inactive)
REMARK    1  A    between atoms: C_3  and  C_6
REMARK    2  A    between atoms: N_4  and  C_12
REMARK                            x       y       z     vdW  Elec       q    Type
REMARK                         _______ _______ _______ _____ _____    ______ ____
ROOT
ATOM      1  C   UNL     1       2.928   3.561  -0.762  0.00  0.00    +0.017 C 
ATOM      2  C   UNL     1       2.759   3.323   0.761  0.00  0.00    +0.025 C 
ATOM      3  C   UNL     1       3.822   4.256   1.379  0.00  0.00    +0.088 C 
ATOM      4  N   UNL     1       4.835   4.512   0.339  0.00  0.00    -0.298 NA
ATOM      5  C   UNL     1       4.460   3.763  -0.879  0.00  0.00    +0.085 C 
ATOM      6  C   UNL     1       4.951   5.949   0.060  0.00  0.00    +0.105 C 
ENDROOT
BRANCH   3   7
ATOM      7  C   UNL     1       4.463   3.586   2.567  0.00  0.00    -0.012 A 
ATOM      8  C   UNL     1       4.668   4.289   3.739  0.00  0.00    +0.115 A 
ATOM      9  N   UNL     1       5.228   3.710   4.784  0.00  0.00    -0.263 NA
ATOM     10  C   UNL     1       5.613   2.450   4.754  0.00  0.00    +0.111 A 
ATOM     11  C   UNL     1       5.441   1.684   3.616  0.00  0.00    +0.020 A 
ATOM     12  C   UNL     1       4.850   2.256   2.500  0.00  0.00    +0.008 A 
ENDBRANCH   3   7
TORSDOF 1
ENDMDL
MODEL 9
REMARK VINA RESULT:    -3.588      1.384      2.302
REMARK INTER + INTRA:          -4.044
REMARK INTER:                  -3.831
REMARK INTRA:                  -0.213
REMARK UNBOUND:                -0.246
REMARK  Name = Nicotine.pdb
REMARK  2 active torsions:
REMARK  status: ('A' for Active; 'I' for Inactive)
REMARK    1  A    between atoms: C_3  and  C_6
REMARK    2  A    between atoms: N_4  and  C_12
REMARK                            x       y       z     vdW  Elec       q    Type
REMARK                         _______ _______ _______ _____ _____    ______ ____
ROOT
ATOM      1  C   UNL     1       5.640   1.775  -0.556  0.00  0.00    +0.017 C 
ATOM      2  C   UNL     1       5.716   1.338   0.931  0.00  0.00    +0.025 C 
ATOM      3  C   UNL     1       4.529   2.087   1.573  0.00  0.00    +0.088 C 
ATOM      4  N   UNL     1       4.216   3.236   0.704  0.00  0.00    -0.298 NA
ATOM      5  C   UNL     1       5.168   3.244  -0.427  0.00  0.00    +0.085 C 
ATOM      6  C   UNL     1       2.829   3.172   0.225  0.00  0.00    +0.105 C 
ENDROOT
BRANCH   3   7
ATOM      7  C   UNL     1       4.912   2.572   2.947  0.00  0.00    -0.012 A 
ATOM      8  C   UNL     1       5.331   1.676   3.913  0.00  0.00    +0.115 A 
ATOM      9  N   UNL     1       5.668   2.092   5.118  0.00  0.00    -0.263 NA
ATOM     10  C   UNL     1       5.620   3.366   5.450  0.00  0.00    +0.111 A 
ATOM     11  C   UNL     1       5.211   4.321   4.537  0.00  0.00    +0.020 A 
ATOM     12  C   UNL     1       4.854   3.922   3.258  0.00  0.00    +0.008 A 
ENDBRANCH   3   7
TORSDOF 1
ENDMDL
MODEL 10
REMARK VINA RESULT:    -3.550      2.195      3.623
REMARK INTER + INTRA:          -4.004
REMARK INTER:                  -3.787
REMARK INTRA:                  -0.216
REMARK UNBOUND:                -0.246
REMARK  Name = Nicotine.pdb
REMARK  2 active torsions:
REMARK  status: ('A' for Active; 'I' for Inactive)
REMARK    1  A    between atoms: C_3  and  C_6
REMARK    2  A    between atoms: N_4  and  C_12
REMARK                            x       y       z     vdW  Elec       q    Type
REMARK                         _______ _______ _______ _____ _____    ______ ____
ROOT
ATOM      1  C   UNL     1       4.176   6.270   1.500  0.00  0.00    +0.017 C 
ATOM      2  C   UNL     1       4.189   4.795   1.981  0.00  0.00    +0.025 C 
ATOM      3  C   UNL     1       4.039   4.928   3.512  0.00  0.00    +0.088 C 
ATOM      4  N   UNL     1       4.485   6.284   3.878  0.00  0.00    -0.298 NA
ATOM      5  C   UNL     1       4.927   6.982   2.652  0.00  0.00    +0.085 C 
ATOM      6  C   UNL     1       3.413   7.028   4.551  0.00  0.00    +0.105 C 
ENDROOT
BRANCH   3   7
ATOM      7  C   UNL     1       4.896   3.900   4.202  0.00  0.00    -0.012 A 
ATOM      8  C   UNL     1       5.276   4.077   5.519  0.00  0.00    +0.115 A 
ATOM      9  N   UNL     1       6.026   3.182   6.132  0.00  0.00    -0.263 NA
ATOM     10  C   UNL     1       6.443   2.091   5.519  0.00  0.00    +0.111 A 
ATOM     11  C   UNL     1       6.102   1.845   4.202  0.00  0.00    +0.020 A 
ATOM     12  C   UNL     1       5.310   2.761   3.528  0.00  0.00    +0.008 A 
ENDBRANCH   3   7
TORSDOF 1
ENDMDL
