MODEL 1
REMARK VINA RESULT:    -3.676      0.000      0.000
REMARK INTER + INTRA:          -4.124
REMARK INTER:                  -3.890
REMARK INTRA:                  -0.234
REMARK UNBOUND:                -0.234
REMARK  Name = Nicotine.pdb
REMARK  2 active torsions:
REMARK  status: ('A' for Active; 'I' for Inactive)
REMARK    1  A    between atoms: C_3  and  C_6
REMARK    2  A    between atoms: N_4  and  C_12
REMARK                            x       y       z     vdW  Elec       q    Type
REMARK                         _______ _______ _______ _____ _____    ______ ____
ROOT
ATOM      1  C   UNL     1       9.686  -4.502  -7.256  0.00  0.00    +0.017 C 
ATOM      2  C   UNL     1       8.360  -3.942  -6.676  0.00  0.00    +0.025 C 
ATOM      3  C   UNL     1       8.238  -4.673  -5.322  0.00  0.00    +0.088 C 
ATOM      4  N   UNL     1       9.052  -5.899  -5.412  0.00  0.00    -0.298 NA
ATOM      5  C   UNL     1       9.648  -5.970  -6.763  0.00  0.00    +0.085 C 
ATOM      6  C   UNL     1      10.092  -5.918  -4.375  0.00  0.00    +0.105 C 
ENDROOT
BRANCH   3   7
ATOM      7  C   UNL     1       6.798  -5.031  -5.061  0.00  0.00    -0.012 A 
ATOM      8  C   UNL     1       6.453  -5.778  -3.950  0.00  0.00    +0.115 A 
ATOM      9  N   UNL     1       5.195  -6.095  -3.714  0.00  0.00    -0.263 NA
ATOM     10  C   UNL     1       4.222  -5.718  -4.520  0.00  0.00    +0.111 A 
ATOM     11  C   UNL     1       4.490  -4.968  -5.650  0.00  0.00    +0.020 A 
ATOM     12  C   UNL     1       5.801  -4.611  -5.928  0.00  0.00    +0.008 A 
ENDBRANCH   3   7
TORSDOF 1
ENDMDL
MODEL 2
REMARK VINA RESULT:    -3.547      1.054      2.116
REMARK INTER + INTRA:          -3.989
REMARK INTER:                  -3.791
REMARK INTRA:                  -0.198
REMARK UNBOUND:                -0.234
REMARK  Name = Nicotine.pdb
REMARK  2 active torsions:
REMARK  status: ('A' for Active; 'I' for Inactive)
REMARK    1  A    between atoms: C_3  and  C_6
REMARK    2  A    between atoms: N_4  and  C_12
REMARK                            x       y       z     vdW  Elec       q    Type
REMARK                         _______ _______ _______ _____ _____    ______ ____
ROOT
ATOM      1  C   UNL     1      10.954  -5.605  -3.820  0.00  0.00    +0.017 C 
ATOM      2  C   UNL     1       9.484  -6.057  -3.618  0.00  0.00    +0.025 C 
ATOM      3  C   UNL     1       8.929  -6.088  -5.058  0.00  0.00    +0.088 C 
ATOM      4  N   UNL     1       9.782  -5.203  -5.873  0.00  0.00    -0.298 NA
ATOM      5  C   UNL     1      10.817  -4.611  -4.999  0.00  0.00    +0.085 C 
ATOM      6  C   UNL     1      10.391  -5.939  -6.988  0.00  0.00    +0.105 C 
ENDROOT
BRANCH   3   7
ATOM      7  C   UNL     1       7.508  -5.588  -5.072  0.00  0.00    -0.012 A 
ATOM      8  C   UNL     1       6.613  -6.000  -4.102  0.00  0.00    +0.115 A 
ATOM      9  N   UNL     1       5.368  -5.567  -4.107  0.00  0.00    -0.263 NA
ATOM     10  C   UNL     1       4.927  -4.731  -5.027  0.00  0.00    +0.111 A 
ATOM     11  C   UNL     1       5.765  -4.275  -6.027  0.00  0.00    +0.020 A 
ATOM     12  C   UNL     1       7.083  -4.705  -6.052  0.00  0.00    +0.008 A 
ENDBRANCH   3   7
TORSDOF 1
ENDMDL
MODEL 3
REMARK VINA RESULT:    -3.172      1.157      4.306
REMARK INTER + INTRA:          -3.592
REMARK INTER:                  -3.339
REMARK INTRA:                  -0.253
REMARK UNBOUND:                -0.234
REMARK  Name = Nicotine.pdb
REMARK  2 active torsions:
REMARK  status: ('A' for Active; 'I' for Inactive)
REMARK    1  A    between atoms: C_3  and  C_6
REMARK    2  A    between atoms: N_4  and  C_12
REMARK                            x       y       z     vdW  Elec       q    Type
REMARK                         _______ _______ _______ _____ _____    ______ ____
ROOT
ATOM      1  C   UNL     1       4.142  -5.805  -5.320  0.00  0.00    +0.017 C 
ATOM      2  C   UNL     1       5.435  -6.000  -6.155  0.00  0.00    +0.025 C 
ATOM      3  C   UNL     1       6.548  -5.956  -5.086  0.00  0.00    +0.088 C 
ATOM      4  N   UNL     1       6.005  -5.239  -3.919  0.00  0.00    -0.298 NA
ATOM      5  C   UNL     1       4.622  -4.817  -4.227  0.00  0.00    +0.085 C 
ATOM      6  C   UNL     1       6.044  -6.082  -2.717  0.00  0.00    +0.105 C 
ENDROOT
BRANCH   3   7
ATOM      7  C   UNL     1       7.749  -5.224  -5.627  0.00  0.00    -0.012 A 
ATOM      8  C   UNL     1       9.026  -5.616  -5.270  0.00  0.00    +0.115 A 
ATOM      9  N   UNL     1      10.082  -4.981  -5.739  0.00  0.00    -0.263 NA
ATOM     10  C   UNL     1       9.967  -3.955  -6.558  0.00  0.00    +0.111 A 
ATOM     11  C   UNL     1       8.722  -3.506  -6.959  0.00  0.00    +0.020 A 
ATOM     12  C   UNL     1       7.589  -4.152  -6.491  0.00  0.00    +0.008 A 
ENDBRANCH   3   7
TORSDOF 1
ENDMDL
MODEL 4
REMARK VINA RESULT:    -3.168      1.171      4.312
REMARK INTER + INTRA:          -3.588
REMARK INTER:                  -3.332
REMARK INTRA:                  -0.256
REMARK UNBOUND:                -0.234
REMARK  Name = Nicotine.pdb
REMARK  2 active torsions:
REMARK  status: ('A' for Active; 'I' for Inactive)
REMARK    1  A    between atoms: C_3  and  C_6
REMARK    2  A    between atoms: N_4  and  C_12
REMARK                            x       y       z     vdW  Elec       q    Type
REMARK                         _______ _______ _______ _____ _____    ______ ____
ROOT
ATOM      1  C   UNL     1       4.213  -5.790  -5.404  0.00  0.00    +0.017 C 
ATOM      2  C   UNL     1       5.558  -6.063  -6.128  0.00  0.00    +0.025 C 
ATOM      3  C   UNL     1       6.584  -6.039  -4.976  0.00  0.00    +0.088 C 
ATOM      4  N   UNL     1       5.983  -5.269  -3.872  0.00  0.00    -0.298 NA
ATOM      5  C   UNL     1       4.649  -4.797  -4.298  0.00  0.00    +0.085 C 
ATOM      6  C   UNL     1       5.890  -6.082  -2.652  0.00  0.00    +0.105 C 
ENDROOT
BRANCH   3   7
ATOM      7  C   UNL     1       7.855  -5.374  -5.435  0.00  0.00    -0.012 A 
ATOM      8  C   UNL     1       9.054  -5.643  -4.801  0.00  0.00    +0.115 A 
ATOM      9  N   UNL     1      10.171  -5.065  -5.197  0.00  0.00    -0.263 NA
ATOM     10  C   UNL     1      10.192  -4.214  -6.203  0.00  0.00    +0.111 A 
ATOM     11  C   UNL     1       9.032  -3.895  -6.885  0.00  0.00    +0.020 A 
ATOM     12  C   UNL     1       7.839  -4.488  -6.501  0.00  0.00    +0.008 A 
ENDBRANCH   3   7
TORSDOF 1
ENDMDL
MODEL 5
REMARK VINA RESULT:    -2.780      1.299      4.746
REMARK INTER + INTRA:          -3.177
REMARK INTER:                  -2.957
REMARK INTRA:                  -0.220
REMARK UNBOUND:                -0.234
REMARK  Name = Nicotine.pdb
REMARK  2 active torsions:
REMARK  status: ('A' for Active; 'I' for Inactive)
REMARK    1  A    between atoms: C_3  and  C_6
REMARK    2  A    between atoms: N_4  and  C_12
REMARK                            x       y       z     vdW  Elec       q    Type
REMARK                         _______ _______ _______ _____ _____    ______ ____
ROOT
ATOM      1  C   UNL     1       4.410  -6.092  -3.084  0.00  0.00    +0.017 C 
ATOM      2  C   UNL     1       5.951  -5.907  -3.061  0.00  0.00    +0.025 C 
ATOM      3  C   UNL     1       6.205  -4.967  -4.259  0.00  0.00    +0.088 C 
ATOM      4  N   UNL     1       5.055  -5.101  -5.171  0.00  0.00    -0.298 NA
ATOM      5  C   UNL     1       4.118  -6.095  -4.605  0.00  0.00    +0.085 C 
ATOM      6  C   UNL     1       4.391  -3.807  -5.375  0.00  0.00    +0.105 C 
ENDROOT
BRANCH   3   7
ATOM      7  C   UNL     1       7.472  -5.371  -4.966  0.00  0.00    -0.012 A 
ATOM      8  C   UNL     1       7.494  -5.501  -6.342  0.00  0.00    +0.115 A 
ATOM      9  N   UNL     1       8.599  -5.853  -6.970  0.00  0.00    -0.263 NA
ATOM     10  C   UNL     1       9.719  -6.096  -6.318  0.00  0.00    +0.111 A 
ATOM     11  C   UNL     1       9.774  -5.986  -4.941  0.00  0.00    +0.020 A 
ATOM     12  C   UNL     1       8.633  -5.612  -4.247  0.00  0.00    +0.008 A 
ENDBRANCH   3   7
TORSDOF 1
ENDMDL
