MODEL 1
REMARK VINA RESULT:     9.501      0.000      0.000
REMARK INTER + INTRA:           9.839
REMARK INTER:                  10.057
REMARK INTRA:                  -0.218
REMARK UNBOUND:                -0.218
REMARK  Name = Nicotine.pdb
REMARK  2 active torsions:
REMARK  status: ('A' for Active; 'I' for Inactive)
REMARK    1  A    between atoms: C_3  and  C_6
REMARK    2  A    between atoms: N_4  and  C_12
REMARK                            x       y       z     vdW  Elec       q    Type
REMARK                         _______ _______ _______ _____ _____    ______ ____
ROOT
ATOM      1  C   UNL     1       4.817  -2.920  -4.584  0.00  0.00    +0.017 C 
ATOM      2  C   UNL     1       3.882  -3.833  -5.420  0.00  0.00    +0.025 C 
ATOM      3  C   UNL     1       3.334  -2.874  -6.499  0.00  0.00    +0.088 C 
ATOM      4  N   UNL     1       3.471  -1.503  -5.975  0.00  0.00    -0.298 NA
ATOM      5  C   UNL     1       4.052  -1.573  -4.618  0.00  0.00    +0.085 C 
ATOM      6  C   UNL     1       4.303  -0.681  -6.863  0.00  0.00    +0.105 C 
ENDROOT
BRANCH   3   7
ATOM      7  C   UNL     1       1.883  -3.180  -6.767  0.00  0.00    -0.012 A 
ATOM      8  C   UNL     1       0.975  -2.154  -6.948  0.00  0.00    +0.115 A 
ATOM      9  N   UNL     1      -0.297  -2.413  -7.183  0.00  0.00    -0.263 NA
ATOM     10  C   UNL     1      -0.751  -3.648  -7.256  0.00  0.00    +0.111 A 
ATOM     11  C   UNL     1       0.099  -4.726  -7.086  0.00  0.00    +0.020 A 
ATOM     12  C   UNL     1       1.444  -4.493  -6.842  0.00  0.00    +0.008 A 
ENDBRANCH   3   7
TORSDOF 1
ENDMDL
MODEL 2
REMARK VINA RESULT:    11.886      2.309      5.545
REMARK INTER + INTRA:          12.363
REMARK INTER:                  12.596
REMARK INTRA:                  -0.233
REMARK UNBOUND:                -0.218
REMARK  Name = Nicotine.pdb
REMARK  2 active torsions:
REMARK  status: ('A' for Active; 'I' for Inactive)
REMARK    1  A    between atoms: C_3  and  C_6
REMARK    2  A    between atoms: N_4  and  C_12
REMARK                            x       y       z     vdW  Elec       q    Type
REMARK                         _______ _______ _______ _____ _____    ______ ____
ROOT
ATOM      1  C   UNL     1      -3.475  -1.451  -6.566  0.00  0.00    +0.017 C 
ATOM      2  C   UNL     1      -2.089  -1.571  -7.253  0.00  0.00    +0.025 C 
ATOM      3  C   UNL     1      -1.834  -3.093  -7.256  0.00  0.00    +0.088 C 
ATOM      4  N   UNL     1      -2.668  -3.678  -6.191  0.00  0.00    -0.298 NA
ATOM      5  C   UNL     1      -3.404  -2.587  -5.516  0.00  0.00    +0.085 C 
ATOM      6  C   UNL     1      -3.593  -4.680  -6.736  0.00  0.00    +0.105 C 
ENDROOT
BRANCH   3   7
ATOM      7  C   UNL     1      -0.378  -3.370  -6.980  0.00  0.00    -0.012 A 
ATOM      8  C   UNL     1       0.069  -4.668  -6.826  0.00  0.00    +0.115 A 
ATOM      9  N   UNL     1       1.341  -4.919  -6.584  0.00  0.00    -0.263 NA
ATOM     10  C   UNL     1       2.231  -3.951  -6.479  0.00  0.00    +0.111 A 
ATOM     11  C   UNL     1       1.857  -2.628  -6.622  0.00  0.00    +0.020 A 
ATOM     12  C   UNL     1       0.529  -2.326  -6.882  0.00  0.00    +0.008 A 
ENDBRANCH   3   7
TORSDOF 1
ENDMDL
