MODEL 1
REMARK VINA RESULT:     2.730      0.000      0.000
REMARK INTER + INTRA:           2.665
REMARK INTER:                   2.889
REMARK INTRA:                  -0.224
REMARK UNBOUND:                -0.224
REMARK  Name = Nicotine.pdb
REMARK  2 active torsions:
REMARK  status: ('A' for Active; 'I' for Inactive)
REMARK    1  A    between atoms: C_3  and  C_6
REMARK    2  A    between atoms: N_4  and  C_12
REMARK                            x       y       z     vdW  Elec       q    Type
REMARK                         _______ _______ _______ _____ _____    ______ ____
ROOT
ATOM      1  C   UNL     1       3.410  -0.794  -0.849  0.00  0.00    +0.017 C 
ATOM      2  C   UNL     1       2.234  -0.538   0.130  0.00  0.00    +0.025 C 
ATOM      3  C   UNL     1       2.309  -1.747   1.086  0.00  0.00    +0.088 C 
ATOM      4  N   UNL     1       3.032  -2.819   0.379  0.00  0.00    -0.298 NA
ATOM      5  C   UNL     1       3.383  -2.338  -0.974  0.00  0.00    +0.085 C 
ATOM      6  C   UNL     1       4.232  -3.224   1.123  0.00  0.00    +0.105 C 
ENDROOT
BRANCH   3   7
ATOM      7  C   UNL     1       0.919  -2.210   1.438  0.00  0.00    -0.012 A 
ATOM      8  C   UNL     1       0.544  -3.523   1.225  0.00  0.00    +0.115 A 
ATOM      9  N   UNL     1      -0.670  -3.936   1.530  0.00  0.00    -0.263 NA
ATOM     10  C   UNL     1      -1.570  -3.122   2.045  0.00  0.00    +0.111 A 
ATOM     11  C   UNL     1      -1.268  -1.795   2.286  0.00  0.00    +0.020 A 
ATOM     12  C   UNL     1       0.001  -1.326   1.983  0.00  0.00    +0.008 A 
ENDBRANCH   3   7
TORSDOF 1
ENDMDL
MODEL 2
REMARK VINA RESULT:     3.284      1.700      2.409
REMARK INTER + INTRA:           3.251
REMARK INTER:                   3.466
REMARK INTRA:                  -0.215
REMARK UNBOUND:                -0.224
REMARK  Name = Nicotine.pdb
REMARK  2 active torsions:
REMARK  status: ('A' for Active; 'I' for Inactive)
REMARK    1  A    between atoms: C_3  and  C_6
REMARK    2  A    between atoms: N_4  and  C_12
REMARK                            x       y       z     vdW  Elec       q    Type
REMARK                         _______ _______ _______ _____ _____    ______ ____
ROOT
ATOM      1  C   UNL     1       4.324  -1.421  -0.846  0.00  0.00    +0.017 C 
ATOM      2  C   UNL     1       3.531  -2.357   0.103  0.00  0.00    +0.025 C 
ATOM      3  C   UNL     1       2.061  -2.007  -0.214  0.00  0.00    +0.088 C 
ATOM      4  N   UNL     1       2.051  -0.657  -0.805  0.00  0.00    -0.298 NA
ATOM      5  C   UNL     1       3.439  -0.149  -0.844  0.00  0.00    +0.085 C 
ATOM      6  C   UNL     1       1.458  -0.675  -2.149  0.00  0.00    +0.105 C 
ENDROOT
BRANCH   3   7
ATOM      7  C   UNL     1       1.247  -2.019   1.054  0.00  0.00    -0.012 A 
ATOM      8  C   UNL     1       1.847  -1.769   2.273  0.00  0.00    +0.115 A 
ATOM      9  N   UNL     1       1.142  -1.778   3.387  0.00  0.00    -0.263 NA
ATOM     10  C   UNL     1      -0.154  -2.023   3.385  0.00  0.00    +0.111 A 
ATOM     11  C   UNL     1      -0.823  -2.281   2.204  0.00  0.00    +0.020 A 
ATOM     12  C   UNL     1      -0.115  -2.276   1.012  0.00  0.00    +0.008 A 
ENDBRANCH   3   7
TORSDOF 1
ENDMDL
MODEL 3
REMARK VINA RESULT:     3.826      1.609      4.204
REMARK INTER + INTRA:           3.825
REMARK INTER:                   4.058
REMARK INTRA:                  -0.233
REMARK UNBOUND:                -0.224
REMARK  Name = Nicotine.pdb
REMARK  2 active torsions:
REMARK  status: ('A' for Active; 'I' for Inactive)
REMARK    1  A    between atoms: C_3  and  C_6
REMARK    2  A    between atoms: N_4  and  C_12
REMARK                            x       y       z     vdW  Elec       q    Type
REMARK                         _______ _______ _______ _____ _____    ______ ____
ROOT
ATOM      1  C   UNL     1       1.991  -0.295  -0.499  0.00  0.00    +0.017 C 
ATOM      2  C   UNL     1       2.738  -1.613  -0.837  0.00  0.00    +0.025 C 
ATOM      3  C   UNL     1       2.275  -2.571   0.281  0.00  0.00    +0.088 C 
ATOM      4  N   UNL     1       1.821  -1.738   1.410  0.00  0.00    -0.298 NA
ATOM      5  C   UNL     1       2.006  -0.316   1.050  0.00  0.00    +0.085 C 
ATOM      6  C   UNL     1       0.419  -2.020   1.742  0.00  0.00    +0.105 C 
ENDROOT
BRANCH   3   7
ATOM      7  C   UNL     1       3.424  -3.444   0.716  0.00  0.00    -0.012 A 
ATOM      8  C   UNL     1       3.268  -4.815   0.798  0.00  0.00    +0.115 A 
ATOM      9  N   UNL     1       4.268  -5.586   1.177  0.00  0.00    -0.263 NA
ATOM     10  C   UNL     1       5.447  -5.087   1.491  0.00  0.00    +0.111 A 
ATOM     11  C   UNL     1       5.678  -3.726   1.432  0.00  0.00    +0.020 A 
ATOM     12  C   UNL     1       4.652  -2.884   1.033  0.00  0.00    +0.008 A 
ENDBRANCH   3   7
TORSDOF 1
ENDMDL
MODEL 4
REMARK VINA RESULT:     4.210      1.317      4.403
REMARK INTER + INTRA:           4.232
REMARK INTER:                   4.440
REMARK INTRA:                  -0.208
REMARK UNBOUND:                -0.224
REMARK  Name = Nicotine.pdb
REMARK  2 active torsions:
REMARK  status: ('A' for Active; 'I' for Inactive)
REMARK    1  A    between atoms: C_3  and  C_6
REMARK    2  A    between atoms: N_4  and  C_12
REMARK                            x       y       z     vdW  Elec       q    Type
REMARK                         _______ _______ _______ _____ _____    ______ ____
ROOT
ATOM      1  C   UNL     1      -1.262  -3.037   2.089  0.00  0.00    +0.017 C 
ATOM      2  C   UNL     1      -0.091  -3.461   1.164  0.00  0.00    +0.025 C 
ATOM      3  C   UNL     1       1.129  -2.771   1.810  0.00  0.00    +0.088 C 
ATOM      4  N   UNL     1       0.619  -1.645   2.613  0.00  0.00    -0.298 NA
ATOM      5  C   UNL     1      -0.852  -1.593   2.471  0.00  0.00    +0.085 C 
ATOM      6  C   UNL     1       1.009  -1.783   4.022  0.00  0.00    +0.105 C 
ENDROOT
BRANCH   3   7
ATOM      7  C   UNL     1       2.056  -2.260   0.738  0.00  0.00    -0.012 A 
ATOM      8  C   UNL     1       3.328  -2.786   0.605  0.00  0.00    +0.115 A 
ATOM      9  N   UNL     1       4.146  -2.344  -0.330  0.00  0.00    -0.263 NA
ATOM     10  C   UNL     1       3.789  -1.393  -1.170  0.00  0.00    +0.111 A 
ATOM     11  C   UNL     1       2.533  -0.820  -1.099  0.00  0.00    +0.020 A 
ATOM     12  C   UNL     1       1.644  -1.262  -0.131  0.00  0.00    +0.008 A 
ENDBRANCH   3   7
TORSDOF 1
ENDMDL
MODEL 5
REMARK VINA RESULT:     4.835      0.787      0.826
REMARK INTER + INTRA:           4.893
REMARK INTER:                   5.075
REMARK INTRA:                  -0.182
REMARK UNBOUND:                -0.224
REMARK  Name = Nicotine.pdb
REMARK  2 active torsions:
REMARK  status: ('A' for Active; 'I' for Inactive)
REMARK    1  A    between atoms: C_3  and  C_6
REMARK    2  A    between atoms: N_4  and  C_12
REMARK                            x       y       z     vdW  Elec       q    Type
REMARK                         _______ _______ _______ _____ _____    ______ ____
ROOT
ATOM      1  C   UNL     1       3.664  -1.825  -0.786  0.00  0.00    +0.017 C 
ATOM      2  C   UNL     1       2.365  -1.195  -0.219  0.00  0.00    +0.025 C 
ATOM      3  C   UNL     1       2.292  -1.775   1.209  0.00  0.00    +0.088 C 
ATOM      4  N   UNL     1       3.096  -3.010   1.221  0.00  0.00    -0.298 NA
ATOM      5  C   UNL     1       3.639  -3.231  -0.137  0.00  0.00    +0.085 C 
ATOM      6  C   UNL     1       4.176  -2.927   2.213  0.00  0.00    +0.105 C 
ENDROOT
BRANCH   3   7
ATOM      7  C   UNL     1       0.862  -2.090   1.563  0.00  0.00    -0.012 A 
ATOM      8  C   UNL     1       0.126  -2.966   0.786  0.00  0.00    +0.115 A 
ATOM      9  N   UNL     1      -1.126  -3.247   1.088  0.00  0.00    -0.263 NA
ATOM     10  C   UNL     1      -1.724  -2.710   2.133  0.00  0.00    +0.111 A 
ATOM     11  C   UNL     1      -1.052  -1.826   2.957  0.00  0.00    +0.020 A 
ATOM     12  C   UNL     1       0.268  -1.511   2.673  0.00  0.00    +0.008 A 
ENDBRANCH   3   7
TORSDOF 1
ENDMDL
MODEL 6
REMARK VINA RESULT:     4.860      1.838      4.294
REMARK INTER + INTRA:           4.920
REMARK INTER:                   5.160
REMARK INTRA:                  -0.240
REMARK UNBOUND:                -0.224
REMARK  Name = Nicotine.pdb
REMARK  2 active torsions:
REMARK  status: ('A' for Active; 'I' for Inactive)
REMARK    1  A    between atoms: C_3  and  C_6
REMARK    2  A    between atoms: N_4  and  C_12
REMARK                            x       y       z     vdW  Elec       q    Type
REMARK                         _______ _______ _______ _____ _____    ______ ____
ROOT
ATOM      1  C   UNL     1       0.120  -1.340   1.385  0.00  0.00    +0.017 C 
ATOM      2  C   UNL     1       1.293  -2.028   2.132  0.00  0.00    +0.025 C 
ATOM      3  C   UNL     1       2.497  -1.771   1.201  0.00  0.00    +0.088 C 
ATOM      4  N   UNL     1       1.959  -1.510  -0.146  0.00  0.00    -0.298 NA
ATOM      5  C   UNL     1       0.485  -1.620  -0.094  0.00  0.00    +0.085 C 
ATOM      6  C   UNL     1       2.372  -0.187  -0.632  0.00  0.00    +0.105 C 
ENDROOT
BRANCH   3   7
ATOM      7  C   UNL     1       3.391  -2.983   1.172  0.00  0.00    -0.012 A 
ATOM      8  C   UNL     1       4.760  -2.845   1.304  0.00  0.00    +0.115 A 
ATOM      9  N   UNL     1       5.550  -3.901   1.280  0.00  0.00    -0.263 NA
ATOM     10  C   UNL     1       5.072  -5.121   1.130  0.00  0.00    +0.111 A 
ATOM     11  C   UNL     1       3.713  -5.337   0.993  0.00  0.00    +0.020 A 
ATOM     12  C   UNL     1       2.851  -4.251   1.019  0.00  0.00    +0.008 A 
ENDBRANCH   3   7
TORSDOF 1
ENDMDL
