MODEL 1
REMARK VINA RESULT:    -3.770      0.000      0.000
REMARK INTER + INTRA:          -4.210
REMARK INTER:                  -3.990
REMARK INTRA:                  -0.220
REMARK UNBOUND:                -0.220
REMARK  Name = Nicotine.pdb
REMARK  2 active torsions:
REMARK  status: ('A' for Active; 'I' for Inactive)
REMARK    1  A    between atoms: C_3  and  C_6
REMARK    2  A    between atoms: N_4  and  C_12
REMARK                            x       y       z     vdW  Elec       q    Type
REMARK                         _______ _______ _______ _____ _____    ______ ____
ROOT
ATOM      1  C   UNL     1      -2.140  -0.548  -5.722  0.00  0.00    +0.017 C 
ATOM      2  C   UNL     1      -1.655  -1.639  -4.731  0.00  0.00    +0.025 C 
ATOM      3  C   UNL     1      -1.329  -0.831  -3.457  0.00  0.00    +0.088 C 
ATOM      4  N   UNL     1      -1.091   0.563  -3.873  0.00  0.00    -0.298 NA
ATOM      5  C   UNL     1      -1.229   0.646  -5.343  0.00  0.00    +0.085 C 
ATOM      6  C   UNL     1      -2.022   1.480  -3.204  0.00  0.00    +0.105 C 
ENDROOT
BRANCH   3   7
ATOM      7  C   UNL     1      -0.095  -1.389  -2.797  0.00  0.00    -0.012 A 
ATOM      8  C   UNL     1       0.923  -0.546  -2.392  0.00  0.00    +0.115 A 
ATOM      9  N   UNL     1       2.007  -1.027  -1.814  0.00  0.00    -0.263 NA
ATOM     10  C   UNL     1       2.164  -2.318  -1.600  0.00  0.00    +0.111 A 
ATOM     11  C   UNL     1       1.188  -3.222  -1.978  0.00  0.00    +0.020 A 
ATOM     12  C   UNL     1       0.032  -2.753  -2.584  0.00  0.00    +0.008 A 
ENDBRANCH   3   7
TORSDOF 1
ENDMDL
MODEL 2
REMARK VINA RESULT:    -3.642      2.105      3.158
REMARK INTER + INTRA:          -4.075
REMARK INTER:                  -3.819
REMARK INTRA:                  -0.256
REMARK UNBOUND:                -0.220
REMARK  Name = Nicotine.pdb
REMARK  2 active torsions:
REMARK  status: ('A' for Active; 'I' for Inactive)
REMARK    1  A    between atoms: C_3  and  C_6
REMARK    2  A    between atoms: N_4  and  C_12
REMARK                            x       y       z     vdW  Elec       q    Type
REMARK                         _______ _______ _______ _____ _____    ______ ____
ROOT
ATOM      1  C   UNL     1       0.394  -2.236  -3.946  0.00  0.00    +0.017 C 
ATOM      2  C   UNL     1       0.664  -2.706  -2.493  0.00  0.00    +0.025 C 
ATOM      3  C   UNL     1       0.865  -1.379  -1.731  0.00  0.00    +0.088 C 
ATOM      4  N   UNL     1       1.251  -0.360  -2.723  0.00  0.00    -0.298 NA
ATOM      5  C   UNL     1       1.322  -1.000  -4.053  0.00  0.00    +0.085 C 
ATOM      6  C   UNL     1       0.299   0.759  -2.727  0.00  0.00    +0.105 C 
ENDROOT
BRANCH   3   7
ATOM      7  C   UNL     1       1.957  -1.537  -0.705  0.00  0.00    -0.012 A 
ATOM      8  C   UNL     1       2.001  -0.711   0.402  0.00  0.00    +0.115 A 
ATOM      9  N   UNL     1       2.953  -0.843   1.305  0.00  0.00    -0.263 NA
ATOM     10  C   UNL     1       3.894  -1.759   1.191  0.00  0.00    +0.111 A 
ATOM     11  C   UNL     1       3.915  -2.622   0.111  0.00  0.00    +0.020 A 
ATOM     12  C   UNL     1       2.927  -2.516  -0.856  0.00  0.00    +0.008 A 
ENDBRANCH   3   7
TORSDOF 1
ENDMDL
MODEL 3
REMARK VINA RESULT:    -3.599      2.496      4.332
REMARK INTER + INTRA:          -4.029
REMARK INTER:                  -3.816
REMARK INTRA:                  -0.213
REMARK UNBOUND:                -0.220
REMARK  Name = Nicotine.pdb
REMARK  2 active torsions:
REMARK  status: ('A' for Active; 'I' for Inactive)
REMARK    1  A    between atoms: C_3  and  C_6
REMARK    2  A    between atoms: N_4  and  C_12
REMARK                            x       y       z     vdW  Elec       q    Type
REMARK                         _______ _______ _______ _____ _____    ______ ____
ROOT
ATOM      1  C   UNL     1      -0.025  -1.344  -2.871  0.00  0.00    +0.017 C 
ATOM      2  C   UNL     1       1.139  -0.657  -2.109  0.00  0.00    +0.025 C 
ATOM      3  C   UNL     1       2.215  -1.763  -2.050  0.00  0.00    +0.088 C 
ATOM      4  N   UNL     1       1.524  -3.054  -2.215  0.00  0.00    -0.298 NA
ATOM      5  C   UNL     1       0.074  -2.799  -2.347  0.00  0.00    +0.085 C 
ATOM      6  C   UNL     1       2.039  -3.783  -3.382  0.00  0.00    +0.105 C 
ENDROOT
BRANCH   3   7
ATOM      7  C   UNL     1       2.919  -1.723  -0.719  0.00  0.00    -0.012 A 
ATOM      8  C   UNL     1       2.417  -0.953   0.314  0.00  0.00    +0.115 A 
ATOM      9  N   UNL     1       3.027  -0.913   1.483  0.00  0.00    -0.263 NA
ATOM     10  C   UNL     1       4.130  -1.597   1.713  0.00  0.00    +0.111 A 
ATOM     11  C   UNL     1       4.690  -2.389   0.728  0.00  0.00    +0.020 A 
ATOM     12  C   UNL     1       4.074  -2.461  -0.512  0.00  0.00    +0.008 A 
ENDBRANCH   3   7
TORSDOF 1
ENDMDL
MODEL 4
REMARK VINA RESULT:    -3.543      1.528      4.342
REMARK INTER + INTRA:          -3.970
REMARK INTER:                  -3.773
REMARK INTRA:                  -0.197
REMARK UNBOUND:                -0.220
REMARK  Name = Nicotine.pdb
REMARK  2 active torsions:
REMARK  status: ('A' for Active; 'I' for Inactive)
REMARK    1  A    between atoms: C_3  and  C_6
REMARK    2  A    between atoms: N_4  and  C_12
REMARK                            x       y       z     vdW  Elec       q    Type
REMARK                         _______ _______ _______ _____ _____    ______ ____
ROOT
ATOM      1  C   UNL     1       1.371  -3.556  -2.320  0.00  0.00    +0.017 C 
ATOM      2  C   UNL     1       0.050  -2.743  -2.298  0.00  0.00    +0.025 C 
ATOM      3  C   UNL     1       0.127  -1.920  -3.601  0.00  0.00    +0.088 C 
ATOM      4  N   UNL     1       1.549  -1.834  -3.980  0.00  0.00    -0.298 NA
ATOM      5  C   UNL     1       2.352  -2.542  -2.960  0.00  0.00    +0.085 C 
ATOM      6  C   UNL     1       1.774  -2.401  -5.316  0.00  0.00    +0.105 C 
ENDROOT
BRANCH   3   7
ATOM      7  C   UNL     1      -0.428  -0.538  -3.369  0.00  0.00    -0.012 A 
ATOM      8  C   UNL     1      -1.665  -0.187  -3.875  0.00  0.00    +0.115 A 
ATOM      9  N   UNL     1      -2.157   1.020  -3.676  0.00  0.00    -0.263 NA
ATOM     10  C   UNL     1      -1.497   1.934  -2.992  0.00  0.00    +0.111 A 
ATOM     11  C   UNL     1      -0.254   1.655  -2.455  0.00  0.00    +0.020 A 
ATOM     12  C   UNL     1       0.293   0.395  -2.639  0.00  0.00    +0.008 A 
ENDBRANCH   3   7
TORSDOF 1
ENDMDL
MODEL 5
REMARK VINA RESULT:    -3.445      2.644      6.136
REMARK INTER + INTRA:          -3.866
REMARK INTER:                  -3.645
REMARK INTRA:                  -0.221
REMARK UNBOUND:                -0.220
REMARK  Name = Nicotine.pdb
REMARK  2 active torsions:
REMARK  status: ('A' for Active; 'I' for Inactive)
REMARK    1  A    between atoms: C_3  and  C_6
REMARK    2  A    between atoms: N_4  and  C_12
REMARK                            x       y       z     vdW  Elec       q    Type
REMARK                         _______ _______ _______ _____ _____    ______ ____
ROOT
ATOM      1  C   UNL     1       5.921  -3.070   0.053  0.00  0.00    +0.017 C 
ATOM      2  C   UNL     1       5.082  -2.425  -1.082  0.00  0.00    +0.025 C 
ATOM      3  C   UNL     1       3.961  -1.695  -0.312  0.00  0.00    +0.088 C 
ATOM      4  N   UNL     1       3.846  -2.340   1.009  0.00  0.00    -0.298 NA
ATOM      5  C   UNL     1       4.823  -3.447   1.078  0.00  0.00    +0.085 C 
ATOM      6  C   UNL     1       4.068  -1.372   2.090  0.00  0.00    +0.105 C 
ENDROOT
BRANCH   3   7
ATOM      7  C   UNL     1       2.659  -1.820  -1.060  0.00  0.00    -0.012 A 
ATOM      8  C   UNL     1       1.967  -0.689  -1.452  0.00  0.00    +0.115 A 
ATOM      9  N   UNL     1       0.827  -0.790  -2.108  0.00  0.00    -0.263 NA
ATOM     10  C   UNL     1       0.305  -1.961  -2.414  0.00  0.00    +0.111 A 
ATOM     11  C   UNL     1       0.941  -3.135  -2.056  0.00  0.00    +0.020 A 
ATOM     12  C   UNL     1       2.144  -3.069  -1.370  0.00  0.00    +0.008 A 
ENDBRANCH   3   7
TORSDOF 1
ENDMDL
MODEL 6
REMARK VINA RESULT:    -3.442      1.653      4.392
REMARK INTER + INTRA:          -3.864
REMARK INTER:                  -3.646
REMARK INTRA:                  -0.217
REMARK UNBOUND:                -0.220
REMARK  Name = Nicotine.pdb
REMARK  2 active torsions:
REMARK  status: ('A' for Active; 'I' for Inactive)
REMARK    1  A    between atoms: C_3  and  C_6
REMARK    2  A    between atoms: N_4  and  C_12
REMARK                            x       y       z     vdW  Elec       q    Type
REMARK                         _______ _______ _______ _____ _____    ______ ____
ROOT
ATOM      1  C   UNL     1       0.220  -2.761  -2.452  0.00  0.00    +0.017 C 
ATOM      2  C   UNL     1      -0.688  -1.673  -3.082  0.00  0.00    +0.025 C 
ATOM      3  C   UNL     1       0.255  -0.457  -3.196  0.00  0.00    +0.088 C 
ATOM      4  N   UNL     1       1.342  -0.654  -2.221  0.00  0.00    -0.298 NA
ATOM      5  C   UNL     1       1.100  -1.919  -1.495  0.00  0.00    +0.085 C 
ATOM      6  C   UNL     1       2.651  -0.671  -2.887  0.00  0.00    +0.105 C 
ENDROOT
BRANCH   3   7
ATOM      7  C   UNL     1      -0.498   0.809  -2.878  0.00  0.00    -0.012 A 
ATOM      8  C   UNL     1       0.089   1.798  -2.112  0.00  0.00    +0.115 A 
ATOM      9  N   UNL     1      -0.564   2.908  -1.828  0.00  0.00    -0.263 NA
ATOM     10  C   UNL     1      -1.792   3.120  -2.258  0.00  0.00    +0.111 A 
ATOM     11  C   UNL     1      -2.443   2.176  -3.030  0.00  0.00    +0.020 A 
ATOM     12  C   UNL     1      -1.787   0.998  -3.353  0.00  0.00    +0.008 A 
ENDBRANCH   3   7
TORSDOF 1
ENDMDL
MODEL 7
REMARK VINA RESULT:    -3.340      1.685      4.506
REMARK INTER + INTRA:          -3.755
REMARK INTER:                  -3.584
REMARK INTRA:                  -0.171
REMARK UNBOUND:                -0.220
REMARK  Name = Nicotine.pdb
REMARK  2 active torsions:
REMARK  status: ('A' for Active; 'I' for Inactive)
REMARK    1  A    between atoms: C_3  and  C_6
REMARK    2  A    between atoms: N_4  and  C_12
REMARK                            x       y       z     vdW  Elec       q    Type
REMARK                         _______ _______ _______ _____ _____    ______ ____
ROOT
ATOM      1  C   UNL     1       1.976  -3.066  -1.008  0.00  0.00    +0.017 C 
ATOM      2  C   UNL     1       1.375  -3.473  -2.380  0.00  0.00    +0.025 C 
ATOM      3  C   UNL     1       1.559  -2.198  -3.231  0.00  0.00    +0.088 C 
ATOM      4  N   UNL     1       1.686  -1.064  -2.298  0.00  0.00    -0.298 NA
ATOM      5  C   UNL     1       1.564  -1.576  -0.916  0.00  0.00    +0.085 C 
ATOM      6  C   UNL     1       2.963  -0.365  -2.491  0.00  0.00    +0.105 C 
ENDROOT
BRANCH   3   7
ATOM      7  C   UNL     1       0.360  -1.999  -4.121  0.00  0.00    -0.012 A 
ATOM      8  C   UNL     1      -0.867  -1.667  -3.578  0.00  0.00    +0.115 A 
ATOM      9  N   UNL     1      -1.922  -1.491  -4.350  0.00  0.00    -0.263 NA
ATOM     10  C   UNL     1      -1.851  -1.623  -5.660  0.00  0.00    +0.111 A 
ATOM     11  C   UNL     1      -0.658  -1.953  -6.275  0.00  0.00    +0.020 A 
ATOM     12  C   UNL     1       0.473  -2.141  -5.496  0.00  0.00    +0.008 A 
ENDBRANCH   3   7
TORSDOF 1
ENDMDL
MODEL 8
REMARK VINA RESULT:    -3.292      2.161      4.045
REMARK INTER + INTRA:          -3.704
REMARK INTER:                  -3.516
REMARK INTRA:                  -0.189
REMARK UNBOUND:                -0.220
REMARK  Name = Nicotine.pdb
REMARK  2 active torsions:
REMARK  status: ('A' for Active; 'I' for Inactive)
REMARK    1  A    between atoms: C_3  and  C_6
REMARK    2  A    between atoms: N_4  and  C_12
REMARK                            x       y       z     vdW  Elec       q    Type
REMARK                         _______ _______ _______ _____ _____    ______ ____
ROOT
ATOM      1  C   UNL     1       1.743  -3.806  -2.724  0.00  0.00    +0.017 C 
ATOM      2  C   UNL     1       1.957  -3.011  -1.409  0.00  0.00    +0.025 C 
ATOM      3  C   UNL     1       0.963  -1.838  -1.548  0.00  0.00    +0.088 C 
ATOM      4  N   UNL     1       0.682  -1.671  -2.985  0.00  0.00    -0.298 NA
ATOM      5  C   UNL     1       1.474  -2.667  -3.739  0.00  0.00    +0.085 C 
ATOM      6  C   UNL     1      -0.752  -1.819  -3.263  0.00  0.00    +0.105 C 
ENDROOT
BRANCH   3   7
ATOM      7  C   UNL     1       1.577  -0.579  -0.994  0.00  0.00    -0.012 A 
ATOM      8  C   UNL     1       2.413  -0.633   0.105  0.00  0.00    +0.115 A 
ATOM      9  N   UNL     1       2.954   0.465   0.596  0.00  0.00    -0.263 NA
ATOM     10  C   UNL     1       2.722   1.649   0.065  0.00  0.00    +0.111 A 
ATOM     11  C   UNL     1       1.897   1.782  -1.036  0.00  0.00    +0.020 A 
ATOM     12  C   UNL     1       1.315   0.649  -1.583  0.00  0.00    +0.008 A 
ENDBRANCH   3   7
TORSDOF 1
ENDMDL
MODEL 9
REMARK VINA RESULT:    -3.259      1.178      2.440
REMARK INTER + INTRA:          -3.669
REMARK INTER:                  -3.481
REMARK INTRA:                  -0.189
REMARK UNBOUND:                -0.220
REMARK  Name = Nicotine.pdb
REMARK  2 active torsions:
REMARK  status: ('A' for Active; 'I' for Inactive)
REMARK    1  A    between atoms: C_3  and  C_6
REMARK    2  A    between atoms: N_4  and  C_12
REMARK                            x       y       z     vdW  Elec       q    Type
REMARK                         _______ _______ _______ _____ _____    ______ ____
ROOT
ATOM      1  C   UNL     1      -1.129   3.004  -2.551  0.00  0.00    +0.017 C 
ATOM      2  C   UNL     1       0.092   2.065  -2.367  0.00  0.00    +0.025 C 
ATOM      3  C   UNL     1      -0.179   0.939  -3.388  0.00  0.00    +0.088 C 
ATOM      4  N   UNL     1      -1.627   0.938  -3.662  0.00  0.00    -0.298 NA
ATOM      5  C   UNL     1      -2.263   1.990  -2.841  0.00  0.00    +0.085 C 
ATOM      6  C   UNL     1      -1.893   1.151  -5.091  0.00  0.00    +0.105 C 
ENDROOT
BRANCH   3   7
ATOM      7  C   UNL     1       0.236  -0.389  -2.809  0.00  0.00    -0.012 A 
ATOM      8  C   UNL     1       1.332  -0.474  -1.971  0.00  0.00    +0.115 A 
ATOM      9  N   UNL     1       1.702  -1.633  -1.460  0.00  0.00    -0.263 NA
ATOM     10  C   UNL     1       1.048  -2.747  -1.725  0.00  0.00    +0.111 A 
ATOM     11  C   UNL     1      -0.058  -2.739  -2.554  0.00  0.00    +0.020 A 
ATOM     12  C   UNL     1      -0.479  -1.539  -3.105  0.00  0.00    +0.008 A 
ENDBRANCH   3   7
TORSDOF 1
ENDMDL
MODEL 10
REMARK VINA RESULT:    -3.238      1.978      2.927
REMARK INTER + INTRA:          -3.647
REMARK INTER:                  -3.434
REMARK INTRA:                  -0.213
REMARK UNBOUND:                -0.220
REMARK  Name = Nicotine.pdb
REMARK  2 active torsions:
REMARK  status: ('A' for Active; 'I' for Inactive)
REMARK    1  A    between atoms: C_3  and  C_6
REMARK    2  A    between atoms: N_4  and  C_12
REMARK                            x       y       z     vdW  Elec       q    Type
REMARK                         _______ _______ _______ _____ _____    ______ ____
ROOT
ATOM      1  C   UNL     1       1.274  -2.261  -5.289  0.00  0.00    +0.017 C 
ATOM      2  C   UNL     1       1.815  -2.765  -3.926  0.00  0.00    +0.025 C 
ATOM      3  C   UNL     1       0.796  -2.198  -2.916  0.00  0.00    +0.088 C 
ATOM      4  N   UNL     1       0.135  -1.049  -3.561  0.00  0.00    -0.298 NA
ATOM      5  C   UNL     1       0.716  -0.867  -4.908  0.00  0.00    +0.085 C 
ATOM      6  C   UNL     1      -1.318  -1.251  -3.637  0.00  0.00    +0.105 C 
ENDROOT
BRANCH   3   7
ATOM      7  C   UNL     1       1.507  -1.746  -1.667  0.00  0.00    -0.012 A 
ATOM      8  C   UNL     1       2.287  -2.632  -0.947  0.00  0.00    +0.115 A 
ATOM      9  N   UNL     1       2.913  -2.245   0.147  0.00  0.00    -0.263 NA
ATOM     10  C   UNL     1       2.824  -1.009   0.596  0.00  0.00    +0.111 A 
ATOM     11  C   UNL     1       2.063  -0.067  -0.071  0.00  0.00    +0.020 A 
ATOM     12  C   UNL     1       1.394  -0.436  -1.228  0.00  0.00    +0.008 A 
ENDBRANCH   3   7
TORSDOF 1
ENDMDL
