MODEL 1
REMARK VINA RESULT:    -3.508      0.000      0.000
REMARK INTER + INTRA:          -3.921
REMARK INTER:                  -3.713
REMARK INTRA:                  -0.209
REMARK UNBOUND:                -0.209
REMARK  Name = Nicotine.pdb
REMARK  2 active torsions:
REMARK  status: ('A' for Active; 'I' for Inactive)
REMARK    1  A    between atoms: C_3  and  C_6
REMARK    2  A    between atoms: N_4  and  C_12
REMARK                            x       y       z     vdW  Elec       q    Type
REMARK                         _______ _______ _______ _____ _____    ______ ____
ROOT
ATOM      1  C   UNL     1       4.187  -6.097  -5.024  0.00  0.00    +0.017 C 
ATOM      2  C   UNL     1       4.476  -5.919  -3.510  0.00  0.00    +0.025 C 
ATOM      3  C   UNL     1       4.495  -4.385  -3.338  0.00  0.00    +0.088 C 
ATOM      4  N   UNL     1       4.777  -3.801  -4.662  0.00  0.00    -0.298 NA
ATOM      5  C   UNL     1       4.959  -4.900  -5.633  0.00  0.00    +0.085 C 
ATOM      6  C   UNL     1       3.697  -2.899  -5.081  0.00  0.00    +0.105 C 
ENDROOT
BRANCH   3   7
ATOM      7  C   UNL     1       5.572  -3.992  -2.362  0.00  0.00    -0.012 A 
ATOM      8  C   UNL     1       6.448  -4.940  -1.868  0.00  0.00    +0.115 A 
ATOM      9  N   UNL     1       7.394  -4.604  -1.013  0.00  0.00    -0.263 NA
ATOM     10  C   UNL     1       7.543  -3.362  -0.596  0.00  0.00    +0.111 A 
ATOM     11  C   UNL     1       6.704  -2.359  -1.047  0.00  0.00    +0.020 A 
ATOM     12  C   UNL     1       5.701  -2.674  -1.951  0.00  0.00    +0.008 A 
ENDBRANCH   3   7
TORSDOF 1
ENDMDL
MODEL 2
REMARK VINA RESULT:    -3.401      1.326      2.310
REMARK INTER + INTRA:          -3.809
REMARK INTER:                  -3.570
REMARK INTRA:                  -0.239
REMARK UNBOUND:                -0.209
REMARK  Name = Nicotine.pdb
REMARK  2 active torsions:
REMARK  status: ('A' for Active; 'I' for Inactive)
REMARK    1  A    between atoms: C_3  and  C_6
REMARK    2  A    between atoms: N_4  and  C_12
REMARK                            x       y       z     vdW  Elec       q    Type
REMARK                         _______ _______ _______ _____ _____    ______ ____
ROOT
ATOM      1  C   UNL     1       3.474  -2.917  -6.501  0.00  0.00    +0.017 C 
ATOM      2  C   UNL     1       4.725  -2.463  -5.702  0.00  0.00    +0.025 C 
ATOM      3  C   UNL     1       4.949  -3.629  -4.716  0.00  0.00    +0.088 C 
ATOM      4  N   UNL     1       3.664  -4.337  -4.577  0.00  0.00    -0.298 NA
ATOM      5  C   UNL     1       2.654  -3.648  -5.409  0.00  0.00    +0.085 C 
ATOM      6  C   UNL     1       3.794  -5.747  -4.965  0.00  0.00    +0.105 C 
ENDROOT
BRANCH   3   7
ATOM      7  C   UNL     1       5.388  -3.092  -3.379  0.00  0.00    -0.012 A 
ATOM      8  C   UNL     1       5.633  -3.953  -2.326  0.00  0.00    +0.115 A 
ATOM      9  N   UNL     1       6.018  -3.491  -1.152  0.00  0.00    -0.263 NA
ATOM     10  C   UNL     1       6.183  -2.202  -0.935  0.00  0.00    +0.111 A 
ATOM     11  C   UNL     1       5.958  -1.280  -1.941  0.00  0.00    +0.020 A 
ATOM     12  C   UNL     1       5.558  -1.729  -3.190  0.00  0.00    +0.008 A 
ENDBRANCH   3   7
TORSDOF 1
ENDMDL
MODEL 3
REMARK VINA RESULT:    -3.264      1.198      4.755
REMARK INTER + INTRA:          -3.664
REMARK INTER:                  -3.453
REMARK INTRA:                  -0.211
REMARK UNBOUND:                -0.209
REMARK  Name = Nicotine.pdb
REMARK  2 active torsions:
REMARK  status: ('A' for Active; 'I' for Inactive)
REMARK    1  A    between atoms: C_3  and  C_6
REMARK    2  A    between atoms: N_4  and  C_12
REMARK                            x       y       z     vdW  Elec       q    Type
REMARK                         _______ _______ _______ _____ _____    ______ ____
ROOT
ATOM      1  C   UNL     1       7.378  -1.918  -0.366  0.00  0.00    +0.017 C 
ATOM      2  C   UNL     1       5.972  -2.038  -1.009  0.00  0.00    +0.025 C 
ATOM      3  C   UNL     1       5.988  -3.457  -1.616  0.00  0.00    +0.088 C 
ATOM      4  N   UNL     1       7.400  -3.834  -1.808  0.00  0.00    -0.298 NA
ATOM      5  C   UNL     1       8.252  -2.707  -1.373  0.00  0.00    +0.085 C 
ATOM      6  C   UNL     1       7.724  -5.058  -1.064  0.00  0.00    +0.105 C 
ENDROOT
BRANCH   3   7
ATOM      7  C   UNL     1       5.271  -3.456  -2.941  0.00  0.00    -0.012 A 
ATOM      8  C   UNL     1       5.388  -2.379  -3.798  0.00  0.00    +0.115 A 
ATOM      9  N   UNL     1       4.763  -2.370  -4.960  0.00  0.00    -0.263 NA
ATOM     10  C   UNL     1       4.008  -3.378  -5.349  0.00  0.00    +0.111 A 
ATOM     11  C   UNL     1       3.844  -4.491  -4.544  0.00  0.00    +0.020 A 
ATOM     12  C   UNL     1       4.490  -4.538  -3.318  0.00  0.00    +0.008 A 
ENDBRANCH   3   7
TORSDOF 1
ENDMDL
MODEL 4
REMARK VINA RESULT:    -3.219      2.769      6.169
REMARK INTER + INTRA:          -3.616
REMARK INTER:                  -3.428
REMARK INTRA:                  -0.189
REMARK UNBOUND:                -0.209
REMARK  Name = Nicotine.pdb
REMARK  2 active torsions:
REMARK  status: ('A' for Active; 'I' for Inactive)
REMARK    1  A    between atoms: C_3  and  C_6
REMARK    2  A    between atoms: N_4  and  C_12
REMARK                            x       y       z     vdW  Elec       q    Type
REMARK                         _______ _______ _______ _____ _____    ______ ____
ROOT
ATOM      1  C   UNL     1       9.429  -4.541   2.961  0.00  0.00    +0.017 C 
ATOM      2  C   UNL     1       9.007  -4.776   1.487  0.00  0.00    +0.025 C 
ATOM      3  C   UNL     1       8.949  -3.345   0.910  0.00  0.00    +0.088 C 
ATOM      4  N   UNL     1       8.771  -2.423   2.047  0.00  0.00    -0.298 NA
ATOM      5  C   UNL     1       8.693  -3.219   3.291  0.00  0.00    +0.085 C 
ATOM      6  C   UNL     1       9.869  -1.450   2.112  0.00  0.00    +0.105 C 
ENDROOT
BRANCH   3   7
ATOM      7  C   UNL     1       7.784  -3.221  -0.038  0.00  0.00    -0.012 A 
ATOM      8  C   UNL     1       7.415  -4.289  -0.834  0.00  0.00    +0.115 A 
ATOM      9  N   UNL     1       6.397  -4.189  -1.667  0.00  0.00    -0.263 NA
ATOM     10  C   UNL     1       5.696  -3.078  -1.774  0.00  0.00    +0.111 A 
ATOM     11  C   UNL     1       6.007  -1.969  -1.010  0.00  0.00    +0.020 A 
ATOM     12  C   UNL     1       7.067  -2.038  -0.120  0.00  0.00    +0.008 A 
ENDBRANCH   3   7
TORSDOF 1
ENDMDL
MODEL 5
REMARK VINA RESULT:    -3.171      2.400      4.995
REMARK INTER + INTRA:          -3.566
REMARK INTER:                  -3.348
REMARK INTRA:                  -0.218
REMARK UNBOUND:                -0.209
REMARK  Name = Nicotine.pdb
REMARK  2 active torsions:
REMARK  status: ('A' for Active; 'I' for Inactive)
REMARK    1  A    between atoms: C_3  and  C_6
REMARK    2  A    between atoms: N_4  and  C_12
REMARK                            x       y       z     vdW  Elec       q    Type
REMARK                         _______ _______ _______ _____ _____    ______ ____
ROOT
ATOM      1  C   UNL     1       4.236  -5.009  -3.727  0.00  0.00    +0.017 C 
ATOM      2  C   UNL     1       3.373  -4.240  -4.761  0.00  0.00    +0.025 C 
ATOM      3  C   UNL     1       4.286  -3.064  -5.171  0.00  0.00    +0.088 C 
ATOM      4  N   UNL     1       5.261  -2.869  -4.083  0.00  0.00    -0.298 NA
ATOM      5  C   UNL     1       4.976  -3.850  -3.013  0.00  0.00    +0.085 C 
ATOM      6  C   UNL     1       6.637  -3.012  -4.576  0.00  0.00    +0.105 C 
ENDROOT
BRANCH   3   7
ATOM      7  C   UNL     1       3.463  -1.815  -5.354  0.00  0.00    -0.012 A 
ATOM      8  C   UNL     1       3.933  -0.597  -4.901  0.00  0.00    +0.115 A 
ATOM      9  N   UNL     1       3.219   0.501  -5.058  0.00  0.00    -0.263 NA
ATOM     10  C   UNL     1       2.039   0.483  -5.646  0.00  0.00    +0.111 A 
ATOM     11  C   UNL     1       1.505  -0.699  -6.125  0.00  0.00    +0.020 A 
ATOM     12  C   UNL     1       2.229  -1.873  -5.983  0.00  0.00    +0.008 A 
ENDBRANCH   3   7
TORSDOF 1
ENDMDL
MODEL 6
REMARK VINA RESULT:    -3.136      1.022      1.154
REMARK INTER + INTRA:          -3.528
REMARK INTER:                  -3.312
REMARK INTRA:                  -0.215
REMARK UNBOUND:                -0.209
REMARK  Name = Nicotine.pdb
REMARK  2 active torsions:
REMARK  status: ('A' for Active; 'I' for Inactive)
REMARK    1  A    between atoms: C_3  and  C_6
REMARK    2  A    between atoms: N_4  and  C_12
REMARK                            x       y       z     vdW  Elec       q    Type
REMARK                         _______ _______ _______ _____ _____    ______ ____
ROOT
ATOM      1  C   UNL     1       4.372  -4.789  -4.773  0.00  0.00    +0.017 C 
ATOM      2  C   UNL     1       4.545  -4.759  -3.232  0.00  0.00    +0.025 C 
ATOM      3  C   UNL     1       4.924  -3.288  -2.954  0.00  0.00    +0.088 C 
ATOM      4  N   UNL     1       5.471  -2.735  -4.206  0.00  0.00    -0.298 NA
ATOM      5  C   UNL     1       5.471  -3.799  -5.231  0.00  0.00    +0.085 C 
ATOM      6  C   UNL     1       4.693  -1.572  -4.653  0.00  0.00    +0.105 C 
ENDROOT
BRANCH   3   7
ATOM      7  C   UNL     1       5.963  -3.223  -1.865  0.00  0.00    -0.012 A 
ATOM      8  C   UNL     1       6.774  -4.312  -1.607  0.00  0.00    +0.115 A 
ATOM      9  N   UNL     1       7.686  -4.264  -0.656  0.00  0.00    -0.263 NA
ATOM     10  C   UNL     1       7.861  -3.185   0.082  0.00  0.00    +0.111 A 
ATOM     11  C   UNL     1       7.088  -2.057  -0.119  0.00  0.00    +0.020 A 
ATOM     12  C   UNL     1       6.122  -2.069  -1.113  0.00  0.00    +0.008 A 
ENDBRANCH   3   7
TORSDOF 1
ENDMDL
MODEL 7
REMARK VINA RESULT:    -3.121      8.861      9.840
REMARK INTER + INTRA:          -3.512
REMARK INTER:                  -3.298
REMARK INTRA:                  -0.214
REMARK UNBOUND:                -0.209
REMARK  Name = Nicotine.pdb
REMARK  2 active torsions:
REMARK  status: ('A' for Active; 'I' for Inactive)
REMARK    1  A    between atoms: C_3  and  C_6
REMARK    2  A    between atoms: N_4  and  C_12
REMARK                            x       y       z     vdW  Elec       q    Type
REMARK                         _______ _______ _______ _____ _____    ______ ____
ROOT
ATOM      1  C   UNL     1      -0.191   4.079  -5.490  0.00  0.00    +0.017 C 
ATOM      2  C   UNL     1       0.372   5.095  -4.462  0.00  0.00    +0.025 C 
ATOM      3  C   UNL     1       1.838   5.269  -4.914  0.00  0.00    +0.088 C 
ATOM      4  N   UNL     1       2.198   4.075  -5.699  0.00  0.00    -0.298 NA
ATOM      5  C   UNL     1       1.035   3.163  -5.730  0.00  0.00    +0.085 C 
ATOM      6  C   UNL     1       2.616   4.443  -7.057  0.00  0.00    +0.105 C 
ENDROOT
BRANCH   3   7
ATOM      7  C   UNL     1       2.736   5.383  -3.709  0.00  0.00    -0.012 A 
ATOM      8  C   UNL     1       2.587   6.434  -2.824  0.00  0.00    +0.115 A 
ATOM      9  N   UNL     1       3.369   6.541  -1.767  0.00  0.00    -0.263 NA
ATOM     10  C   UNL     1       4.316   5.660  -1.513  0.00  0.00    +0.111 A 
ATOM     11  C   UNL     1       4.523   4.582  -2.354  0.00  0.00    +0.020 A 
ATOM     12  C   UNL     1       3.717   4.433  -3.472  0.00  0.00    +0.008 A 
ENDBRANCH   3   7
TORSDOF 1
ENDMDL
MODEL 8
REMARK VINA RESULT:    -3.106      9.128     10.381
REMARK INTER + INTRA:          -3.497
REMARK INTER:                  -3.243
REMARK INTRA:                  -0.254
REMARK UNBOUND:                -0.209
REMARK  Name = Nicotine.pdb
REMARK  2 active torsions:
REMARK  status: ('A' for Active; 'I' for Inactive)
REMARK    1  A    between atoms: C_3  and  C_6
REMARK    2  A    between atoms: N_4  and  C_12
REMARK                            x       y       z     vdW  Elec       q    Type
REMARK                         _______ _______ _______ _____ _____    ______ ____
ROOT
ATOM      1  C   UNL     1       5.170   5.564  -3.542  0.00  0.00    +0.017 C 
ATOM      2  C   UNL     1       3.879   4.729  -3.331  0.00  0.00    +0.025 C 
ATOM      3  C   UNL     1       3.517   4.284  -4.764  0.00  0.00    +0.088 C 
ATOM      4  N   UNL     1       4.161   5.230  -5.692  0.00  0.00    -0.298 NA
ATOM      5  C   UNL     1       4.881   6.250  -4.900  0.00  0.00    +0.085 C 
ATOM      6  C   UNL     1       5.074   4.532  -6.607  0.00  0.00    +0.105 C 
ENDROOT
BRANCH   3   7
ATOM      7  C   UNL     1       2.022   4.320  -4.950  0.00  0.00    -0.012 A 
ATOM      8  C   UNL     1       1.399   3.414  -5.788  0.00  0.00    +0.115 A 
ATOM      9  N   UNL     1       0.092   3.438  -5.956  0.00  0.00    -0.263 NA
ATOM     10  C   UNL     1      -0.670   4.319  -5.338  0.00  0.00    +0.111 A 
ATOM     11  C   UNL     1      -0.119   5.256  -4.484  0.00  0.00    +0.020 A 
ATOM     12  C   UNL     1       1.252   5.258  -4.278  0.00  0.00    +0.008 A 
ENDBRANCH   3   7
TORSDOF 1
ENDMDL
MODEL 9
REMARK VINA RESULT:    -3.097      2.281      4.299
REMARK INTER + INTRA:          -3.487
REMARK INTER:                  -3.263
REMARK INTRA:                  -0.224
REMARK UNBOUND:                -0.209
REMARK  Name = Nicotine.pdb
REMARK  2 active torsions:
REMARK  status: ('A' for Active; 'I' for Inactive)
REMARK    1  A    between atoms: C_3  and  C_6
REMARK    2  A    between atoms: N_4  and  C_12
REMARK                            x       y       z     vdW  Elec       q    Type
REMARK                         _______ _______ _______ _____ _____    ______ ____
ROOT
ATOM      1  C   UNL     1       4.623   0.559  -3.545  0.00  0.00    +0.017 C 
ATOM      2  C   UNL     1       5.208  -0.804  -3.091  0.00  0.00    +0.025 C 
ATOM      3  C   UNL     1       5.295  -1.601  -4.410  0.00  0.00    +0.088 C 
ATOM      4  N   UNL     1       4.340  -0.992  -5.353  0.00  0.00    -0.298 NA
ATOM      5  C   UNL     1       3.650   0.124  -4.670  0.00  0.00    +0.085 C 
ATOM      6  C   UNL     1       5.021  -0.526  -6.567  0.00  0.00    +0.105 C 
ENDROOT
BRANCH   3   7
ATOM      7  C   UNL     1       4.928  -3.041  -4.164  0.00  0.00    -0.012 A 
ATOM      8  C   UNL     1       3.937  -3.647  -4.913  0.00  0.00    +0.115 A 
ATOM      9  N   UNL     1       3.610  -4.908  -4.704  0.00  0.00    -0.263 NA
ATOM     10  C   UNL     1       4.208  -5.636  -3.782  0.00  0.00    +0.111 A 
ATOM     11  C   UNL     1       5.209  -5.098  -2.995  0.00  0.00    +0.020 A 
ATOM     12  C   UNL     1       5.584  -3.777  -3.189  0.00  0.00    +0.008 A 
ENDBRANCH   3   7
TORSDOF 1
ENDMDL
MODEL 10
REMARK VINA RESULT:    -3.096      2.192      4.929
REMARK INTER + INTRA:          -3.486
REMARK INTER:                  -3.291
REMARK INTRA:                  -0.195
REMARK UNBOUND:                -0.209
REMARK  Name = Nicotine.pdb
REMARK  2 active torsions:
REMARK  status: ('A' for Active; 'I' for Inactive)
REMARK    1  A    between atoms: C_3  and  C_6
REMARK    2  A    between atoms: N_4  and  C_12
REMARK                            x       y       z     vdW  Elec       q    Type
REMARK                         _______ _______ _______ _____ _____    ______ ____
ROOT
ATOM      1  C   UNL     1       5.846  -3.826  -2.030  0.00  0.00    +0.017 C 
ATOM      2  C   UNL     1       5.057  -3.798  -3.366  0.00  0.00    +0.025 C 
ATOM      3  C   UNL     1       5.520  -2.476  -4.014  0.00  0.00    +0.088 C 
ATOM      4  N   UNL     1       6.022  -1.611  -2.932  0.00  0.00    -0.298 NA
ATOM      5  C   UNL     1       5.867  -2.325  -1.647  0.00  0.00    +0.085 C 
ATOM      6  C   UNL     1       7.424  -1.238  -3.163  0.00  0.00    +0.105 C 
ENDROOT
BRANCH   3   7
ATOM      7  C   UNL     1       4.359  -1.811  -4.708  0.00  0.00    -0.012 A 
ATOM      8  C   UNL     1       3.462  -2.561  -5.445  0.00  0.00    +0.115 A 
ATOM      9  N   UNL     1       2.443  -1.987  -6.054  0.00  0.00    -0.263 NA
ATOM     10  C   UNL     1       2.239  -0.686  -5.988  0.00  0.00    +0.111 A 
ATOM     11  C   UNL     1       3.094   0.128  -5.268  0.00  0.00    +0.020 A 
ATOM     12  C   UNL     1       4.173  -0.441  -4.610  0.00  0.00    +0.008 A 
ENDBRANCH   3   7
TORSDOF 1
ENDMDL
