MODEL 1
REMARK VINA RESULT:    -4.000      0.000      0.000
REMARK INTER + INTRA:          -4.459
REMARK INTER:                  -4.234
REMARK INTRA:                  -0.225
REMARK UNBOUND:                -0.225
REMARK  Name = Nicotine.pdb
REMARK  2 active torsions:
REMARK  status: ('A' for Active; 'I' for Inactive)
REMARK    1  A    between atoms: C_3  and  C_6
REMARK    2  A    between atoms: N_4  and  C_12
REMARK                            x       y       z     vdW  Elec       q    Type
REMARK                         _______ _______ _______ _____ _____    ______ ____
ROOT
ATOM      1  C   UNL     1       9.444  -2.349   5.170  0.00  0.00    +0.017 C 
ATOM      2  C   UNL     1       8.185  -1.443   5.169  0.00  0.00    +0.025 C 
ATOM      3  C   UNL     1       8.493  -0.421   4.053  0.00  0.00    +0.088 C 
ATOM      4  N   UNL     1       9.956  -0.393   3.878  0.00  0.00    -0.298 NA
ATOM      5  C   UNL     1      10.565  -1.328   4.849  0.00  0.00    +0.085 C 
ATOM      6  C   UNL     1      10.330  -0.745   2.502  0.00  0.00    +0.105 C 
ENDROOT
BRANCH   3   7
ATOM      7  C   UNL     1       7.997   0.943   4.456  0.00  0.00    -0.012 A 
ATOM      8  C   UNL     1       8.363   2.062   3.732  0.00  0.00    +0.115 A 
ATOM      9  N   UNL     1       7.933   3.260   4.077  0.00  0.00    -0.263 NA
ATOM     10  C   UNL     1       7.145   3.439   5.119  0.00  0.00    +0.111 A 
ATOM     11  C   UNL     1       6.736   2.367   5.890  0.00  0.00    +0.020 A 
ATOM     12  C   UNL     1       7.164   1.092   5.554  0.00  0.00    +0.008 A 
ENDBRANCH   3   7
TORSDOF 1
ENDMDL
MODEL 2
REMARK VINA RESULT:    -3.789      1.345      1.722
REMARK INTER + INTRA:          -4.236
REMARK INTER:                  -4.018
REMARK INTRA:                  -0.218
REMARK UNBOUND:                -0.225
REMARK  Name = Nicotine.pdb
REMARK  2 active torsions:
REMARK  status: ('A' for Active; 'I' for Inactive)
REMARK    1  A    between atoms: C_3  and  C_6
REMARK    2  A    between atoms: N_4  and  C_12
REMARK                            x       y       z     vdW  Elec       q    Type
REMARK                         _______ _______ _______ _____ _____    ______ ____
ROOT
ATOM      1  C   UNL     1       8.063  -1.468   5.262  0.00  0.00    +0.017 C 
ATOM      2  C   UNL     1       7.563  -0.024   5.527  0.00  0.00    +0.025 C 
ATOM      3  C   UNL     1       7.703   0.651   4.146  0.00  0.00    +0.088 C 
ATOM      4  N   UNL     1       8.698  -0.122   3.381  0.00  0.00    -0.298 NA
ATOM      5  C   UNL     1       9.195  -1.224   4.233  0.00  0.00    +0.085 C 
ATOM      6  C   UNL     1       8.119  -0.640   2.135  0.00  0.00    +0.105 C 
ENDROOT
BRANCH   3   7
ATOM      7  C   UNL     1       8.176   2.072   4.315  0.00  0.00    -0.012 A 
ATOM      8  C   UNL     1       8.746   2.750   3.255  0.00  0.00    +0.115 A 
ATOM      9  N   UNL     1       9.162   3.993   3.394  0.00  0.00    -0.263 NA
ATOM     10  C   UNL     1       9.053   4.636   4.540  0.00  0.00    +0.111 A 
ATOM     11  C   UNL     1       8.492   4.023   5.645  0.00  0.00    +0.020 A 
ATOM     12  C   UNL     1       8.038   2.717   5.534  0.00  0.00    +0.008 A 
ENDBRANCH   3   7
TORSDOF 1
ENDMDL
MODEL 3
REMARK VINA RESULT:    -3.782      1.343      4.498
REMARK INTER + INTRA:          -4.229
REMARK INTER:                  -4.040
REMARK INTRA:                  -0.189
REMARK UNBOUND:                -0.225
REMARK  Name = Nicotine.pdb
REMARK  2 active torsions:
REMARK  status: ('A' for Active; 'I' for Inactive)
REMARK    1  A    between atoms: C_3  and  C_6
REMARK    2  A    between atoms: N_4  and  C_12
REMARK                            x       y       z     vdW  Elec       q    Type
REMARK                         _______ _______ _______ _____ _____    ______ ____
ROOT
ATOM      1  C   UNL     1       8.695   3.953   4.230  0.00  0.00    +0.017 C 
ATOM      2  C   UNL     1       8.683   2.509   3.662  0.00  0.00    +0.025 C 
ATOM      3  C   UNL     1       7.562   1.826   4.475  0.00  0.00    +0.088 C 
ATOM      4  N   UNL     1       7.394   2.596   5.720  0.00  0.00    -0.298 NA
ATOM      5  C   UNL     1       8.373   3.704   5.725  0.00  0.00    +0.085 C 
ATOM      6  C   UNL     1       6.021   3.105   5.843  0.00  0.00    +0.105 C 
ENDROOT
BRANCH   3   7
ATOM      7  C   UNL     1       7.954   0.407   4.797  0.00  0.00    -0.012 A 
ATOM      8  C   UNL     1       8.713  -0.328   3.906  0.00  0.00    +0.115 A 
ATOM      9  N   UNL     1       9.061  -1.570   4.180  0.00  0.00    -0.263 NA
ATOM     10  C   UNL     1       8.702  -2.158   5.305  0.00  0.00    +0.111 A 
ATOM     11  C   UNL     1       7.943  -1.485   6.244  0.00  0.00    +0.020 A 
ATOM     12  C   UNL     1       7.563  -0.176   5.992  0.00  0.00    +0.008 A 
ENDBRANCH   3   7
TORSDOF 1
ENDMDL
MODEL 4
REMARK VINA RESULT:    -3.453      1.660      2.075
REMARK INTER + INTRA:          -3.880
REMARK INTER:                  -3.624
REMARK INTRA:                  -0.256
REMARK UNBOUND:                -0.225
REMARK  Name = Nicotine.pdb
REMARK  2 active torsions:
REMARK  status: ('A' for Active; 'I' for Inactive)
REMARK    1  A    between atoms: C_3  and  C_6
REMARK    2  A    between atoms: N_4  and  C_12
REMARK                            x       y       z     vdW  Elec       q    Type
REMARK                         _______ _______ _______ _____ _____    ______ ____
ROOT
ATOM      1  C   UNL     1       8.314  -0.814   1.837  0.00  0.00    +0.017 C 
ATOM      2  C   UNL     1       7.516   0.418   2.339  0.00  0.00    +0.025 C 
ATOM      3  C   UNL     1       8.627   1.405   2.755  0.00  0.00    +0.088 C 
ATOM      4  N   UNL     1       9.842   0.612   3.014  0.00  0.00    -0.298 NA
ATOM      5  C   UNL     1       9.526  -0.817   2.803  0.00  0.00    +0.085 C 
ATOM      6  C   UNL     1      10.946   1.041   2.146  0.00  0.00    +0.105 C 
ENDROOT
BRANCH   3   7
ATOM      7  C   UNL     1       8.217   2.141   4.004  0.00  0.00    -0.012 A 
ATOM      8  C   UNL     1       8.864   3.305   4.374  0.00  0.00    +0.115 A 
ATOM      9  N   UNL     1       8.512   3.956   5.466  0.00  0.00    -0.263 NA
ATOM     10  C   UNL     1       7.538   3.527   6.244  0.00  0.00    +0.111 A 
ATOM     11  C   UNL     1       6.845   2.371   5.938  0.00  0.00    +0.020 A 
ATOM     12  C   UNL     1       7.184   1.663   4.795  0.00  0.00    +0.008 A 
ENDBRANCH   3   7
TORSDOF 1
ENDMDL
MODEL 5
REMARK VINA RESULT:    -3.407      1.496      4.438
REMARK INTER + INTRA:          -3.831
REMARK INTER:                  -3.631
REMARK INTRA:                  -0.200
REMARK UNBOUND:                -0.225
REMARK  Name = Nicotine.pdb
REMARK  2 active torsions:
REMARK  status: ('A' for Active; 'I' for Inactive)
REMARK    1  A    between atoms: C_3  and  C_6
REMARK    2  A    between atoms: N_4  and  C_12
REMARK                            x       y       z     vdW  Elec       q    Type
REMARK                         _______ _______ _______ _____ _____    ______ ____
ROOT
ATOM      1  C   UNL     1       8.147   1.033   1.771  0.00  0.00    +0.017 C 
ATOM      2  C   UNL     1       8.093  -0.427   2.293  0.00  0.00    +0.025 C 
ATOM      3  C   UNL     1       7.934  -0.245   3.818  0.00  0.00    +0.088 C 
ATOM      4  N   UNL     1       8.436   1.100   4.151  0.00  0.00    -0.298 NA
ATOM      5  C   UNL     1       8.918   1.744   2.911  0.00  0.00    +0.085 C 
ATOM      6  C   UNL     1       7.390   1.908   4.793  0.00  0.00    +0.105 C 
ENDROOT
BRANCH   3   7
ATOM      7  C   UNL     1       8.741  -1.289   4.545  0.00  0.00    -0.012 A 
ATOM      8  C   UNL     1      10.042  -1.557   4.165  0.00  0.00    +0.115 A 
ATOM      9  N   UNL     1      10.755  -2.470   4.797  0.00  0.00    -0.263 NA
ATOM     10  C   UNL     1      10.261  -3.158   5.807  0.00  0.00    +0.111 A 
ATOM     11  C   UNL     1       8.967  -2.944   6.244  0.00  0.00    +0.020 A 
ATOM     12  C   UNL     1       8.189  -1.989   5.608  0.00  0.00    +0.008 A 
ENDBRANCH   3   7
TORSDOF 1
ENDMDL
MODEL 6
REMARK VINA RESULT:    -3.332      2.292      3.477
REMARK INTER + INTRA:          -3.752
REMARK INTER:                  -3.543
REMARK INTRA:                  -0.210
REMARK UNBOUND:                -0.225
REMARK  Name = Nicotine.pdb
REMARK  2 active torsions:
REMARK  status: ('A' for Active; 'I' for Inactive)
REMARK    1  A    between atoms: C_3  and  C_6
REMARK    2  A    between atoms: N_4  and  C_12
REMARK                            x       y       z     vdW  Elec       q    Type
REMARK                         _______ _______ _______ _____ _____    ______ ____
ROOT
ATOM      1  C   UNL     1       7.446   0.492   5.385  0.00  0.00    +0.017 C 
ATOM      2  C   UNL     1       7.236   2.016   5.582  0.00  0.00    +0.025 C 
ATOM      3  C   UNL     1       7.847   2.620   4.300  0.00  0.00    +0.088 C 
ATOM      4  N   UNL     1       8.794   1.628   3.759  0.00  0.00    -0.298 NA
ATOM      5  C   UNL     1       8.814   0.456   4.659  0.00  0.00    +0.085 C 
ATOM      6  C   UNL     1       8.425   1.237   2.392  0.00  0.00    +0.105 C 
ENDROOT
BRANCH   3   7
ATOM      7  C   UNL     1       8.574   3.898   4.630  0.00  0.00    -0.012 A 
ATOM      8  C   UNL     1       8.740   4.287   5.946  0.00  0.00    +0.115 A 
ATOM      9  N   UNL     1       9.375   5.404   6.244  0.00  0.00    -0.263 NA
ATOM     10  C   UNL     1       9.872   6.189   5.309  0.00  0.00    +0.111 A 
ATOM     11  C   UNL     1       9.745   5.865   3.971  0.00  0.00    +0.020 A 
ATOM     12  C   UNL     1       9.089   4.695   3.620  0.00  0.00    +0.008 A 
ENDBRANCH   3   7
TORSDOF 1
ENDMDL
MODEL 7
REMARK VINA RESULT:    -3.150      1.786      2.617
REMARK INTER + INTRA:          -3.559
REMARK INTER:                  -3.314
REMARK INTRA:                  -0.245
REMARK UNBOUND:                -0.225
REMARK  Name = Nicotine.pdb
REMARK  2 active torsions:
REMARK  status: ('A' for Active; 'I' for Inactive)
REMARK    1  A    between atoms: C_3  and  C_6
REMARK    2  A    between atoms: N_4  and  C_12
REMARK                            x       y       z     vdW  Elec       q    Type
REMARK                         _______ _______ _______ _____ _____    ______ ____
ROOT
ATOM      1  C   UNL     1       7.978  -0.554   1.920  0.00  0.00    +0.017 C 
ATOM      2  C   UNL     1       8.278   0.967   1.872  0.00  0.00    +0.025 C 
ATOM      3  C   UNL     1       9.516   1.106   2.783  0.00  0.00    +0.088 C 
ATOM      4  N   UNL     1       9.531  -0.063   3.681  0.00  0.00    -0.298 NA
ATOM      5  C   UNL     1       8.349  -0.900   3.384  0.00  0.00    +0.085 C 
ATOM      6  C   UNL     1      10.773  -0.831   3.526  0.00  0.00    +0.105 C 
ENDROOT
BRANCH   3   7
ATOM      7  C   UNL     1       9.419   2.374   3.591  0.00  0.00    -0.012 A 
ATOM      8  C   UNL     1      10.526   3.185   3.754  0.00  0.00    +0.115 A 
ATOM      9  N   UNL     1      10.449   4.297   4.460  0.00  0.00    -0.263 NA
ATOM     10  C   UNL     1       9.325   4.677   5.034  0.00  0.00    +0.111 A 
ATOM     11  C   UNL     1       8.176   3.917   4.914  0.00  0.00    +0.020 A 
ATOM     12  C   UNL     1       8.217   2.744   4.175  0.00  0.00    +0.008 A 
ENDBRANCH   3   7
TORSDOF 1
ENDMDL
MODEL 8
REMARK VINA RESULT:    -2.470      1.616      4.510
REMARK INTER + INTRA:          -2.840
REMARK INTER:                  -2.641
REMARK INTRA:                  -0.198
REMARK UNBOUND:                -0.225
REMARK  Name = Nicotine.pdb
REMARK  2 active torsions:
REMARK  status: ('A' for Active; 'I' for Inactive)
REMARK    1  A    between atoms: C_3  and  C_6
REMARK    2  A    between atoms: N_4  and  C_12
REMARK                            x       y       z     vdW  Elec       q    Type
REMARK                         _______ _______ _______ _____ _____    ______ ____
ROOT
ATOM      1  C   UNL     1       7.360   3.130   4.914  0.00  0.00    +0.017 C 
ATOM      2  C   UNL     1       7.462   1.631   5.302  0.00  0.00    +0.025 C 
ATOM      3  C   UNL     1       8.918   1.498   5.796  0.00  0.00    +0.088 C 
ATOM      4  N   UNL     1       9.684   2.609   5.202  0.00  0.00    -0.298 NA
ATOM      5  C   UNL     1       8.776   3.403   4.347  0.00  0.00    +0.085 C 
ATOM      6  C   UNL     1      10.293   3.446   6.244  0.00  0.00    +0.105 C 
ENDROOT
BRANCH   3   7
ATOM      7  C   UNL     1       9.493   0.180   5.348  0.00  0.00    -0.012 A 
ATOM      8  C   UNL     1       9.351  -0.236   4.037  0.00  0.00    +0.115 A 
ATOM      9  N   UNL     1       9.851  -1.388   3.636  0.00  0.00    -0.263 NA
ATOM     10  C   UNL     1      10.501  -2.185   4.461  0.00  0.00    +0.111 A 
ATOM     11  C   UNL     1      10.684  -1.836   5.786  0.00  0.00    +0.020 A 
ATOM     12  C   UNL     1      10.177  -0.629   6.242  0.00  0.00    +0.008 A 
ENDBRANCH   3   7
TORSDOF 1
ENDMDL
