MODEL 1
REMARK VINA RESULT:    -3.419      0.000      0.000
REMARK INTER + INTRA:          -3.809
REMARK INTER:                  -3.619
REMARK INTRA:                  -0.190
REMARK UNBOUND:                -0.190
REMARK  Name = Nicotine.pdb
REMARK  2 active torsions:
REMARK  status: ('A' for Active; 'I' for Inactive)
REMARK    1  A    between atoms: C_3  and  C_6
REMARK    2  A    between atoms: N_4  and  C_12
REMARK                            x       y       z     vdW  Elec       q    Type
REMARK                         _______ _______ _______ _____ _____    ______ ____
ROOT
ATOM      1  C   UNL     1       9.692   4.981  -1.856  0.00  0.00    +0.017 C 
ATOM      2  C   UNL     1       8.395   5.782  -1.571  0.00  0.00    +0.025 C 
ATOM      3  C   UNL     1       7.311   4.684  -1.527  0.00  0.00    +0.088 C 
ATOM      4  N   UNL     1       7.831   3.526  -2.276  0.00  0.00    -0.298 NA
ATOM      5  C   UNL     1       9.171   3.868  -2.799  0.00  0.00    +0.085 C 
ATOM      6  C   UNL     1       7.887   2.330  -1.425  0.00  0.00    +0.105 C 
ENDROOT
BRANCH   3   7
ATOM      7  C   UNL     1       6.045   5.187  -2.173  0.00  0.00    -0.012 A 
ATOM      8  C   UNL     1       5.665   6.508  -2.031  0.00  0.00    +0.115 A 
ATOM      9  N   UNL     1       4.559   6.956  -2.593  0.00  0.00    -0.263 NA
ATOM     10  C   UNL     1       3.777   6.171  -3.306  0.00  0.00    +0.111 A 
ATOM     11  C   UNL     1       4.093   4.838  -3.492  0.00  0.00    +0.020 A 
ATOM     12  C   UNL     1       5.251   4.332  -2.921  0.00  0.00    +0.008 A 
ENDBRANCH   3   7
TORSDOF 1
ENDMDL
MODEL 2
REMARK VINA RESULT:    -3.384      2.878      5.395
REMARK INTER + INTRA:          -3.772
REMARK INTER:                  -3.517
REMARK INTRA:                  -0.256
REMARK UNBOUND:                -0.190
REMARK  Name = Nicotine.pdb
REMARK  2 active torsions:
REMARK  status: ('A' for Active; 'I' for Inactive)
REMARK    1  A    between atoms: C_3  and  C_6
REMARK    2  A    between atoms: N_4  and  C_12
REMARK                            x       y       z     vdW  Elec       q    Type
REMARK                         _______ _______ _______ _____ _____    ______ ____
ROOT
ATOM      1  C   UNL     1       1.276   3.523  -5.936  0.00  0.00    +0.017 C 
ATOM      2  C   UNL     1       2.383   4.534  -5.536  0.00  0.00    +0.025 C 
ATOM      3  C   UNL     1       3.607   3.628  -5.284  0.00  0.00    +0.088 C 
ATOM      4  N   UNL     1       3.097   2.276  -4.996  0.00  0.00    -0.298 NA
ATOM      5  C   UNL     1       1.619   2.311  -5.034  0.00  0.00    +0.085 C 
ATOM      6  C   UNL     1       3.625   1.298  -5.956  0.00  0.00    +0.105 C 
ENDROOT
BRANCH   3   7
ATOM      7  C   UNL     1       4.392   4.143  -4.105  0.00  0.00    -0.012 A 
ATOM      8  C   UNL     1       5.733   3.838  -3.971  0.00  0.00    +0.115 A 
ATOM      9  N   UNL     1       6.427   4.285  -2.943  0.00  0.00    -0.263 NA
ATOM     10  C   UNL     1       5.877   5.034  -2.008  0.00  0.00    +0.111 A 
ATOM     11  C   UNL     1       4.540   5.380  -2.075  0.00  0.00    +0.020 A 
ATOM     12  C   UNL     1       3.780   4.933  -3.144  0.00  0.00    +0.008 A 
ENDBRANCH   3   7
TORSDOF 1
ENDMDL
MODEL 3
REMARK VINA RESULT:    -3.367      1.937      3.008
REMARK INTER + INTRA:          -3.754
REMARK INTER:                  -3.540
REMARK INTRA:                  -0.214
REMARK UNBOUND:                -0.190
REMARK  Name = Nicotine.pdb
REMARK  2 active torsions:
REMARK  status: ('A' for Active; 'I' for Inactive)
REMARK    1  A    between atoms: C_3  and  C_6
REMARK    2  A    between atoms: N_4  and  C_12
REMARK                            x       y       z     vdW  Elec       q    Type
REMARK                         _______ _______ _______ _____ _____    ______ ____
ROOT
ATOM      1  C   UNL     1      10.212   1.004  -1.927  0.00  0.00    +0.017 C 
ATOM      2  C   UNL     1      10.061   2.504  -1.559  0.00  0.00    +0.025 C 
ATOM      3  C   UNL     1       8.685   2.553  -0.862  0.00  0.00    +0.088 C 
ATOM      4  N   UNL     1       7.923   1.375  -1.316  0.00  0.00    -0.298 NA
ATOM      5  C   UNL     1       8.753   0.619  -2.277  0.00  0.00    +0.085 C 
ATOM      6  C   UNL     1       7.531   0.532  -0.180  0.00  0.00    +0.105 C 
ENDROOT
BRANCH   3   7
ATOM      7  C   UNL     1       7.959   3.815  -1.249  0.00  0.00    -0.012 A 
ATOM      8  C   UNL     1       8.459   5.050  -0.882  0.00  0.00    +0.115 A 
ATOM      9  N   UNL     1       7.830   6.160  -1.217  0.00  0.00    -0.263 NA
ATOM     10  C   UNL     1       6.708   6.138  -1.909  0.00  0.00    +0.111 A 
ATOM     11  C   UNL     1       6.147   4.940  -2.311  0.00  0.00    +0.020 A 
ATOM     12  C   UNL     1       6.783   3.753  -1.982  0.00  0.00    +0.008 A 
ENDBRANCH   3   7
TORSDOF 1
ENDMDL
MODEL 4
REMARK VINA RESULT:    -3.350      3.786      6.069
REMARK INTER + INTRA:          -3.736
REMARK INTER:                  -3.523
REMARK INTRA:                  -0.213
REMARK UNBOUND:                -0.190
REMARK  Name = Nicotine.pdb
REMARK  2 active torsions:
REMARK  status: ('A' for Active; 'I' for Inactive)
REMARK    1  A    between atoms: C_3  and  C_6
REMARK    2  A    between atoms: N_4  and  C_12
REMARK                            x       y       z     vdW  Elec       q    Type
REMARK                         _______ _______ _______ _____ _____    ______ ____
ROOT
ATOM      1  C   UNL     1       0.360   2.291  -6.349  0.00  0.00    +0.017 C 
ATOM      2  C   UNL     1       1.020   3.690  -6.232  0.00  0.00    +0.025 C 
ATOM      3  C   UNL     1       2.474   3.356  -5.838  0.00  0.00    +0.088 C 
ATOM      4  N   UNL     1       2.466   2.011  -5.235  0.00  0.00    -0.298 NA
ATOM      5  C   UNL     1       1.074   1.513  -5.215  0.00  0.00    +0.085 C 
ATOM      6  C   UNL     1       3.344   1.096  -5.975  0.00  0.00    +0.105 C 
ENDROOT
BRANCH   3   7
ATOM      7  C   UNL     1       2.979   4.365  -4.839  0.00  0.00    -0.012 A 
ATOM      8  C   UNL     1       2.980   5.712  -5.145  0.00  0.00    +0.115 A 
ATOM      9  N   UNL     1       3.420   6.602  -4.277  0.00  0.00    -0.263 NA
ATOM     10  C   UNL     1       3.874   6.246  -3.091  0.00  0.00    +0.111 A 
ATOM     11  C   UNL     1       3.904   4.917  -2.714  0.00  0.00    +0.020 A 
ATOM     12  C   UNL     1       3.445   3.954  -3.599  0.00  0.00    +0.008 A 
ENDBRANCH   3   7
TORSDOF 1
ENDMDL
MODEL 5
REMARK VINA RESULT:    -3.349      1.497      4.379
REMARK INTER + INTRA:          -3.735
REMARK INTER:                  -3.522
REMARK INTRA:                  -0.212
REMARK UNBOUND:                -0.190
REMARK  Name = Nicotine.pdb
REMARK  2 active torsions:
REMARK  status: ('A' for Active; 'I' for Inactive)
REMARK    1  A    between atoms: C_3  and  C_6
REMARK    2  A    between atoms: N_4  and  C_12
REMARK                            x       y       z     vdW  Elec       q    Type
REMARK                         _______ _______ _______ _____ _____    ______ ____
ROOT
ATOM      1  C   UNL     1       3.942   5.768  -2.606  0.00  0.00    +0.017 C 
ATOM      2  C   UNL     1       5.351   5.881  -1.967  0.00  0.00    +0.025 C 
ATOM      3  C   UNL     1       6.229   5.033  -2.912  0.00  0.00    +0.088 C 
ATOM      4  N   UNL     1       5.335   4.098  -3.617  0.00  0.00    -0.298 NA
ATOM      5  C   UNL     1       3.954   4.312  -3.135  0.00  0.00    +0.085 C 
ATOM      6  C   UNL     1       5.419   4.284  -5.072  0.00  0.00    +0.105 C 
ENDROOT
BRANCH   3   7
ATOM      7  C   UNL     1       7.248   4.264  -2.111  0.00  0.00    -0.012 A 
ATOM      8  C   UNL     1       8.143   4.930  -1.295  0.00  0.00    +0.115 A 
ATOM      9  N   UNL     1       9.038   4.265  -0.592  0.00  0.00    -0.263 NA
ATOM     10  C   UNL     1       9.117   2.949  -0.636  0.00  0.00    +0.111 A 
ATOM     11  C   UNL     1       8.255   2.215  -1.430  0.00  0.00    +0.020 A 
ATOM     12  C   UNL     1       7.297   2.880  -2.180  0.00  0.00    +0.008 A 
ENDBRANCH   3   7
TORSDOF 1
ENDMDL
MODEL 6
REMARK VINA RESULT:    -3.322      1.551      4.533
REMARK INTER + INTRA:          -3.706
REMARK INTER:                  -3.492
REMARK INTRA:                  -0.214
REMARK UNBOUND:                -0.190
REMARK  Name = Nicotine.pdb
REMARK  2 active torsions:
REMARK  status: ('A' for Active; 'I' for Inactive)
REMARK    1  A    between atoms: C_3  and  C_6
REMARK    2  A    between atoms: N_4  and  C_12
REMARK                            x       y       z     vdW  Elec       q    Type
REMARK                         _______ _______ _______ _____ _____    ______ ____
ROOT
ATOM      1  C   UNL     1       6.054   6.617  -1.894  0.00  0.00    +0.017 C 
ATOM      2  C   UNL     1       7.471   6.029  -1.663  0.00  0.00    +0.025 C 
ATOM      3  C   UNL     1       7.457   4.745  -2.520  0.00  0.00    +0.088 C 
ATOM      4  N   UNL     1       6.046   4.362  -2.710  0.00  0.00    -0.298 NA
ATOM      5  C   UNL     1       5.194   5.333  -1.992  0.00  0.00    +0.085 C 
ATOM      6  C   UNL     1       5.701   4.313  -4.137  0.00  0.00    +0.105 C 
ENDROOT
BRANCH   3   7
ATOM      7  C   UNL     1       8.196   3.643  -1.805  0.00  0.00    -0.012 A 
ATOM      8  C   UNL     1       9.535   3.788  -1.494  0.00  0.00    +0.115 A 
ATOM      9  N   UNL     1      10.189   2.829  -0.868  0.00  0.00    -0.263 NA
ATOM     10  C   UNL     1       9.600   1.703  -0.517  0.00  0.00    +0.111 A 
ATOM     11  C   UNL     1       8.263   1.487  -0.794  0.00  0.00    +0.020 A 
ATOM     12  C   UNL     1       7.541   2.475  -1.446  0.00  0.00    +0.008 A 
ENDBRANCH   3   7
TORSDOF 1
ENDMDL
MODEL 7
REMARK VINA RESULT:    -3.291      1.746      4.796
REMARK INTER + INTRA:          -3.673
REMARK INTER:                  -3.458
REMARK INTRA:                  -0.215
REMARK UNBOUND:                -0.190
REMARK  Name = Nicotine.pdb
REMARK  2 active torsions:
REMARK  status: ('A' for Active; 'I' for Inactive)
REMARK    1  A    between atoms: C_3  and  C_6
REMARK    2  A    between atoms: N_4  and  C_12
REMARK                            x       y       z     vdW  Elec       q    Type
REMARK                         _______ _______ _______ _____ _____    ______ ____
ROOT
ATOM      1  C   UNL     1       2.870   3.698  -4.478  0.00  0.00    +0.017 C 
ATOM      2  C   UNL     1       3.478   4.018  -3.087  0.00  0.00    +0.025 C 
ATOM      3  C   UNL     1       3.973   5.471  -3.250  0.00  0.00    +0.088 C 
ATOM      4  N   UNL     1       4.160   5.709  -4.693  0.00  0.00    -0.298 NA
ATOM      5  C   UNL     1       3.828   4.466  -5.422  0.00  0.00    +0.085 C 
ATOM      6  C   UNL     1       3.329   6.828  -5.154  0.00  0.00    +0.105 C 
ENDROOT
BRANCH   3   7
ATOM      7  C   UNL     1       5.282   5.651  -2.526  0.00  0.00    -0.012 A 
ATOM      8  C   UNL     1       6.093   4.563  -2.268  0.00  0.00    +0.115 A 
ATOM      9  N   UNL     1       7.240   4.712  -1.634  0.00  0.00    -0.263 NA
ATOM     10  C   UNL     1       7.657   5.893  -1.224  0.00  0.00    +0.111 A 
ATOM     11  C   UNL     1       6.899   7.028  -1.447  0.00  0.00    +0.020 A 
ATOM     12  C   UNL     1       5.690   6.911  -2.115  0.00  0.00    +0.008 A 
ENDBRANCH   3   7
TORSDOF 1
ENDMDL
MODEL 8
REMARK VINA RESULT:    -3.281      1.799      2.798
REMARK INTER + INTRA:          -3.663
REMARK INTER:                  -3.450
REMARK INTRA:                  -0.213
REMARK UNBOUND:                -0.190
REMARK  Name = Nicotine.pdb
REMARK  2 active torsions:
REMARK  status: ('A' for Active; 'I' for Inactive)
REMARK    1  A    between atoms: C_3  and  C_6
REMARK    2  A    between atoms: N_4  and  C_12
REMARK                            x       y       z     vdW  Elec       q    Type
REMARK                         _______ _______ _______ _____ _____    ______ ____
ROOT
ATOM      1  C   UNL     1      10.157   1.404  -1.090  0.00  0.00    +0.017 C 
ATOM      2  C   UNL     1       9.024   2.282  -0.498  0.00  0.00    +0.025 C 
ATOM      3  C   UNL     1       8.095   2.514  -1.709  0.00  0.00    +0.088 C 
ATOM      4  N   UNL     1       8.903   2.307  -2.924  0.00  0.00    -0.298 NA
ATOM      5  C   UNL     1      10.288   1.985  -2.520  0.00  0.00    +0.085 C 
ATOM      6  C   UNL     1       8.336   1.240  -3.759  0.00  0.00    +0.105 C 
ENDROOT
BRANCH   3   7
ATOM      7  C   UNL     1       7.559   3.921  -1.681  0.00  0.00    -0.012 A 
ATOM      8  C   UNL     1       8.337   4.957  -1.200  0.00  0.00    +0.115 A 
ATOM      9  N   UNL     1       7.875   6.192  -1.173  0.00  0.00    -0.263 NA
ATOM     10  C   UNL     1       6.663   6.488  -1.598  0.00  0.00    +0.111 A 
ATOM     11  C   UNL     1       5.827   5.504  -2.093  0.00  0.00    +0.020 A 
ATOM     12  C   UNL     1       6.280   4.195  -2.142  0.00  0.00    +0.008 A 
ENDBRANCH   3   7
TORSDOF 1
ENDMDL
MODEL 9
REMARK VINA RESULT:    -3.231      1.775      4.738
REMARK INTER + INTRA:          -3.611
REMARK INTER:                  -3.357
REMARK INTRA:                  -0.253
REMARK UNBOUND:                -0.190
REMARK  Name = Nicotine.pdb
REMARK  2 active torsions:
REMARK  status: ('A' for Active; 'I' for Inactive)
REMARK    1  A    between atoms: C_3  and  C_6
REMARK    2  A    between atoms: N_4  and  C_12
REMARK                            x       y       z     vdW  Elec       q    Type
REMARK                         _______ _______ _______ _____ _____    ______ ____
ROOT
ATOM      1  C   UNL     1       6.920   5.919  -1.629  0.00  0.00    +0.017 C 
ATOM      2  C   UNL     1       8.037   4.841  -1.632  0.00  0.00    +0.025 C 
ATOM      3  C   UNL     1       7.627   3.921  -2.801  0.00  0.00    +0.088 C 
ATOM      4  N   UNL     1       6.182   4.111  -3.022  0.00  0.00    -0.298 NA
ATOM      5  C   UNL     1       5.678   5.084  -2.029  0.00  0.00    +0.085 C 
ATOM      6  C   UNL     1       5.913   4.568  -4.391  0.00  0.00    +0.105 C 
ENDROOT
BRANCH   3   7
ATOM      7  C   UNL     1       7.908   2.484  -2.445  0.00  0.00    -0.012 A 
ATOM      8  C   UNL     1       8.303   1.587  -3.419  0.00  0.00    +0.115 A 
ATOM      9  N   UNL     1       8.551   0.327  -3.116  0.00  0.00    -0.263 NA
ATOM     10  C   UNL     1       8.434  -0.125  -1.883  0.00  0.00    +0.111 A 
ATOM     11  C   UNL     1       8.045   0.715  -0.856  0.00  0.00    +0.020 A 
ATOM     12  C   UNL     1       7.780   2.046  -1.136  0.00  0.00    +0.008 A 
ENDBRANCH   3   7
TORSDOF 1
ENDMDL
MODEL 10
REMARK VINA RESULT:    -3.050      2.808      4.602
REMARK INTER + INTRA:          -3.419
REMARK INTER:                  -3.217
REMARK INTRA:                  -0.202
REMARK UNBOUND:                -0.190
REMARK  Name = Nicotine.pdb
REMARK  2 active torsions:
REMARK  status: ('A' for Active; 'I' for Inactive)
REMARK    1  A    between atoms: C_3  and  C_6
REMARK    2  A    between atoms: N_4  and  C_12
REMARK                            x       y       z     vdW  Elec       q    Type
REMARK                         _______ _______ _______ _____ _____    ______ ____
ROOT
ATOM      1  C   UNL     1       5.998   5.091  -2.107  0.00  0.00    +0.017 C 
ATOM      2  C   UNL     1       5.899   4.025  -3.230  0.00  0.00    +0.025 C 
ATOM      3  C   UNL     1       4.806   4.597  -4.158  0.00  0.00    +0.088 C 
ATOM      4  N   UNL     1       3.996   5.530  -3.354  0.00  0.00    -0.298 NA
ATOM      5  C   UNL     1       4.521   5.540  -1.972  0.00  0.00    +0.085 C 
ATOM      6  C   UNL     1       4.014   6.879  -3.935  0.00  0.00    +0.105 C 
ENDROOT
BRANCH   3   7
ATOM      7  C   UNL     1       3.939   3.480  -4.678  0.00  0.00    -0.012 A 
ATOM      8  C   UNL     1       2.667   3.290  -4.174  0.00  0.00    +0.115 A 
ATOM      9  N   UNL     1       1.901   2.315  -4.624  0.00  0.00    -0.263 NA
ATOM     10  C   UNL     1       2.313   1.488  -5.565  0.00  0.00    +0.111 A 
ATOM     11  C   UNL     1       3.574   1.617  -6.117  0.00  0.00    +0.020 A 
ATOM     12  C   UNL     1       4.405   2.634  -5.673  0.00  0.00    +0.008 A 
ENDBRANCH   3   7
TORSDOF 1
ENDMDL
