MODEL 1
REMARK VINA RESULT:    -3.553      0.000      0.000
REMARK INTER + INTRA:          -3.967
REMARK INTER:                  -3.760
REMARK INTRA:                  -0.207
REMARK UNBOUND:                -0.207
REMARK  Name = Nicotine.pdb
REMARK  2 active torsions:
REMARK  status: ('A' for Active; 'I' for Inactive)
REMARK    1  A    between atoms: C_3  and  C_6
REMARK    2  A    between atoms: N_4  and  C_12
REMARK                            x       y       z     vdW  Elec       q    Type
REMARK                         _______ _______ _______ _____ _____    ______ ____
ROOT
ATOM      1  C   UNL     1       7.593   3.743   1.667  0.00  0.00    +0.017 C 
ATOM      2  C   UNL     1       6.359   3.804   2.605  0.00  0.00    +0.025 C 
ATOM      3  C   UNL     1       6.372   2.418   3.285  0.00  0.00    +0.088 C 
ATOM      4  N   UNL     1       7.135   1.509   2.410  0.00  0.00    -0.298 NA
ATOM      5  C   UNL     1       7.570   2.262   1.214  0.00  0.00    +0.085 C 
ATOM      6  C   UNL     1       8.286   0.937   3.121  0.00  0.00    +0.105 C 
ENDROOT
BRANCH   3   7
ATOM      7  C   UNL     1       4.962   1.913   3.446  0.00  0.00    -0.012 A 
ATOM      8  C   UNL     1       3.998   2.707   4.039  0.00  0.00    +0.115 A 
ATOM      9  N   UNL     1       2.761   2.272   4.183  0.00  0.00    -0.263 NA
ATOM     10  C   UNL     1       2.395   1.074   3.772  0.00  0.00    +0.111 A 
ATOM     11  C   UNL     1       3.304   0.225   3.169  0.00  0.00    +0.020 A 
ATOM     12  C   UNL     1       4.612   0.649   2.996  0.00  0.00    +0.008 A 
ENDBRANCH   3   7
TORSDOF 1
ENDMDL
MODEL 2
REMARK VINA RESULT:    -3.441      1.315      4.488
REMARK INTER + INTRA:          -3.849
REMARK INTER:                  -3.631
REMARK INTRA:                  -0.218
REMARK UNBOUND:                -0.207
REMARK  Name = Nicotine.pdb
REMARK  2 active torsions:
REMARK  status: ('A' for Active; 'I' for Inactive)
REMARK    1  A    between atoms: C_3  and  C_6
REMARK    2  A    between atoms: N_4  and  C_12
REMARK                            x       y       z     vdW  Elec       q    Type
REMARK                         _______ _______ _______ _____ _____    ______ ____
ROOT
ATOM      1  C   UNL     1       2.239   0.355   3.631  0.00  0.00    +0.017 C 
ATOM      2  C   UNL     1       3.690   0.333   3.080  0.00  0.00    +0.025 C 
ATOM      3  C   UNL     1       4.428   1.322   4.008  0.00  0.00    +0.088 C 
ATOM      4  N   UNL     1       3.411   2.213   4.594  0.00  0.00    -0.298 NA
ATOM      5  C   UNL     1       2.088   1.838   4.053  0.00  0.00    +0.085 C 
ATOM      6  C   UNL     1       3.423   2.134   6.060  0.00  0.00    +0.105 C 
ENDROOT
BRANCH   3   7
ATOM      7  C   UNL     1       5.421   2.128   3.211  0.00  0.00    -0.012 A 
ATOM      8  C   UNL     1       5.555   3.486   3.430  0.00  0.00    +0.115 A 
ATOM      9  N   UNL     1       6.422   4.198   2.738  0.00  0.00    -0.263 NA
ATOM     10  C   UNL     1       7.189   3.652   1.816  0.00  0.00    +0.111 A 
ATOM     11  C   UNL     1       7.112   2.299   1.541  0.00  0.00    +0.020 A 
ATOM     12  C   UNL     1       6.216   1.516   2.253  0.00  0.00    +0.008 A 
ENDBRANCH   3   7
TORSDOF 1
ENDMDL
MODEL 3
REMARK VINA RESULT:    -3.278      3.515      5.448
REMARK INTER + INTRA:          -3.677
REMARK INTER:                  -3.421
REMARK INTRA:                  -0.256
REMARK UNBOUND:                -0.207
REMARK  Name = Nicotine.pdb
REMARK  2 active torsions:
REMARK  status: ('A' for Active; 'I' for Inactive)
REMARK    1  A    between atoms: C_3  and  C_6
REMARK    2  A    between atoms: N_4  and  C_12
REMARK                            x       y       z     vdW  Elec       q    Type
REMARK                         _______ _______ _______ _____ _____    ______ ____
ROOT
ATOM      1  C   UNL     1       3.575   1.199   3.683  0.00  0.00    +0.017 C 
ATOM      2  C   UNL     1       2.330   1.961   4.209  0.00  0.00    +0.025 C 
ATOM      3  C   UNL     1       1.379   0.821   4.632  0.00  0.00    +0.088 C 
ATOM      4  N   UNL     1       1.786  -0.386   3.891  0.00  0.00    -0.298 NA
ATOM      5  C   UNL     1       2.925  -0.038   3.014  0.00  0.00    +0.085 C 
ATOM      6  C   UNL     1       2.142  -1.474   4.810  0.00  0.00    +0.105 C 
ENDROOT
BRANCH   3   7
ATOM      7  C   UNL     1      -0.041   1.184   4.284  0.00  0.00    -0.012 A 
ATOM      8  C   UNL     1      -1.097   0.591   4.950  0.00  0.00    +0.115 A 
ATOM      9  N   UNL     1      -2.344   0.902   4.652  0.00  0.00    -0.263 NA
ATOM     10  C   UNL     1      -2.632   1.783   3.715  0.00  0.00    +0.111 A 
ATOM     11  C   UNL     1      -1.629   2.418   3.006  0.00  0.00    +0.020 A 
ATOM     12  C   UNL     1      -0.306   2.120   3.296  0.00  0.00    +0.008 A 
ENDBRANCH   3   7
TORSDOF 1
ENDMDL
MODEL 4
REMARK VINA RESULT:    -3.250      2.098      5.450
REMARK INTER + INTRA:          -3.647
REMARK INTER:                  -3.433
REMARK INTRA:                  -0.215
REMARK UNBOUND:                -0.207
REMARK  Name = Nicotine.pdb
REMARK  2 active torsions:
REMARK  status: ('A' for Active; 'I' for Inactive)
REMARK    1  A    between atoms: C_3  and  C_6
REMARK    2  A    between atoms: N_4  and  C_12
REMARK                            x       y       z     vdW  Elec       q    Type
REMARK                         _______ _______ _______ _____ _____    ______ ____
ROOT
ATOM      1  C   UNL     1      -0.634   1.331   4.622  0.00  0.00    +0.017 C 
ATOM      2  C   UNL     1       0.468   1.760   3.617  0.00  0.00    +0.025 C 
ATOM      3  C   UNL     1       1.489   0.606   3.709  0.00  0.00    +0.088 C 
ATOM      4  N   UNL     1       1.284  -0.057   5.009  0.00  0.00    -0.298 NA
ATOM      5  C   UNL     1       0.204   0.648   5.732  0.00  0.00    +0.085 C 
ATOM      6  C   UNL     1       0.959  -1.478   4.831  0.00  0.00    +0.105 C 
ENDROOT
BRANCH   3   7
ATOM      7  C   UNL     1       2.890   1.155   3.627  0.00  0.00    -0.012 A 
ATOM      8  C   UNL     1       3.164   2.441   4.052  0.00  0.00    +0.115 A 
ATOM      9  N   UNL     1       4.387   2.928   3.983  0.00  0.00    -0.263 NA
ATOM     10  C   UNL     1       5.391   2.216   3.511  0.00  0.00    +0.111 A 
ATOM     11  C   UNL     1       5.194   0.922   3.067  0.00  0.00    +0.020 A 
ATOM     12  C   UNL     1       3.922   0.374   3.129  0.00  0.00    +0.008 A 
ENDBRANCH   3   7
TORSDOF 1
ENDMDL
MODEL 5
REMARK VINA RESULT:    -3.236      1.241      2.476
REMARK INTER + INTRA:          -3.632
REMARK INTER:                  -3.421
REMARK INTRA:                  -0.211
REMARK UNBOUND:                -0.207
REMARK  Name = Nicotine.pdb
REMARK  2 active torsions:
REMARK  status: ('A' for Active; 'I' for Inactive)
REMARK    1  A    between atoms: C_3  and  C_6
REMARK    2  A    between atoms: N_4  and  C_12
REMARK                            x       y       z     vdW  Elec       q    Type
REMARK                         _______ _______ _______ _____ _____    ______ ____
ROOT
ATOM      1  C   UNL     1       7.275  -0.114   4.193  0.00  0.00    +0.017 C 
ATOM      2  C   UNL     1       5.779  -0.473   3.994  0.00  0.00    +0.025 C 
ATOM      3  C   UNL     1       5.284   0.625   3.029  0.00  0.00    +0.088 C 
ATOM      4  N   UNL     1       6.207   1.767   3.156  0.00  0.00    -0.298 NA
ATOM      5  C   UNL     1       7.231   1.434   4.169  0.00  0.00    +0.085 C 
ATOM      6  C   UNL     1       6.829   2.088   1.865  0.00  0.00    +0.105 C 
ENDROOT
BRANCH   3   7
ATOM      7  C   UNL     1       3.888   1.049   3.407  0.00  0.00    -0.012 A 
ATOM      8  C   UNL     1       3.660   2.299   3.949  0.00  0.00    +0.115 A 
ATOM      9  N   UNL     1       2.441   2.678   4.283  0.00  0.00    -0.263 NA
ATOM     10  C   UNL     1       1.400   1.887   4.116  0.00  0.00    +0.111 A 
ATOM     11  C   UNL     1       1.550   0.622   3.579  0.00  0.00    +0.020 A 
ATOM     12  C   UNL     1       2.816   0.191   3.211  0.00  0.00    +0.008 A 
ENDBRANCH   3   7
TORSDOF 1
ENDMDL
MODEL 6
REMARK VINA RESULT:    -3.226      3.034      6.516
REMARK INTER + INTRA:          -3.621
REMARK INTER:                  -3.366
REMARK INTRA:                  -0.255
REMARK UNBOUND:                -0.207
REMARK  Name = Nicotine.pdb
REMARK  2 active torsions:
REMARK  status: ('A' for Active; 'I' for Inactive)
REMARK    1  A    between atoms: C_3  and  C_6
REMARK    2  A    between atoms: N_4  and  C_12
REMARK                            x       y       z     vdW  Elec       q    Type
REMARK                         _______ _______ _______ _____ _____    ______ ____
ROOT
ATOM      1  C   UNL     1      -2.315   1.138   4.237  0.00  0.00    +0.017 C 
ATOM      2  C   UNL     1      -0.932   0.625   4.719  0.00  0.00    +0.025 C 
ATOM      3  C   UNL     1      -0.057   1.896   4.679  0.00  0.00    +0.088 C 
ATOM      4  N   UNL     1      -0.696   2.836   3.740  0.00  0.00    -0.298 NA
ATOM      5  C   UNL     1      -1.906   2.196   3.182  0.00  0.00    +0.085 C 
ATOM      6  C   UNL     1      -1.029   4.102   4.406  0.00  0.00    +0.105 C 
ENDROOT
BRANCH   3   7
ATOM      7  C   UNL     1       1.328   1.550   4.197  0.00  0.00    -0.012 A 
ATOM      8  C   UNL     1       2.372   2.437   4.375  0.00  0.00    +0.115 A 
ATOM      9  N   UNL     1       3.587   2.142   3.957  0.00  0.00    -0.263 NA
ATOM     10  C   UNL     1       3.855   0.999   3.357  0.00  0.00    +0.111 A 
ATOM     11  C   UNL     1       2.862   0.062   3.145  0.00  0.00    +0.020 A 
ATOM     12  C   UNL     1       1.573   0.335   3.576  0.00  0.00    +0.008 A 
ENDBRANCH   3   7
TORSDOF 1
ENDMDL
MODEL 7
REMARK VINA RESULT:    -3.196      3.069      4.977
REMARK INTER + INTRA:          -3.590
REMARK INTER:                  -3.334
REMARK INTRA:                  -0.256
REMARK UNBOUND:                -0.207
REMARK  Name = Nicotine.pdb
REMARK  2 active torsions:
REMARK  status: ('A' for Active; 'I' for Inactive)
REMARK    1  A    between atoms: C_3  and  C_6
REMARK    2  A    between atoms: N_4  and  C_12
REMARK                            x       y       z     vdW  Elec       q    Type
REMARK                         _______ _______ _______ _____ _____    ______ ____
ROOT
ATOM      1  C   UNL     1       4.210   0.611   3.111  0.00  0.00    +0.017 C 
ATOM      2  C   UNL     1       2.842  -0.088   2.893  0.00  0.00    +0.025 C 
ATOM      3  C   UNL     1       1.884   0.744   3.771  0.00  0.00    +0.088 C 
ATOM      4  N   UNL     1       2.704   1.422   4.792  0.00  0.00    -0.298 NA
ATOM      5  C   UNL     1       4.116   1.027   4.600  0.00  0.00    +0.085 C 
ATOM      6  C   UNL     1       2.548   2.880   4.711  0.00  0.00    +0.105 C 
ENDROOT
BRANCH   3   7
ATOM      7  C   UNL     1       0.881  -0.162   4.436  0.00  0.00    -0.012 A 
ATOM      8  C   UNL     1      -0.287   0.355   4.964  0.00  0.00    +0.115 A 
ATOM      9  N   UNL     1      -1.170  -0.431   5.547  0.00  0.00    -0.263 NA
ATOM     10  C   UNL     1      -0.979  -1.731   5.651  0.00  0.00    +0.111 A 
ATOM     11  C   UNL     1       0.165  -2.321   5.146  0.00  0.00    +0.020 A 
ATOM     12  C   UNL     1       1.114  -1.526   4.521  0.00  0.00    +0.008 A 
ENDBRANCH   3   7
TORSDOF 1
ENDMDL
MODEL 8
REMARK VINA RESULT:    -3.185      1.900      2.962
REMARK INTER + INTRA:          -3.578
REMARK INTER:                  -3.376
REMARK INTRA:                  -0.202
REMARK UNBOUND:                -0.207
REMARK  Name = Nicotine.pdb
REMARK  2 active torsions:
REMARK  status: ('A' for Active; 'I' for Inactive)
REMARK    1  A    between atoms: C_3  and  C_6
REMARK    2  A    between atoms: N_4  and  C_12
REMARK                            x       y       z     vdW  Elec       q    Type
REMARK                         _______ _______ _______ _____ _____    ______ ____
ROOT
ATOM      1  C   UNL     1       8.067   3.611   1.412  0.00  0.00    +0.017 C 
ATOM      2  C   UNL     1       7.399   2.212   1.379  0.00  0.00    +0.025 C 
ATOM      3  C   UNL     1       6.252   2.350   2.402  0.00  0.00    +0.088 C 
ATOM      4  N   UNL     1       6.605   3.458   3.308  0.00  0.00    -0.298 NA
ATOM      5  C   UNL     1       7.925   3.990   2.908  0.00  0.00    +0.085 C 
ATOM      6  C   UNL     1       5.582   4.510   3.278  0.00  0.00    +0.105 C 
ENDROOT
BRANCH   3   7
ATOM      7  C   UNL     1       6.106   1.071   3.185  0.00  0.00    -0.012 A 
ATOM      8  C   UNL     1       7.222   0.428   3.686  0.00  0.00    +0.115 A 
ATOM      9  N   UNL     1       7.103  -0.692   4.373  0.00  0.00    -0.263 NA
ATOM     10  C   UNL     1       5.927  -1.239   4.609  0.00  0.00    +0.111 A 
ATOM     11  C   UNL     1       4.767  -0.652   4.139  0.00  0.00    +0.020 A 
ATOM     12  C   UNL     1       4.852   0.528   3.418  0.00  0.00    +0.008 A 
ENDBRANCH   3   7
TORSDOF 1
ENDMDL
MODEL 9
REMARK VINA RESULT:    -3.173      1.156      1.577
REMARK INTER + INTRA:          -3.565
REMARK INTER:                  -3.310
REMARK INTRA:                  -0.255
REMARK UNBOUND:                -0.207
REMARK  Name = Nicotine.pdb
REMARK  2 active torsions:
REMARK  status: ('A' for Active; 'I' for Inactive)
REMARK    1  A    between atoms: C_3  and  C_6
REMARK    2  A    between atoms: N_4  and  C_12
REMARK                            x       y       z     vdW  Elec       q    Type
REMARK                         _______ _______ _______ _____ _____    ______ ____
ROOT
ATOM      1  C   UNL     1       8.628   2.505   1.588  0.00  0.00    +0.017 C 
ATOM      2  C   UNL     1       7.087   2.445   1.414  0.00  0.00    +0.025 C 
ATOM      3  C   UNL     1       6.565   3.006   2.754  0.00  0.00    +0.088 C 
ATOM      4  N   UNL     1       7.639   2.833   3.749  0.00  0.00    -0.298 NA
ATOM      5  C   UNL     1       8.787   2.171   3.092  0.00  0.00    +0.085 C 
ATOM      6  C   UNL     1       8.036   4.124   4.326  0.00  0.00    +0.105 C 
ENDROOT
BRANCH   3   7
ATOM      7  C   UNL     1       5.338   2.244   3.185  0.00  0.00    -0.012 A 
ATOM      8  C   UNL     1       4.380   2.852   3.975  0.00  0.00    +0.115 A 
ATOM      9  N   UNL     1       3.304   2.193   4.357  0.00  0.00    -0.263 NA
ATOM     10  C   UNL     1       3.098   0.939   4.005  0.00  0.00    +0.111 A 
ATOM     11  C   UNL     1       4.012   0.266   3.216  0.00  0.00    +0.020 A 
ATOM     12  C   UNL     1       5.153   0.928   2.791  0.00  0.00    +0.008 A 
ENDBRANCH   3   7
TORSDOF 1
ENDMDL
MODEL 10
REMARK VINA RESULT:    -3.127      1.694      4.363
REMARK INTER + INTRA:          -3.517
REMARK INTER:                  -3.298
REMARK INTRA:                  -0.219
REMARK UNBOUND:                -0.207
REMARK  Name = Nicotine.pdb
REMARK  2 active torsions:
REMARK  status: ('A' for Active; 'I' for Inactive)
REMARK    1  A    between atoms: C_3  and  C_6
REMARK    2  A    between atoms: N_4  and  C_12
REMARK                            x       y       z     vdW  Elec       q    Type
REMARK                         _______ _______ _______ _____ _____    ______ ____
ROOT
ATOM      1  C   UNL     1       2.767  -0.647   4.090  0.00  0.00    +0.017 C 
ATOM      2  C   UNL     1       3.342   0.290   2.996  0.00  0.00    +0.025 C 
ATOM      3  C   UNL     1       4.862   0.240   3.260  0.00  0.00    +0.088 C 
ATOM      4  N   UNL     1       5.049  -0.177   4.661  0.00  0.00    -0.298 NA
ATOM      5  C   UNL     1       3.718  -0.362   5.279  0.00  0.00    +0.085 C 
ATOM      6  C   UNL     1       5.843  -1.410   4.742  0.00  0.00    +0.105 C 
ENDROOT
BRANCH   3   7
ATOM      7  C   UNL     1       5.465   1.604   3.045  0.00  0.00    -0.012 A 
ATOM      8  C   UNL     1       6.477   1.784   2.121  0.00  0.00    +0.115 A 
ATOM      9  N   UNL     1       7.010   2.974   1.927  0.00  0.00    -0.263 NA
ATOM     10  C   UNL     1       6.604   4.033   2.600  0.00  0.00    +0.111 A 
ATOM     11  C   UNL     1       5.596   3.931   3.540  0.00  0.00    +0.020 A 
ATOM     12  C   UNL     1       5.008   2.696   3.767  0.00  0.00    +0.008 A 
ENDBRANCH   3   7
TORSDOF 1
ENDMDL
