MODEL 1
REMARK VINA RESULT:    -3.970      0.000      0.000
REMARK INTER + INTRA:          -4.418
REMARK INTER:                  -4.202
REMARK INTRA:                  -0.216
REMARK UNBOUND:                -0.216
REMARK  Name = Nicotine.pdb
REMARK  2 active torsions:
REMARK  status: ('A' for Active; 'I' for Inactive)
REMARK    1  A    between atoms: C_3  and  C_6
REMARK    2  A    between atoms: N_4  and  C_12
REMARK                            x       y       z     vdW  Elec       q    Type
REMARK                         _______ _______ _______ _____ _____    ______ ____
ROOT
ATOM      1  C   UNL     1      -4.829   0.355   1.989  0.00  0.00    +0.017 C 
ATOM      2  C   UNL     1      -3.791  -0.695   2.466  0.00  0.00    +0.025 C 
ATOM      3  C   UNL     1      -2.465   0.095   2.447  0.00  0.00    +0.088 C 
ATOM      4  N   UNL     1      -2.644   1.228   1.521  0.00  0.00    -0.298 NA
ATOM      5  C   UNL     1      -4.007   1.158   0.951  0.00  0.00    +0.085 C 
ATOM      6  C   UNL     1      -2.424   2.508   2.205  0.00  0.00    +0.105 C 
ENDROOT
BRANCH   3   7
ATOM      7  C   UNL     1      -1.347  -0.792   1.964  0.00  0.00    -0.012 A 
ATOM      8  C   UNL     1      -0.212  -0.241   1.398  0.00  0.00    +0.115 A 
ATOM      9  N   UNL     1       0.771  -1.010   0.973  0.00  0.00    -0.263 NA
ATOM     10  C   UNL     1       0.714  -2.324   1.067  0.00  0.00    +0.111 A 
ATOM     11  C   UNL     1      -0.389  -2.946   1.622  0.00  0.00    +0.020 A 
ATOM     12  C   UNL     1      -1.440  -2.170   2.085  0.00  0.00    +0.008 A 
ENDBRANCH   3   7
TORSDOF 1
ENDMDL
MODEL 2
REMARK VINA RESULT:    -3.543      3.338      4.994
REMARK INTER + INTRA:          -3.967
REMARK INTER:                  -3.752
REMARK INTRA:                  -0.214
REMARK UNBOUND:                -0.216
REMARK  Name = Nicotine.pdb
REMARK  2 active torsions:
REMARK  status: ('A' for Active; 'I' for Inactive)
REMARK    1  A    between atoms: C_3  and  C_6
REMARK    2  A    between atoms: N_4  and  C_12
REMARK                            x       y       z     vdW  Elec       q    Type
REMARK                         _______ _______ _______ _____ _____    ______ ____
ROOT
ATOM      1  C   UNL     1       2.435   4.779   2.835  0.00  0.00    +0.017 C 
ATOM      2  C   UNL     1       1.591   4.062   1.748  0.00  0.00    +0.025 C 
ATOM      3  C   UNL     1       0.272   3.747   2.485  0.00  0.00    +0.088 C 
ATOM      4  N   UNL     1       0.568   3.744   3.929  0.00  0.00    -0.298 NA
ATOM      5  C   UNL     1       2.009   4.017   4.115  0.00  0.00    +0.085 C 
ATOM      6  C   UNL     1      -0.252   4.736   4.636  0.00  0.00    +0.105 C 
ENDROOT
BRANCH   3   7
ATOM      7  C   UNL     1      -0.240   2.395   2.062  0.00  0.00    -0.012 A 
ATOM      8  C   UNL     1       0.640   1.405   1.667  0.00  0.00    +0.115 A 
ATOM      9  N   UNL     1       0.200   0.219   1.296  0.00  0.00    -0.263 NA
ATOM     10  C   UNL     1      -1.086  -0.071   1.286  0.00  0.00    +0.111 A 
ATOM     11  C   UNL     1      -2.026   0.868   1.668  0.00  0.00    +0.020 A 
ATOM     12  C   UNL     1      -1.600   2.125   2.070  0.00  0.00    +0.008 A 
ENDBRANCH   3   7
TORSDOF 1
ENDMDL
MODEL 3
REMARK VINA RESULT:    -3.523      1.204      1.965
REMARK INTER + INTRA:          -3.945
REMARK INTER:                  -3.733
REMARK INTRA:                  -0.213
REMARK UNBOUND:                -0.216
REMARK  Name = Nicotine.pdb
REMARK  2 active torsions:
REMARK  status: ('A' for Active; 'I' for Inactive)
REMARK    1  A    between atoms: C_3  and  C_6
REMARK    2  A    between atoms: N_4  and  C_12
REMARK                            x       y       z     vdW  Elec       q    Type
REMARK                         _______ _______ _______ _____ _____    ______ ____
ROOT
ATOM      1  C   UNL     1      -3.230   2.095   3.705  0.00  0.00    +0.017 C 
ATOM      2  C   UNL     1      -1.752   2.022   3.238  0.00  0.00    +0.025 C 
ATOM      3  C   UNL     1      -1.861   1.384   1.838  0.00  0.00    +0.088 C 
ATOM      4  N   UNL     1      -3.142   0.657   1.788  0.00  0.00    -0.298 NA
ATOM      5  C   UNL     1      -3.814   0.795   3.097  0.00  0.00    +0.085 C 
ATOM      6  C   UNL     1      -3.993   1.162   0.702  0.00  0.00    +0.105 C 
ENDROOT
BRANCH   3   7
ATOM      7  C   UNL     1      -0.718   0.427   1.620  0.00  0.00    -0.012 A 
ATOM      8  C   UNL     1       0.575   0.899   1.497  0.00  0.00    +0.115 A 
ATOM      9  N   UNL     1       1.582   0.068   1.307  0.00  0.00    -0.263 NA
ATOM     10  C   UNL     1       1.399  -1.235   1.226  0.00  0.00    +0.111 A 
ATOM     11  C   UNL     1       0.133  -1.780   1.340  0.00  0.00    +0.020 A 
ATOM     12  C   UNL     1      -0.948  -0.938   1.546  0.00  0.00    +0.008 A 
ENDBRANCH   3   7
TORSDOF 1
ENDMDL
MODEL 4
REMARK VINA RESULT:    -3.499      1.832      2.964
REMARK INTER + INTRA:          -3.919
REMARK INTER:                  -3.707
REMARK INTRA:                  -0.212
REMARK UNBOUND:                -0.216
REMARK  Name = Nicotine.pdb
REMARK  2 active torsions:
REMARK  status: ('A' for Active; 'I' for Inactive)
REMARK    1  A    between atoms: C_3  and  C_6
REMARK    2  A    between atoms: N_4  and  C_12
REMARK                            x       y       z     vdW  Elec       q    Type
REMARK                         _______ _______ _______ _____ _____    ______ ____
ROOT
ATOM      1  C   UNL     1      -4.461   1.192   3.860  0.00  0.00    +0.017 C 
ATOM      2  C   UNL     1      -3.115   1.937   3.662  0.00  0.00    +0.025 C 
ATOM      3  C   UNL     1      -2.862   1.799   2.146  0.00  0.00    +0.088 C 
ATOM      4  N   UNL     1      -3.636   0.636   1.677  0.00  0.00    -0.298 NA
ATOM      5  C   UNL     1      -4.332   0.036   2.836  0.00  0.00    +0.085 C 
ATOM      6  C   UNL     1      -4.590   1.024   0.631  0.00  0.00    +0.105 C 
ENDROOT
BRANCH   3   7
ATOM      7  C   UNL     1      -1.394   1.577   1.890  0.00  0.00    -0.012 A 
ATOM      8  C   UNL     1      -0.941   0.355   1.431  0.00  0.00    +0.115 A 
ATOM      9  N   UNL     1       0.342   0.152   1.204  0.00  0.00    -0.263 NA
ATOM     10  C   UNL     1       1.239   1.097   1.404  0.00  0.00    +0.111 A 
ATOM     11  C   UNL     1       0.861   2.346   1.862  0.00  0.00    +0.020 A 
ATOM     12  C   UNL     1      -0.480   2.598   2.106  0.00  0.00    +0.008 A 
ENDBRANCH   3   7
TORSDOF 1
ENDMDL
MODEL 5
REMARK VINA RESULT:    -3.490      1.545      4.503
REMARK INTER + INTRA:          -3.910
REMARK INTER:                  -3.696
REMARK INTRA:                  -0.215
REMARK UNBOUND:                -0.216
REMARK  Name = Nicotine.pdb
REMARK  2 active torsions:
REMARK  status: ('A' for Active; 'I' for Inactive)
REMARK    1  A    between atoms: C_3  and  C_6
REMARK    2  A    between atoms: N_4  and  C_12
REMARK                            x       y       z     vdW  Elec       q    Type
REMARK                         _______ _______ _______ _____ _____    ______ ____
ROOT
ATOM      1  C   UNL     1      -0.077  -3.542   2.279  0.00  0.00    +0.017 C 
ATOM      2  C   UNL     1      -1.033  -2.459   1.714  0.00  0.00    +0.025 C 
ATOM      3  C   UNL     1      -0.065  -1.356   1.236  0.00  0.00    +0.088 C 
ATOM      4  N   UNL     1       1.198  -1.533   1.975  0.00  0.00    -0.298 NA
ATOM      5  C   UNL     1       1.045  -2.674   2.902  0.00  0.00    +0.085 C 
ATOM      6  C   UNL     1       2.322  -1.748   1.054  0.00  0.00    +0.105 C 
ENDROOT
BRANCH   3   7
ATOM      7  C   UNL     1      -0.648   0.001   1.531  0.00  0.00    -0.012 A 
ATOM      8  C   UNL     1       0.180   1.072   1.813  0.00  0.00    +0.115 A 
ATOM      9  N   UNL     1      -0.323   2.263   2.073  0.00  0.00    -0.263 NA
ATOM     10  C   UNL     1      -1.623   2.482   2.075  0.00  0.00    +0.111 A 
ATOM     11  C   UNL     1      -2.513   1.460   1.801  0.00  0.00    +0.020 A 
ATOM     12  C   UNL     1      -2.021   0.195   1.518  0.00  0.00    +0.008 A 
ENDBRANCH   3   7
TORSDOF 1
ENDMDL
MODEL 6
REMARK VINA RESULT:    -3.443      3.183      5.126
REMARK INTER + INTRA:          -3.860
REMARK INTER:                  -3.645
REMARK INTRA:                  -0.216
REMARK UNBOUND:                -0.216
REMARK  Name = Nicotine.pdb
REMARK  2 active torsions:
REMARK  status: ('A' for Active; 'I' for Inactive)
REMARK    1  A    between atoms: C_3  and  C_6
REMARK    2  A    between atoms: N_4  and  C_12
REMARK                            x       y       z     vdW  Elec       q    Type
REMARK                         _______ _______ _______ _____ _____    ______ ____
ROOT
ATOM      1  C   UNL     1       3.480   1.990   3.104  0.00  0.00    +0.017 C 
ATOM      2  C   UNL     1       2.460   1.193   2.249  0.00  0.00    +0.025 C 
ATOM      3  C   UNL     1       1.470   2.282   1.785  0.00  0.00    +0.088 C 
ATOM      4  N   UNL     1       1.579   3.405   2.734  0.00  0.00    -0.298 NA
ATOM      5  C   UNL     1       2.569   3.048   3.773  0.00  0.00    +0.085 C 
ATOM      6  C   UNL     1       1.962   4.643   2.044  0.00  0.00    +0.105 C 
ENDROOT
BRANCH   3   7
ATOM      7  C   UNL     1       0.066   1.737   1.794  0.00  0.00    -0.012 A 
ATOM      8  C   UNL     1      -1.003   2.561   2.093  0.00  0.00    +0.115 A 
ATOM      9  N   UNL     1      -2.235   2.091   2.103  0.00  0.00    -0.263 NA
ATOM     10  C   UNL     1      -2.498   0.828   1.831  0.00  0.00    +0.111 A 
ATOM     11  C   UNL     1      -1.480  -0.055   1.522  0.00  0.00    +0.020 A 
ATOM     12  C   UNL     1      -0.172   0.403   1.497  0.00  0.00    +0.008 A 
ENDBRANCH   3   7
TORSDOF 1
ENDMDL
MODEL 7
REMARK VINA RESULT:    -3.420      1.484      4.432
REMARK INTER + INTRA:          -3.836
REMARK INTER:                  -3.620
REMARK INTRA:                  -0.215
REMARK UNBOUND:                -0.216
REMARK  Name = Nicotine.pdb
REMARK  2 active torsions:
REMARK  status: ('A' for Active; 'I' for Inactive)
REMARK    1  A    between atoms: C_3  and  C_6
REMARK    2  A    between atoms: N_4  and  C_12
REMARK                            x       y       z     vdW  Elec       q    Type
REMARK                         _______ _______ _______ _____ _____    ______ ____
ROOT
ATOM      1  C   UNL     1       1.073  -1.915   2.055  0.00  0.00    +0.017 C 
ATOM      2  C   UNL     1      -0.386  -1.894   1.529  0.00  0.00    +0.025 C 
ATOM      3  C   UNL     1      -0.661  -0.388   1.327  0.00  0.00    +0.088 C 
ATOM      4  N   UNL     1       0.285   0.347   2.185  0.00  0.00    -0.298 NA
ATOM      5  C   UNL     1       1.111  -0.632   2.923  0.00  0.00    +0.085 C 
ATOM      6  C   UNL     1       1.125   1.251   1.388  0.00  0.00    +0.105 C 
ENDROOT
BRANCH   3   7
ATOM      7  C   UNL     1      -2.077  -0.067   1.731  0.00  0.00    -0.012 A 
ATOM      8  C   UNL     1      -2.801  -0.954   2.506  0.00  0.00    +0.115 A 
ATOM      9  N   UNL     1      -4.041  -0.680   2.863  0.00  0.00    -0.263 NA
ATOM     10  C   UNL     1      -4.636   0.439   2.500  0.00  0.00    +0.111 A 
ATOM     11  C   UNL     1      -3.974   1.373   1.726  0.00  0.00    +0.020 A 
ATOM     12  C   UNL     1      -2.668   1.123   1.335  0.00  0.00    +0.008 A 
ENDBRANCH   3   7
TORSDOF 1
ENDMDL
MODEL 8
REMARK VINA RESULT:    -3.403      3.897      5.262
REMARK INTER + INTRA:          -3.818
REMARK INTER:                  -3.577
REMARK INTRA:                  -0.241
REMARK UNBOUND:                -0.216
REMARK  Name = Nicotine.pdb
REMARK  2 active torsions:
REMARK  status: ('A' for Active; 'I' for Inactive)
REMARK    1  A    between atoms: C_3  and  C_6
REMARK    2  A    between atoms: N_4  and  C_12
REMARK                            x       y       z     vdW  Elec       q    Type
REMARK                         _______ _______ _______ _____ _____    ______ ____
ROOT
ATOM      1  C   UNL     1       1.040   5.829   3.070  0.00  0.00    +0.017 C 
ATOM      2  C   UNL     1       1.810   4.912   2.083  0.00  0.00    +0.025 C 
ATOM      3  C   UNL     1       0.928   3.647   2.025  0.00  0.00    +0.088 C 
ATOM      4  N   UNL     1       0.116   3.623   3.255  0.00  0.00    -0.298 NA
ATOM      5  C   UNL     1       0.474   4.798   4.078  0.00  0.00    +0.085 C 
ATOM      6  C   UNL     1      -1.318   3.618   2.940  0.00  0.00    +0.105 C 
ENDROOT
BRANCH   3   7
ATOM      7  C   UNL     1       1.797   2.418   1.959  0.00  0.00    -0.012 A 
ATOM      8  C   UNL     1       1.518   1.412   1.054  0.00  0.00    +0.115 A 
ATOM      9  N   UNL     1       2.274   0.333   0.990  0.00  0.00    -0.263 NA
ATOM     10  C   UNL     1       3.317   0.170   1.779  0.00  0.00    +0.111 A 
ATOM     11  C   UNL     1       3.659   1.134   2.709  0.00  0.00    +0.020 A 
ATOM     12  C   UNL     1       2.890   2.284   2.802  0.00  0.00    +0.008 A 
ENDBRANCH   3   7
TORSDOF 1
ENDMDL
MODEL 9
REMARK VINA RESULT:    -3.382      3.260      6.613
REMARK INTER + INTRA:          -3.796
REMARK INTER:                  -3.583
REMARK INTRA:                  -0.213
REMARK UNBOUND:                -0.216
REMARK  Name = Nicotine.pdb
REMARK  2 active torsions:
REMARK  status: ('A' for Active; 'I' for Inactive)
REMARK    1  A    between atoms: C_3  and  C_6
REMARK    2  A    between atoms: N_4  and  C_12
REMARK                            x       y       z     vdW  Elec       q    Type
REMARK                         _______ _______ _______ _____ _____    ______ ____
ROOT
ATOM      1  C   UNL     1       5.928  -0.951   0.375  0.00  0.00    +0.017 C 
ATOM      2  C   UNL     1       4.762  -0.773   1.383  0.00  0.00    +0.025 C 
ATOM      3  C   UNL     1       3.785  -1.900   0.986  0.00  0.00    +0.088 C 
ATOM      4  N   UNL     1       4.078  -2.260  -0.413  0.00  0.00    -0.298 NA
ATOM      5  C   UNL     1       5.171  -1.394  -0.903  0.00  0.00    +0.085 C 
ATOM      6  C   UNL     1       4.440  -3.679  -0.527  0.00  0.00    +0.105 C 
ENDROOT
BRANCH   3   7
ATOM      7  C   UNL     1       2.364  -1.411   1.104  0.00  0.00    -0.012 A 
ATOM      8  C   UNL     1       2.101  -0.067   1.288  0.00  0.00    +0.115 A 
ATOM      9  N   UNL     1       0.860   0.369   1.392  0.00  0.00    -0.263 NA
ATOM     10  C   UNL     1      -0.170  -0.450   1.325  0.00  0.00    +0.111 A 
ATOM     11  C   UNL     1       0.016  -1.808   1.141  0.00  0.00    +0.020 A 
ATOM     12  C   UNL     1       1.305  -2.302   1.022  0.00  0.00    +0.008 A 
ENDBRANCH   3   7
TORSDOF 1
ENDMDL
