MODEL 1
REMARK VINA RESULT:    -2.037      0.000      0.000
REMARK INTER + INTRA:          -2.401
REMARK INTER:                  -2.156
REMARK INTRA:                  -0.245
REMARK UNBOUND:                -0.245
REMARK  Name = Nicotine.pdb
REMARK  2 active torsions:
REMARK  status: ('A' for Active; 'I' for Inactive)
REMARK    1  A    between atoms: C_3  and  C_6
REMARK    2  A    between atoms: N_4  and  C_12
REMARK                            x       y       z     vdW  Elec       q    Type
REMARK                         _______ _______ _______ _____ _____    ______ ____
ROOT
ATOM      1  C   UNL     1       0.079   4.797   1.443  0.00  0.00    +0.017 C 
ATOM      2  C   UNL     1       1.614   4.739   1.664  0.00  0.00    +0.025 C 
ATOM      3  C   UNL     1       2.115   3.980   0.417  0.00  0.00    +0.088 C 
ATOM      4  N   UNL     1       0.978   3.205  -0.110  0.00  0.00    -0.298 NA
ATOM      5  C   UNL     1      -0.192   3.430   0.766  0.00  0.00    +0.085 C 
ATOM      6  C   UNL     1       0.678   3.585  -1.497  0.00  0.00    +0.105 C 
ENDROOT
BRANCH   3   7
ATOM      7  C   UNL     1       3.237   3.050   0.800  0.00  0.00    -0.012 A 
ATOM      8  C   UNL     1       4.364   2.949   0.005  0.00  0.00    +0.115 A 
ATOM      9  N   UNL     1       5.350   2.138   0.333  0.00  0.00    -0.263 NA
ATOM     10  C   UNL     1       5.305   1.396   1.421  0.00  0.00    +0.111 A 
ATOM     11  C   UNL     1       4.211   1.444   2.265  0.00  0.00    +0.020 A 
ATOM     12  C   UNL     1       3.156   2.289   1.956  0.00  0.00    +0.008 A 
ENDBRANCH   3   7
TORSDOF 1
ENDMDL
MODEL 2
REMARK VINA RESULT:    -1.980      2.019      3.937
REMARK INTER + INTRA:          -2.340
REMARK INTER:                  -2.125
REMARK INTRA:                  -0.215
REMARK UNBOUND:                -0.245
REMARK  Name = Nicotine.pdb
REMARK  2 active torsions:
REMARK  status: ('A' for Active; 'I' for Inactive)
REMARK    1  A    between atoms: C_3  and  C_6
REMARK    2  A    between atoms: N_4  and  C_12
REMARK                            x       y       z     vdW  Elec       q    Type
REMARK                         _______ _______ _______ _____ _____    ______ ____
ROOT
ATOM      1  C   UNL     1       3.861   0.340   4.556  0.00  0.00    +0.017 C 
ATOM      2  C   UNL     1       4.310   1.598   3.767  0.00  0.00    +0.025 C 
ATOM      3  C   UNL     1       3.039   1.989   2.983  0.00  0.00    +0.088 C 
ATOM      4  N   UNL     1       2.199   0.782   2.884  0.00  0.00    -0.298 NA
ATOM      5  C   UNL     1       2.902  -0.338   3.546  0.00  0.00    +0.085 C 
ATOM      6  C   UNL     1       0.880   1.007   3.490  0.00  0.00    +0.105 C 
ENDROOT
BRANCH   3   7
ATOM      7  C   UNL     1       3.413   2.469   1.605  0.00  0.00    -0.012 A 
ATOM      8  C   UNL     1       4.625   2.111   1.045  0.00  0.00    +0.115 A 
ATOM      9  N   UNL     1       4.960   2.527  -0.161  0.00  0.00    -0.263 NA
ATOM     10  C   UNL     1       4.162   3.295  -0.875  0.00  0.00    +0.111 A 
ATOM     11  C   UNL     1       2.934   3.693  -0.381  0.00  0.00    +0.020 A 
ATOM     12  C   UNL     1       2.545   3.271   0.881  0.00  0.00    +0.008 A 
ENDBRANCH   3   7
TORSDOF 1
ENDMDL
MODEL 3
REMARK VINA RESULT:    -1.858      1.183      1.672
REMARK INTER + INTRA:          -2.212
REMARK INTER:                  -1.991
REMARK INTRA:                  -0.221
REMARK UNBOUND:                -0.245
REMARK  Name = Nicotine.pdb
REMARK  2 active torsions:
REMARK  status: ('A' for Active; 'I' for Inactive)
REMARK    1  A    between atoms: C_3  and  C_6
REMARK    2  A    between atoms: N_4  and  C_12
REMARK                            x       y       z     vdW  Elec       q    Type
REMARK                         _______ _______ _______ _____ _____    ______ ____
ROOT
ATOM      1  C   UNL     1      -0.156   4.001  -1.060  0.00  0.00    +0.017 C 
ATOM      2  C   UNL     1       0.799   3.937   0.161  0.00  0.00    +0.025 C 
ATOM      3  C   UNL     1       2.190   4.151  -0.474  0.00  0.00    +0.088 C 
ATOM      4  N   UNL     1       2.082   3.782  -1.897  0.00  0.00    -0.298 NA
ATOM      5  C   UNL     1       0.700   3.328  -2.162  0.00  0.00    +0.085 C 
ATOM      6  C   UNL     1       2.440   4.913  -2.763  0.00  0.00    +0.105 C 
ENDROOT
BRANCH   3   7
ATOM      7  C   UNL     1       3.206   3.273   0.208  0.00  0.00    -0.012 A 
ATOM      8  C   UNL     1       4.438   3.045  -0.376  0.00  0.00    +0.115 A 
ATOM      9  N   UNL     1       5.333   2.277   0.215  0.00  0.00    -0.263 NA
ATOM     10  C   UNL     1       5.093   1.701   1.376  0.00  0.00    +0.111 A 
ATOM     11  C   UNL     1       3.884   1.883   2.021  0.00  0.00    +0.020 A 
ATOM     12  C   UNL     1       2.920   2.688   1.432  0.00  0.00    +0.008 A 
ENDBRANCH   3   7
TORSDOF 1
ENDMDL
MODEL 4
REMARK VINA RESULT:    -1.834      2.650      4.482
REMARK INTER + INTRA:          -2.186
REMARK INTER:                  -1.941
REMARK INTRA:                  -0.245
REMARK UNBOUND:                -0.245
REMARK  Name = Nicotine.pdb
REMARK  2 active torsions:
REMARK  status: ('A' for Active; 'I' for Inactive)
REMARK    1  A    between atoms: C_3  and  C_6
REMARK    2  A    between atoms: N_4  and  C_12
REMARK                            x       y       z     vdW  Elec       q    Type
REMARK                         _______ _______ _______ _____ _____    ______ ____
ROOT
ATOM      1  C   UNL     1       3.466   2.757   0.943  0.00  0.00    +0.017 C 
ATOM      2  C   UNL     1       4.098   1.870   2.048  0.00  0.00    +0.025 C 
ATOM      3  C   UNL     1       5.567   2.342   2.074  0.00  0.00    +0.088 C 
ATOM      4  N   UNL     1       5.849   2.965   0.768  0.00  0.00    -0.298 NA
ATOM      5  C   UNL     1       4.634   2.876  -0.068  0.00  0.00    +0.085 C 
ATOM      6  C   UNL     1       6.276   4.361   0.931  0.00  0.00    +0.105 C 
ENDROOT
BRANCH   3   7
ATOM      7  C   UNL     1       6.481   1.164   2.290  0.00  0.00    -0.012 A 
ATOM      8  C   UNL     1       7.547   1.257   3.164  0.00  0.00    +0.115 A 
ATOM      9  N   UNL     1       8.352   0.230   3.359  0.00  0.00    -0.263 NA
ATOM     10  C   UNL     1       8.174  -0.917   2.734  0.00  0.00    +0.111 A 
ATOM     11  C   UNL     1       7.129  -1.085   1.845  0.00  0.00    +0.020 A 
ATOM     12  C   UNL     1       6.259  -0.029   1.619  0.00  0.00    +0.008 A 
ENDBRANCH   3   7
TORSDOF 1
ENDMDL
MODEL 5
REMARK VINA RESULT:    -1.829      3.524      5.140
REMARK INTER + INTRA:          -2.180
REMARK INTER:                  -1.934
REMARK INTRA:                  -0.246
REMARK UNBOUND:                -0.245
REMARK  Name = Nicotine.pdb
REMARK  2 active torsions:
REMARK  status: ('A' for Active; 'I' for Inactive)
REMARK    1  A    between atoms: C_3  and  C_6
REMARK    2  A    between atoms: N_4  and  C_12
REMARK                            x       y       z     vdW  Elec       q    Type
REMARK                         _______ _______ _______ _____ _____    ______ ____
ROOT
ATOM      1  C   UNL     1       5.054   1.613   2.899  0.00  0.00    +0.017 C 
ATOM      2  C   UNL     1       5.759   2.948   3.256  0.00  0.00    +0.025 C 
ATOM      3  C   UNL     1       5.824   3.680   1.898  0.00  0.00    +0.088 C 
ATOM      4  N   UNL     1       5.720   2.655   0.844  0.00  0.00    -0.298 NA
ATOM      5  C   UNL     1       5.621   1.327   1.486  0.00  0.00    +0.085 C 
ATOM      6  C   UNL     1       4.563   2.908  -0.025  0.00  0.00    +0.105 C 
ENDROOT
BRANCH   3   7
ATOM      7  C   UNL     1       7.133   4.415   1.774  0.00  0.00    -0.012 A 
ATOM      8  C   UNL     1       7.377   5.229   0.684  0.00  0.00    +0.115 A 
ATOM      9  N   UNL     1       8.520   5.876   0.567  0.00  0.00    -0.263 NA
ATOM     10  C   UNL     1       9.470   5.774   1.476  0.00  0.00    +0.111 A 
ATOM     11  C   UNL     1       9.297   4.979   2.594  0.00  0.00    +0.020 A 
ATOM     12  C   UNL     1       8.106   4.288   2.753  0.00  0.00    +0.008 A 
ENDBRANCH   3   7
TORSDOF 1
ENDMDL
MODEL 6
REMARK VINA RESULT:    -1.774      3.178      6.106
REMARK INTER + INTRA:          -2.123
REMARK INTER:                  -1.899
REMARK INTRA:                  -0.223
REMARK UNBOUND:                -0.245
REMARK  Name = Nicotine.pdb
REMARK  2 active torsions:
REMARK  status: ('A' for Active; 'I' for Inactive)
REMARK    1  A    between atoms: C_3  and  C_6
REMARK    2  A    between atoms: N_4  and  C_12
REMARK                            x       y       z     vdW  Elec       q    Type
REMARK                         _______ _______ _______ _____ _____    ______ ____
ROOT
ATOM      1  C   UNL     1       9.231   3.047   3.992  0.00  0.00    +0.017 C 
ATOM      2  C   UNL     1       8.222   3.925   3.205  0.00  0.00    +0.025 C 
ATOM      3  C   UNL     1       6.893   3.158   3.370  0.00  0.00    +0.088 C 
ATOM      4  N   UNL     1       7.232   1.758   3.683  0.00  0.00    -0.298 NA
ATOM      5  C   UNL     1       8.704   1.621   3.694  0.00  0.00    +0.085 C 
ATOM      6  C   UNL     1       6.655   1.352   4.971  0.00  0.00    +0.105 C 
ENDROOT
BRANCH   3   7
ATOM      7  C   UNL     1       6.102   3.221   2.089  0.00  0.00    -0.012 A 
ATOM      8  C   UNL     1       5.732   2.060   1.438  0.00  0.00    +0.115 A 
ATOM      9  N   UNL     1       5.040   2.106   0.316  0.00  0.00    -0.263 NA
ATOM     10  C   UNL     1       4.676   3.251  -0.227  0.00  0.00    +0.111 A 
ATOM     11  C   UNL     1       5.010   4.454   0.368  0.00  0.00    +0.020 A 
ATOM     12  C   UNL     1       5.732   4.444   1.551  0.00  0.00    +0.008 A 
ENDBRANCH   3   7
TORSDOF 1
ENDMDL
MODEL 7
REMARK VINA RESULT:    -1.768      2.389      5.324
REMARK INTER + INTRA:          -2.117
REMARK INTER:                  -1.894
REMARK INTRA:                  -0.222
REMARK UNBOUND:                -0.245
REMARK  Name = Nicotine.pdb
REMARK  2 active torsions:
REMARK  status: ('A' for Active; 'I' for Inactive)
REMARK    1  A    between atoms: C_3  and  C_6
REMARK    2  A    between atoms: N_4  and  C_12
REMARK                            x       y       z     vdW  Elec       q    Type
REMARK                         _______ _______ _______ _____ _____    ______ ____
ROOT
ATOM      1  C   UNL     1       5.362   0.410   5.698  0.00  0.00    +0.017 C 
ATOM      2  C   UNL     1       4.373   1.173   4.778  0.00  0.00    +0.025 C 
ATOM      3  C   UNL     1       4.424   0.362   3.466  0.00  0.00    +0.088 C 
ATOM      4  N   UNL     1       5.700  -0.375   3.458  0.00  0.00    -0.298 NA
ATOM      5  C   UNL     1       6.447  -0.038   4.688  0.00  0.00    +0.085 C 
ATOM      6  C   UNL     1       5.471  -1.823   3.360  0.00  0.00    +0.105 C 
ENDROOT
BRANCH   3   7
ATOM      7  C   UNL     1       4.361   1.295   2.284  0.00  0.00    -0.012 A 
ATOM      8  C   UNL     1       5.398   1.337   1.371  0.00  0.00    +0.115 A 
ATOM      9  N   UNL     1       5.351   2.150   0.334  0.00  0.00    -0.263 NA
ATOM     10  C   UNL     1       4.324   2.950   0.126  0.00  0.00    +0.111 A 
ATOM     11  C   UNL     1       3.250   2.963   0.997  0.00  0.00    +0.020 A 
ATOM     12  C   UNL     1       3.261   2.118   2.095  0.00  0.00    +0.008 A 
ENDBRANCH   3   7
TORSDOF 1
ENDMDL
MODEL 8
REMARK VINA RESULT:    -1.750      2.777      3.497
REMARK INTER + INTRA:          -2.097
REMARK INTER:                  -1.929
REMARK INTRA:                  -0.168
REMARK UNBOUND:                -0.245
REMARK  Name = Nicotine.pdb
REMARK  2 active torsions:
REMARK  status: ('A' for Active; 'I' for Inactive)
REMARK    1  A    between atoms: C_3  and  C_6
REMARK    2  A    between atoms: N_4  and  C_12
REMARK                            x       y       z     vdW  Elec       q    Type
REMARK                         _______ _______ _______ _____ _____    ______ ____
ROOT
ATOM      1  C   UNL     1       2.167   6.327  -2.014  0.00  0.00    +0.017 C 
ATOM      2  C   UNL     1       2.830   5.988  -0.653  0.00  0.00    +0.025 C 
ATOM      3  C   UNL     1       4.295   5.697  -1.044  0.00  0.00    +0.088 C 
ATOM      4  N   UNL     1       4.302   5.335  -2.473  0.00  0.00    -0.298 NA
ATOM      5  C   UNL     1       2.911   5.365  -2.973  0.00  0.00    +0.085 C 
ATOM      6  C   UNL     1       5.159   6.247  -3.243  0.00  0.00    +0.105 C 
ENDROOT
BRANCH   3   7
ATOM      7  C   UNL     1       4.827   4.552  -0.222  0.00  0.00    -0.012 A 
ATOM      8  C   UNL     1       4.454   3.252  -0.508  0.00  0.00    +0.115 A 
ATOM      9  N   UNL     1       4.915   2.245   0.207  0.00  0.00    -0.263 NA
ATOM     10  C   UNL     1       5.744   2.432   1.215  0.00  0.00    +0.111 A 
ATOM     11  C   UNL     1       6.162   3.704   1.560  0.00  0.00    +0.020 A 
ATOM     12  C   UNL     1       5.702   4.788   0.828  0.00  0.00    +0.008 A 
ENDBRANCH   3   7
TORSDOF 1
ENDMDL
MODEL 9
REMARK VINA RESULT:    -1.590      2.994      4.915
REMARK INTER + INTRA:          -1.928
REMARK INTER:                  -1.676
REMARK INTRA:                  -0.252
REMARK UNBOUND:                -0.245
REMARK  Name = Nicotine.pdb
REMARK  2 active torsions:
REMARK  status: ('A' for Active; 'I' for Inactive)
REMARK    1  A    between atoms: C_3  and  C_6
REMARK    2  A    between atoms: N_4  and  C_12
REMARK                            x       y       z     vdW  Elec       q    Type
REMARK                         _______ _______ _______ _____ _____    ______ ____
ROOT
ATOM      1  C   UNL     1       5.330   5.151   1.727  0.00  0.00    +0.017 C 
ATOM      2  C   UNL     1       4.380   5.454   0.538  0.00  0.00    +0.025 C 
ATOM      3  C   UNL     1       4.217   4.076  -0.137  0.00  0.00    +0.088 C 
ATOM      4  N   UNL     1       5.379   3.258   0.254  0.00  0.00    -0.298 NA
ATOM      5  C   UNL     1       6.261   4.073   1.116  0.00  0.00    +0.085 C 
ATOM      6  C   UNL     1       4.953   2.034   0.945  0.00  0.00    +0.105 C 
ENDROOT
BRANCH   3   7
ATOM      7  C   UNL     1       4.184   4.239  -1.634  0.00  0.00    -0.012 A 
ATOM      8  C   UNL     1       3.841   3.174  -2.446  0.00  0.00    +0.115 A 
ATOM      9  N   UNL     1       3.810   3.308  -3.757  0.00  0.00    -0.263 NA
ATOM     10  C   UNL     1       4.101   4.453  -4.344  0.00  0.00    +0.111 A 
ATOM     11  C   UNL     1       4.451   5.562  -3.597  0.00  0.00    +0.020 A 
ATOM     12  C   UNL     1       4.490   5.460  -2.215  0.00  0.00    +0.008 A 
ENDBRANCH   3   7
TORSDOF 1
ENDMDL
MODEL 10
REMARK VINA RESULT:    -1.572      3.279      5.776
REMARK INTER + INTRA:          -1.909
REMARK INTER:                  -1.708
REMARK INTRA:                  -0.201
REMARK UNBOUND:                -0.245
REMARK  Name = Nicotine.pdb
REMARK  2 active torsions:
REMARK  status: ('A' for Active; 'I' for Inactive)
REMARK    1  A    between atoms: C_3  and  C_6
REMARK    2  A    between atoms: N_4  and  C_12
REMARK                            x       y       z     vdW  Elec       q    Type
REMARK                         _______ _______ _______ _____ _____    ______ ____
ROOT
ATOM      1  C   UNL     1       6.708   4.042   5.587  0.00  0.00    +0.017 C 
ATOM      2  C   UNL     1       5.803   3.278   4.585  0.00  0.00    +0.025 C 
ATOM      3  C   UNL     1       6.744   3.029   3.388  0.00  0.00    +0.088 C 
ATOM      4  N   UNL     1       7.822   4.032   3.463  0.00  0.00    -0.298 NA
ATOM      5  C   UNL     1       7.576   4.901   4.633  0.00  0.00    +0.085 C 
ATOM      6  C   UNL     1       9.137   3.385   3.554  0.00  0.00    +0.105 C 
ENDROOT
BRANCH   3   7
ATOM      7  C   UNL     1       5.984   3.188   2.097  0.00  0.00    -0.012 A 
ATOM      8  C   UNL     1       5.703   2.086   1.311  0.00  0.00    +0.115 A 
ATOM      9  N   UNL     1       5.038   2.216   0.179  0.00  0.00    -0.263 NA
ATOM     10  C   UNL     1       4.618   3.391  -0.246  0.00  0.00    +0.111 A 
ATOM     11  C   UNL     1       4.861   4.537   0.487  0.00  0.00    +0.020 A 
ATOM     12  C   UNL     1       5.552   4.439   1.684  0.00  0.00    +0.008 A 
ENDBRANCH   3   7
TORSDOF 1
ENDMDL
