MODEL 1
REMARK VINA RESULT:    -2.589      0.000      0.000
REMARK INTER + INTRA:          -2.956
REMARK INTER:                  -2.740
REMARK INTRA:                  -0.215
REMARK UNBOUND:                -0.215
REMARK  Name = Nicotine.pdb
REMARK  2 active torsions:
REMARK  status: ('A' for Active; 'I' for Inactive)
REMARK    1  A    between atoms: C_3  and  C_6
REMARK    2  A    between atoms: N_4  and  C_12
REMARK                            x       y       z     vdW  Elec       q    Type
REMARK                         _______ _______ _______ _____ _____    ______ ____
ROOT
ATOM      1  C   UNL     1       6.256   2.879   3.279  0.00  0.00    +0.017 C 
ATOM      2  C   UNL     1       7.743   3.146   3.630  0.00  0.00    +0.025 C 
ATOM      3  C   UNL     1       7.652   3.898   4.975  0.00  0.00    +0.088 C 
ATOM      4  N   UNL     1       6.306   4.493   5.053  0.00  0.00    -0.298 NA
ATOM      5  C   UNL     1       5.573   4.164   3.811  0.00  0.00    +0.085 C 
ATOM      6  C   UNL     1       5.583   4.008   6.236  0.00  0.00    +0.105 C 
ENDROOT
BRANCH   3   7
ATOM      7  C   UNL     1       8.697   4.983   5.027  0.00  0.00    -0.012 A 
ATOM      8  C   UNL     1       9.316   5.413   3.869  0.00  0.00    +0.115 A 
ATOM      9  N   UNL     1      10.231   6.362   3.905  0.00  0.00    -0.263 NA
ATOM     10  C   UNL     1      10.591   6.935   5.037  0.00  0.00    +0.111 A 
ATOM     11  C   UNL     1      10.015   6.557   6.235  0.00  0.00    +0.020 A 
ATOM     12  C   UNL     1       9.045   5.566   6.236  0.00  0.00    +0.008 A 
ENDBRANCH   3   7
TORSDOF 1
ENDMDL
MODEL 2
REMARK VINA RESULT:    -2.575      2.305      3.694
REMARK INTER + INTRA:          -2.941
REMARK INTER:                  -2.725
REMARK INTRA:                  -0.216
REMARK UNBOUND:                -0.215
REMARK  Name = Nicotine.pdb
REMARK  2 active torsions:
REMARK  status: ('A' for Active; 'I' for Inactive)
REMARK    1  A    between atoms: C_3  and  C_6
REMARK    2  A    between atoms: N_4  and  C_12
REMARK                            x       y       z     vdW  Elec       q    Type
REMARK                         _______ _______ _______ _____ _____    ______ ____
ROOT
ATOM      1  C   UNL     1      10.194   5.787   0.060  0.00  0.00    +0.017 C 
ATOM      2  C   UNL     1      10.908   5.740   1.436  0.00  0.00    +0.025 C 
ATOM      3  C   UNL     1       9.971   4.853   2.283  0.00  0.00    +0.088 C 
ATOM      4  N   UNL     1       8.637   4.903   1.657  0.00  0.00    -0.298 NA
ATOM      5  C   UNL     1       8.703   5.797   0.481  0.00  0.00    +0.085 C 
ATOM      6  C   UNL     1       8.185   3.560   1.273  0.00  0.00    +0.105 C 
ENDROOT
BRANCH   3   7
ATOM      7  C   UNL     1       9.897   5.384   3.692  0.00  0.00    -0.012 A 
ATOM      8  C   UNL     1       8.779   5.149   4.469  0.00  0.00    +0.115 A 
ATOM      9  N   UNL     1       8.706   5.610   5.703  0.00  0.00    -0.263 NA
ATOM     10  C   UNL     1       9.687   6.307   6.241  0.00  0.00    +0.111 A 
ATOM     11  C   UNL     1      10.837   6.581   5.524  0.00  0.00    +0.020 A 
ATOM     12  C   UNL     1      10.951   6.108   4.226  0.00  0.00    +0.008 A 
ENDBRANCH   3   7
TORSDOF 1
ENDMDL
MODEL 3
REMARK VINA RESULT:    -2.424      3.444      4.598
REMARK INTER + INTRA:          -2.782
REMARK INTER:                  -2.560
REMARK INTRA:                  -0.222
REMARK UNBOUND:                -0.215
REMARK  Name = Nicotine.pdb
REMARK  2 active torsions:
REMARK  status: ('A' for Active; 'I' for Inactive)
REMARK    1  A    between atoms: C_3  and  C_6
REMARK    2  A    between atoms: N_4  and  C_12
REMARK                            x       y       z     vdW  Elec       q    Type
REMARK                         _______ _______ _______ _____ _____    ______ ____
ROOT
ATOM      1  C   UNL     1       8.857   6.930  -1.552  0.00  0.00    +0.017 C 
ATOM      2  C   UNL     1       9.897   6.906  -0.400  0.00  0.00    +0.025 C 
ATOM      3  C   UNL     1       9.340   5.821   0.547  0.00  0.00    +0.088 C 
ATOM      4  N   UNL     1       7.898   5.696   0.267  0.00  0.00    -0.298 NA
ATOM      5  C   UNL     1       7.536   6.667  -0.786  0.00  0.00    +0.085 C 
ATOM      6  C   UNL     1       7.557   4.326  -0.139  0.00  0.00    +0.105 C 
ENDROOT
BRANCH   3   7
ATOM      7  C   UNL     1       9.552   6.234   1.980  0.00  0.00    -0.012 A 
ATOM      8  C   UNL     1       8.504   6.197   2.880  0.00  0.00    +0.115 A 
ATOM      9  N   UNL     1       8.681   6.557   4.137  0.00  0.00    -0.263 NA
ATOM     10  C   UNL     1       9.853   6.963   4.583  0.00  0.00    +0.111 A 
ATOM     11  C   UNL     1      10.948   7.025   3.741  0.00  0.00    +0.020 A 
ATOM     12  C   UNL     1      10.801   6.650   2.414  0.00  0.00    +0.008 A 
ENDBRANCH   3   7
TORSDOF 1
ENDMDL
MODEL 4
REMARK VINA RESULT:    -2.333      1.220      1.930
REMARK INTER + INTRA:          -2.684
REMARK INTER:                  -2.430
REMARK INTRA:                  -0.255
REMARK UNBOUND:                -0.215
REMARK  Name = Nicotine.pdb
REMARK  2 active torsions:
REMARK  status: ('A' for Active; 'I' for Inactive)
REMARK    1  A    between atoms: C_3  and  C_6
REMARK    2  A    between atoms: N_4  and  C_12
REMARK                            x       y       z     vdW  Elec       q    Type
REMARK                         _______ _______ _______ _____ _____    ______ ____
ROOT
ATOM      1  C   UNL     1       6.112   3.078   3.190  0.00  0.00    +0.017 C 
ATOM      2  C   UNL     1       7.595   3.322   2.807  0.00  0.00    +0.025 C 
ATOM      3  C   UNL     1       8.173   3.994   4.071  0.00  0.00    +0.088 C 
ATOM      4  N   UNL     1       7.042   4.583   4.810  0.00  0.00    -0.298 NA
ATOM      5  C   UNL     1       5.800   4.329   4.049  0.00  0.00    +0.085 C 
ATOM      6  C   UNL     1       6.952   4.028   6.167  0.00  0.00    +0.105 C 
ENDROOT
BRANCH   3   7
ATOM      7  C   UNL     1       9.148   5.073   3.678  0.00  0.00    -0.012 A 
ATOM      8  C   UNL     1      10.008   5.613   4.615  0.00  0.00    +0.115 A 
ATOM      9  N   UNL     1      10.865   6.558   4.279  0.00  0.00    -0.263 NA
ATOM     10  C   UNL     1      10.936   7.023   3.048  0.00  0.00    +0.111 A 
ATOM     11  C   UNL     1      10.108   6.531   2.056  0.00  0.00    +0.020 A 
ATOM     12  C   UNL     1       9.198   5.533   2.371  0.00  0.00    +0.008 A 
ENDBRANCH   3   7
TORSDOF 1
ENDMDL
MODEL 5
REMARK VINA RESULT:    -2.213      1.581      2.113
REMARK INTER + INTRA:          -2.558
REMARK INTER:                  -2.337
REMARK INTRA:                  -0.221
REMARK UNBOUND:                -0.215
REMARK  Name = Nicotine.pdb
REMARK  2 active torsions:
REMARK  status: ('A' for Active; 'I' for Inactive)
REMARK    1  A    between atoms: C_3  and  C_6
REMARK    2  A    between atoms: N_4  and  C_12
REMARK                            x       y       z     vdW  Elec       q    Type
REMARK                         _______ _______ _______ _____ _____    ______ ____
ROOT
ATOM      1  C   UNL     1       7.706   1.688   4.292  0.00  0.00    +0.017 C 
ATOM      2  C   UNL     1       7.933   2.923   5.204  0.00  0.00    +0.025 C 
ATOM      3  C   UNL     1       7.942   4.097   4.201  0.00  0.00    +0.088 C 
ATOM      4  N   UNL     1       8.278   3.539   2.879  0.00  0.00    -0.298 NA
ATOM      5  C   UNL     1       8.501   2.085   3.023  0.00  0.00    +0.085 C 
ATOM      6  C   UNL     1       7.214   3.815   1.905  0.00  0.00    +0.105 C 
ENDROOT
BRANCH   3   7
ATOM      7  C   UNL     1       8.978   5.111   4.610  0.00  0.00    -0.012 A 
ATOM      8  C   UNL     1       9.892   5.586   3.689  0.00  0.00    +0.115 A 
ATOM      9  N   UNL     1      10.802   6.475   4.038  0.00  0.00    -0.263 NA
ATOM     10  C   UNL     1      10.878   6.943   5.268  0.00  0.00    +0.111 A 
ATOM     11  C   UNL     1       9.996   6.514   6.244  0.00  0.00    +0.020 A 
ATOM     12  C   UNL     1       9.023   5.585   5.912  0.00  0.00    +0.008 A 
ENDBRANCH   3   7
TORSDOF 1
ENDMDL
MODEL 6
REMARK VINA RESULT:    -2.206      2.098      2.781
REMARK INTER + INTRA:          -2.550
REMARK INTER:                  -2.316
REMARK INTRA:                  -0.234
REMARK UNBOUND:                -0.215
REMARK  Name = Nicotine.pdb
REMARK  2 active torsions:
REMARK  status: ('A' for Active; 'I' for Inactive)
REMARK    1  A    between atoms: C_3  and  C_6
REMARK    2  A    between atoms: N_4  and  C_12
REMARK                            x       y       z     vdW  Elec       q    Type
REMARK                         _______ _______ _______ _____ _____    ______ ____
ROOT
ATOM      1  C   UNL     1       8.602   3.740   0.232  0.00  0.00    +0.017 C 
ATOM      2  C   UNL     1       9.567   3.847   1.442  0.00  0.00    +0.025 C 
ATOM      3  C   UNL     1       8.622   3.698   2.654  0.00  0.00    +0.088 C 
ATOM      4  N   UNL     1       7.268   4.063   2.199  0.00  0.00    -0.298 NA
ATOM      5  C   UNL     1       7.339   4.453   0.775  0.00  0.00    +0.085 C 
ATOM      6  C   UNL     1       6.329   2.951   2.395  0.00  0.00    +0.105 C 
ENDROOT
BRANCH   3   7
ATOM      7  C   UNL     1       9.059   4.621   3.761  0.00  0.00    -0.012 A 
ATOM      8  C   UNL     1       8.312   4.726   4.920  0.00  0.00    +0.115 A 
ATOM      9  N   UNL     1       8.688   5.531   5.894  0.00  0.00    -0.263 NA
ATOM     10  C   UNL     1       9.780   6.264   5.805  0.00  0.00    +0.111 A 
ATOM     11  C   UNL     1      10.578   6.212   4.677  0.00  0.00    +0.020 A 
ATOM     12  C   UNL     1      10.218   5.372   3.635  0.00  0.00    +0.008 A 
ENDBRANCH   3   7
TORSDOF 1
ENDMDL
MODEL 7
REMARK VINA RESULT:    -2.156      2.728      3.696
REMARK INTER + INTRA:          -2.498
REMARK INTER:                  -2.247
REMARK INTRA:                  -0.251
REMARK UNBOUND:                -0.215
REMARK  Name = Nicotine.pdb
REMARK  2 active torsions:
REMARK  status: ('A' for Active; 'I' for Inactive)
REMARK    1  A    between atoms: C_3  and  C_6
REMARK    2  A    between atoms: N_4  and  C_12
REMARK                            x       y       z     vdW  Elec       q    Type
REMARK                         _______ _______ _______ _____ _____    ______ ____
ROOT
ATOM      1  C   UNL     1       9.969   3.235  -0.162  0.00  0.00    +0.017 C 
ATOM      2  C   UNL     1      10.374   3.453   1.319  0.00  0.00    +0.025 C 
ATOM      3  C   UNL     1       9.099   4.060   1.942  0.00  0.00    +0.088 C 
ATOM      4  N   UNL     1       8.315   4.651   0.843  0.00  0.00    -0.298 NA
ATOM      5  C   UNL     1       9.057   4.460  -0.421  0.00  0.00    +0.085 C 
ATOM      6  C   UNL     1       6.978   4.047   0.766  0.00  0.00    +0.105 C 
ENDROOT
BRANCH   3   7
ATOM      7  C   UNL     1       9.472   5.126   2.939  0.00  0.00    -0.012 A 
ATOM      8  C   UNL     1       8.747   5.277   4.106  0.00  0.00    +0.115 A 
ATOM      9  N   UNL     1       9.068   6.208   4.983  0.00  0.00    -0.263 NA
ATOM     10  C   UNL     1      10.082   7.027   4.786  0.00  0.00    +0.111 A 
ATOM     11  C   UNL     1      10.854   6.935   3.642  0.00  0.00    +0.020 A 
ATOM     12  C   UNL     1      10.550   5.965   2.700  0.00  0.00    +0.008 A 
ENDBRANCH   3   7
TORSDOF 1
ENDMDL
MODEL 8
REMARK VINA RESULT:    -2.092      1.790      2.608
REMARK INTER + INTRA:          -2.430
REMARK INTER:                  -2.253
REMARK INTRA:                  -0.177
REMARK UNBOUND:                -0.215
REMARK  Name = Nicotine.pdb
REMARK  2 active torsions:
REMARK  status: ('A' for Active; 'I' for Inactive)
REMARK    1  A    between atoms: C_3  and  C_6
REMARK    2  A    between atoms: N_4  and  C_12
REMARK                            x       y       z     vdW  Elec       q    Type
REMARK                         _______ _______ _______ _____ _____    ______ ____
ROOT
ATOM      1  C   UNL     1       6.611   2.593   2.892  0.00  0.00    +0.017 C 
ATOM      2  C   UNL     1       7.117   4.059   2.925  0.00  0.00    +0.025 C 
ATOM      3  C   UNL     1       8.627   3.899   3.201  0.00  0.00    +0.088 C 
ATOM      4  N   UNL     1       8.819   2.580   3.830  0.00  0.00    -0.298 NA
ATOM      5  C   UNL     1       7.498   1.932   3.976  0.00  0.00    +0.085 C 
ATOM      6  C   UNL     1       9.730   1.746   3.036  0.00  0.00    +0.105 C 
ENDROOT
BRANCH   3   7
ATOM      7  C   UNL     1       9.095   4.986   4.134  0.00  0.00    -0.012 A 
ATOM      8  C   UNL     1       8.585   5.076   5.415  0.00  0.00    +0.115 A 
ATOM      9  N   UNL     1       8.989   6.024   6.238  0.00  0.00    -0.263 NA
ATOM     10  C   UNL     1       9.889   6.918   5.876  0.00  0.00    +0.111 A 
ATOM     11  C   UNL     1      10.444   6.891   4.611  0.00  0.00    +0.020 A 
ATOM     12  C   UNL     1      10.047   5.905   3.720  0.00  0.00    +0.008 A 
ENDBRANCH   3   7
TORSDOF 1
ENDMDL
MODEL 9
REMARK VINA RESULT:    -2.078      1.608      4.823
REMARK INTER + INTRA:          -2.415
REMARK INTER:                  -2.245
REMARK INTRA:                  -0.170
REMARK UNBOUND:                -0.215
REMARK  Name = Nicotine.pdb
REMARK  2 active torsions:
REMARK  status: ('A' for Active; 'I' for Inactive)
REMARK    1  A    between atoms: C_3  and  C_6
REMARK    2  A    between atoms: N_4  and  C_12
REMARK                            x       y       z     vdW  Elec       q    Type
REMARK                         _______ _______ _______ _____ _____    ______ ____
ROOT
ATOM      1  C   UNL     1      10.046   4.789   3.811  0.00  0.00    +0.017 C 
ATOM      2  C   UNL     1       8.984   3.716   3.453  0.00  0.00    +0.025 C 
ATOM      3  C   UNL     1       7.791   4.561   2.957  0.00  0.00    +0.088 C 
ATOM      4  N   UNL     1       7.945   5.911   3.527  0.00  0.00    -0.298 NA
ATOM      5  C   UNL     1       9.161   5.932   4.368  0.00  0.00    +0.085 C 
ATOM      6  C   UNL     1       8.021   6.925   2.466  0.00  0.00    +0.105 C 
ENDROOT
BRANCH   3   7
ATOM      7  C   UNL     1       6.498   3.948   3.430  0.00  0.00    -0.012 A 
ATOM      8  C   UNL     1       6.146   4.001   4.765  0.00  0.00    +0.115 A 
ATOM      9  N   UNL     1       5.016   3.468   5.187  0.00  0.00    -0.263 NA
ATOM     10  C   UNL     1       4.183   2.867   4.361  0.00  0.00    +0.111 A 
ATOM     11  C   UNL     1       4.467   2.775   3.011  0.00  0.00    +0.020 A 
ATOM     12  C   UNL     1       5.643   3.329   2.530  0.00  0.00    +0.008 A 
ENDBRANCH   3   7
TORSDOF 1
ENDMDL
MODEL 10
REMARK VINA RESULT:    -1.940      2.846      3.807
REMARK INTER + INTRA:          -2.269
REMARK INTER:                  -2.014
REMARK INTRA:                  -0.256
REMARK UNBOUND:                -0.215
REMARK  Name = Nicotine.pdb
REMARK  2 active torsions:
REMARK  status: ('A' for Active; 'I' for Inactive)
REMARK    1  A    between atoms: C_3  and  C_6
REMARK    2  A    between atoms: N_4  and  C_12
REMARK                            x       y       z     vdW  Elec       q    Type
REMARK                         _______ _______ _______ _____ _____    ______ ____
ROOT
ATOM      1  C   UNL     1       8.837   0.921   1.173  0.00  0.00    +0.017 C 
ATOM      2  C   UNL     1       9.419   2.316   1.521  0.00  0.00    +0.025 C 
ATOM      3  C   UNL     1       8.385   2.885   2.516  0.00  0.00    +0.088 C 
ATOM      4  N   UNL     1       7.117   2.170   2.285  0.00  0.00    -0.298 NA
ATOM      5  C   UNL     1       7.314   1.207   1.181  0.00  0.00    +0.085 C 
ATOM      6  C   UNL     1       6.668   1.487   3.506  0.00  0.00    +0.105 C 
ENDROOT
BRANCH   3   7
ATOM      7  C   UNL     1       8.195   4.360   2.271  0.00  0.00    -0.012 A 
ATOM      8  C   UNL     1       7.612   5.159   3.236  0.00  0.00    +0.115 A 
ATOM      9  N   UNL     1       7.442   6.451   3.029  0.00  0.00    -0.263 NA
ATOM     10  C   UNL     1       7.817   7.028   1.905  0.00  0.00    +0.111 A 
ATOM     11  C   UNL     1       8.408   6.292   0.895  0.00  0.00    +0.020 A 
ATOM     12  C   UNL     1       8.608   4.933   1.078  0.00  0.00    +0.008 A 
ENDBRANCH   3   7
TORSDOF 1
ENDMDL
