MODEL 1
REMARK VINA RESULT:    -3.729      0.000      0.000
REMARK INTER + INTRA:          -4.134
REMARK INTER:                  -3.948
REMARK INTRA:                  -0.187
REMARK UNBOUND:                -0.187
REMARK  Name = Nicotine.pdb
REMARK  2 active torsions:
REMARK  status: ('A' for Active; 'I' for Inactive)
REMARK    1  A    between atoms: C_3  and  C_6
REMARK    2  A    between atoms: N_4  and  C_12
REMARK                            x       y       z     vdW  Elec       q    Type
REMARK                         _______ _______ _______ _____ _____    ______ ____
ROOT
ATOM      1  C   UNL     1       6.060   4.178   3.601  0.00  0.00    +0.017 C 
ATOM      2  C   UNL     1       6.531   3.172   2.517  0.00  0.00    +0.025 C 
ATOM      3  C   UNL     1       6.561   1.830   3.279  0.00  0.00    +0.088 C 
ATOM      4  N   UNL     1       6.676   2.145   4.715  0.00  0.00    -0.298 NA
ATOM      5  C   UNL     1       6.744   3.614   4.871  0.00  0.00    +0.085 C 
ATOM      6  C   UNL     1       5.547   1.587   5.469  0.00  0.00    +0.105 C 
ENDROOT
BRANCH   3   7
ATOM      7  C   UNL     1       7.748   1.015   2.835  0.00  0.00    -0.012 A 
ATOM      8  C   UNL     1       8.385   1.300   1.642  0.00  0.00    +0.115 A 
ATOM      9  N   UNL     1       9.424   0.591   1.246  0.00  0.00    -0.263 NA
ATOM     10  C   UNL     1       9.894  -0.410   1.964  0.00  0.00    +0.111 A 
ATOM     11  C   UNL     1       9.309  -0.753   3.168  0.00  0.00    +0.020 A 
ATOM     12  C   UNL     1       8.218  -0.027   3.620  0.00  0.00    +0.008 A 
ENDBRANCH   3   7
TORSDOF 1
ENDMDL
MODEL 2
REMARK VINA RESULT:    -3.456      2.113      2.667
REMARK INTER + INTRA:          -3.845
REMARK INTER:                  -3.600
REMARK INTRA:                  -0.244
REMARK UNBOUND:                -0.187
REMARK  Name = Nicotine.pdb
REMARK  2 active torsions:
REMARK  status: ('A' for Active; 'I' for Inactive)
REMARK    1  A    between atoms: C_3  and  C_6
REMARK    2  A    between atoms: N_4  and  C_12
REMARK                            x       y       z     vdW  Elec       q    Type
REMARK                         _______ _______ _______ _____ _____    ______ ____
ROOT
ATOM      1  C   UNL     1       4.311   1.621   4.999  0.00  0.00    +0.017 C 
ATOM      2  C   UNL     1       5.591   1.757   4.133  0.00  0.00    +0.025 C 
ATOM      3  C   UNL     1       5.484   0.561   3.163  0.00  0.00    +0.088 C 
ATOM      4  N   UNL     1       4.596  -0.433   3.793  0.00  0.00    -0.298 NA
ATOM      5  C   UNL     1       4.173   0.082   5.112  0.00  0.00    +0.085 C 
ATOM      6  C   UNL     1       3.434  -0.717   2.940  0.00  0.00    +0.105 C 
ENDROOT
BRANCH   3   7
ATOM      7  C   UNL     1       6.847  -0.038   2.935  0.00  0.00    -0.012 A 
ATOM      8  C   UNL     1       7.011  -1.086   2.049  0.00  0.00    +0.115 A 
ATOM      9  N   UNL     1       8.201  -1.616   1.843  0.00  0.00    -0.263 NA
ATOM     10  C   UNL     1       9.274  -1.174   2.469  0.00  0.00    +0.111 A 
ATOM     11  C   UNL     1       9.188  -0.129   3.370  0.00  0.00    +0.020 A 
ATOM     12  C   UNL     1       7.954   0.457   3.608  0.00  0.00    +0.008 A 
ENDBRANCH   3   7
TORSDOF 1
ENDMDL
MODEL 3
REMARK VINA RESULT:    -3.451      6.378      7.234
REMARK INTER + INTRA:          -3.839
REMARK INTER:                  -3.586
REMARK INTRA:                  -0.253
REMARK UNBOUND:                -0.187
REMARK  Name = Nicotine.pdb
REMARK  2 active torsions:
REMARK  status: ('A' for Active; 'I' for Inactive)
REMARK    1  A    between atoms: C_3  and  C_6
REMARK    2  A    between atoms: N_4  and  C_12
REMARK                            x       y       z     vdW  Elec       q    Type
REMARK                         _______ _______ _______ _____ _____    ______ ____
ROOT
ATOM      1  C   UNL     1       2.193  -5.178   3.971  0.00  0.00    +0.017 C 
ATOM      2  C   UNL     1       3.625  -4.585   4.034  0.00  0.00    +0.025 C 
ATOM      3  C   UNL     1       3.816  -3.986   2.624  0.00  0.00    +0.088 C 
ATOM      4  N   UNL     1       2.872  -4.675   1.726  0.00  0.00    -0.298 NA
ATOM      5  C   UNL     1       2.129  -5.686   2.509  0.00  0.00    +0.085 C 
ATOM      6  C   UNL     1       1.954  -3.720   1.092  0.00  0.00    +0.105 C 
ENDROOT
BRANCH   3   7
ATOM      7  C   UNL     1       5.230  -4.215   2.157  0.00  0.00    -0.012 A 
ATOM      8  C   UNL     1       5.865  -3.276   1.367  0.00  0.00    +0.115 A 
ATOM      9  N   UNL     1       7.103  -3.468   0.953  0.00  0.00    -0.263 NA
ATOM     10  C   UNL     1       7.780  -4.553   1.274  0.00  0.00    +0.111 A 
ATOM     11  C   UNL     1       7.210  -5.535   2.062  0.00  0.00    +0.020 A 
ATOM     12  C   UNL     1       5.912  -5.366   2.519  0.00  0.00    +0.008 A 
ENDBRANCH   3   7
TORSDOF 1
ENDMDL
MODEL 4
REMARK VINA RESULT:    -3.357      1.337      2.177
REMARK INTER + INTRA:          -3.740
REMARK INTER:                  -3.494
REMARK INTRA:                  -0.246
REMARK UNBOUND:                -0.187
REMARK  Name = Nicotine.pdb
REMARK  2 active torsions:
REMARK  status: ('A' for Active; 'I' for Inactive)
REMARK    1  A    between atoms: C_3  and  C_6
REMARK    2  A    between atoms: N_4  and  C_12
REMARK                            x       y       z     vdW  Elec       q    Type
REMARK                         _______ _______ _______ _____ _____    ______ ____
ROOT
ATOM      1  C   UNL     1       4.574   1.607   4.490  0.00  0.00    +0.017 C 
ATOM      2  C   UNL     1       6.116   1.479   4.605  0.00  0.00    +0.025 C 
ATOM      3  C   UNL     1       6.606   1.902   3.204  0.00  0.00    +0.088 C 
ATOM      4  N   UNL     1       5.481   1.708   2.271  0.00  0.00    -0.298 NA
ATOM      5  C   UNL     1       4.332   1.162   3.025  0.00  0.00    +0.085 C 
ATOM      6  C   UNL     1       5.124   2.967   1.606  0.00  0.00    +0.105 C 
ENDROOT
BRANCH   3   7
ATOM      7  C   UNL     1       7.772   1.045   2.788  0.00  0.00    -0.012 A 
ATOM      8  C   UNL     1       8.441   1.300   1.606  0.00  0.00    +0.115 A 
ATOM      9  N   UNL     1       9.464   0.554   1.234  0.00  0.00    -0.263 NA
ATOM     10  C   UNL     1       9.887  -0.457   1.968  0.00  0.00    +0.111 A 
ATOM     11  C   UNL     1       9.268  -0.772   3.163  0.00  0.00    +0.020 A 
ATOM     12  C   UNL     1       8.193  -0.007   3.589  0.00  0.00    +0.008 A 
ENDBRANCH   3   7
TORSDOF 1
ENDMDL
MODEL 5
REMARK VINA RESULT:    -3.323      2.074      4.415
REMARK INTER + INTRA:          -3.704
REMARK INTER:                  -3.500
REMARK INTRA:                  -0.204
REMARK UNBOUND:                -0.187
REMARK  Name = Nicotine.pdb
REMARK  2 active torsions:
REMARK  status: ('A' for Active; 'I' for Inactive)
REMARK    1  A    between atoms: C_3  and  C_6
REMARK    2  A    between atoms: N_4  and  C_12
REMARK                            x       y       z     vdW  Elec       q    Type
REMARK                         _______ _______ _______ _____ _____    ______ ____
ROOT
ATOM      1  C   UNL     1       9.531  -0.329   2.324  0.00  0.00    +0.017 C 
ATOM      2  C   UNL     1       8.089  -0.899   2.390  0.00  0.00    +0.025 C 
ATOM      3  C   UNL     1       7.219   0.370   2.507  0.00  0.00    +0.088 C 
ATOM      4  N   UNL     1       8.080   1.443   3.038  0.00  0.00    -0.298 NA
ATOM      5  C   UNL     1       9.430   0.888   3.277  0.00  0.00    +0.085 C 
ATOM      6  C   UNL     1       8.134   2.582   2.113  0.00  0.00    +0.105 C 
ENDROOT
BRANCH   3   7
ATOM      7  C   UNL     1       6.071   0.119   3.450  0.00  0.00    -0.012 A 
ATOM      8  C   UNL     1       4.968  -0.602   3.032  0.00  0.00    +0.115 A 
ATOM      9  N   UNL     1       3.958  -0.826   3.850  0.00  0.00    -0.263 NA
ATOM     10  C   UNL     1       3.958  -0.377   5.090  0.00  0.00    +0.111 A 
ATOM     11  C   UNL     1       5.027   0.351   5.579  0.00  0.00    +0.020 A 
ATOM     12  C   UNL     1       6.108   0.603   4.749  0.00  0.00    +0.008 A 
ENDBRANCH   3   7
TORSDOF 1
ENDMDL
MODEL 6
REMARK VINA RESULT:    -3.316      2.095      3.275
REMARK INTER + INTRA:          -3.696
REMARK INTER:                  -3.479
REMARK INTRA:                  -0.217
REMARK UNBOUND:                -0.187
REMARK  Name = Nicotine.pdb
REMARK  2 active torsions:
REMARK  status: ('A' for Active; 'I' for Inactive)
REMARK    1  A    between atoms: C_3  and  C_6
REMARK    2  A    between atoms: N_4  and  C_12
REMARK                            x       y       z     vdW  Elec       q    Type
REMARK                         _______ _______ _______ _____ _____    ______ ____
ROOT
ATOM      1  C   UNL     1       3.814  -0.467   5.116  0.00  0.00    +0.017 C 
ATOM      2  C   UNL     1       5.110   0.298   5.492  0.00  0.00    +0.025 C 
ATOM      3  C   UNL     1       5.320   1.239   4.287  0.00  0.00    +0.088 C 
ATOM      4  N   UNL     1       4.595   0.654   3.144  0.00  0.00    -0.298 NA
ATOM      5  C   UNL     1       3.971  -0.612   3.581  0.00  0.00    +0.085 C 
ATOM      6  C   UNL     1       3.587   1.588   2.626  0.00  0.00    +0.105 C 
ENDROOT
BRANCH   3   7
ATOM      7  C   UNL     1       6.789   1.341   3.966  0.00  0.00    -0.012 A 
ATOM      8  C   UNL     1       7.428   2.566   3.997  0.00  0.00    +0.115 A 
ATOM      9  N   UNL     1       8.714   2.663   3.718  0.00  0.00    -0.263 NA
ATOM     10  C   UNL     1       9.436   1.607   3.399  0.00  0.00    +0.111 A 
ATOM     11  C   UNL     1       8.865   0.349   3.348  0.00  0.00    +0.020 A 
ATOM     12  C   UNL     1       7.518   0.207   3.641  0.00  0.00    +0.008 A 
ENDBRANCH   3   7
TORSDOF 1
ENDMDL
MODEL 7
REMARK VINA RESULT:    -3.168      2.548      3.810
REMARK INTER + INTRA:          -3.540
REMARK INTER:                  -3.314
REMARK INTRA:                  -0.226
REMARK UNBOUND:                -0.187
REMARK  Name = Nicotine.pdb
REMARK  2 active torsions:
REMARK  status: ('A' for Active; 'I' for Inactive)
REMARK    1  A    between atoms: C_3  and  C_6
REMARK    2  A    between atoms: N_4  and  C_12
REMARK                            x       y       z     vdW  Elec       q    Type
REMARK                         _______ _______ _______ _____ _____    ______ ____
ROOT
ATOM      1  C   UNL     1       7.977   0.282   3.725  0.00  0.00    +0.017 C 
ATOM      2  C   UNL     1       9.086   1.213   3.169  0.00  0.00    +0.025 C 
ATOM      3  C   UNL     1       8.416   2.603   3.190  0.00  0.00    +0.088 C 
ATOM      4  N   UNL     1       6.959   2.386   3.185  0.00  0.00    -0.298 NA
ATOM      5  C   UNL     1       6.699   0.931   3.136  0.00  0.00    +0.085 C 
ATOM      6  C   UNL     1       6.331   2.993   4.366  0.00  0.00    +0.105 C 
ENDROOT
BRANCH   3   7
ATOM      7  C   UNL     1       8.823   3.387   1.969  0.00  0.00    -0.012 A 
ATOM      8  C   UNL     1       9.379   4.646   2.100  0.00  0.00    +0.115 A 
ATOM      9  N   UNL     1       9.738   5.339   1.037  0.00  0.00    -0.263 NA
ATOM     10  C   UNL     1       9.583   4.865  -0.183  0.00  0.00    +0.111 A 
ATOM     11  C   UNL     1       9.035   3.613  -0.393  0.00  0.00    +0.020 A 
ATOM     12  C   UNL     1       8.650   2.854   0.701  0.00  0.00    +0.008 A 
ENDBRANCH   3   7
TORSDOF 1
ENDMDL
MODEL 8
REMARK VINA RESULT:    -3.154      3.171      4.224
REMARK INTER + INTRA:          -3.525
REMARK INTER:                  -3.322
REMARK INTRA:                  -0.203
REMARK UNBOUND:                -0.187
REMARK  Name = Nicotine.pdb
REMARK  2 active torsions:
REMARK  status: ('A' for Active; 'I' for Inactive)
REMARK    1  A    between atoms: C_3  and  C_6
REMARK    2  A    between atoms: N_4  and  C_12
REMARK                            x       y       z     vdW  Elec       q    Type
REMARK                         _______ _______ _______ _____ _____    ______ ____
ROOT
ATOM      1  C   UNL     1       2.427  -0.581   5.122  0.00  0.00    +0.017 C 
ATOM      2  C   UNL     1       3.507   0.410   4.612  0.00  0.00    +0.025 C 
ATOM      3  C   UNL     1       4.129  -0.340   3.415  0.00  0.00    +0.088 C 
ATOM      4  N   UNL     1       3.854  -1.775   3.608  0.00  0.00    -0.298 NA
ATOM      5  C   UNL     1       3.116  -1.947   4.878  0.00  0.00    +0.085 C 
ATOM      6  C   UNL     1       3.093  -2.323   2.478  0.00  0.00    +0.105 C 
ENDROOT
BRANCH   3   7
ATOM      7  C   UNL     1       5.616  -0.102   3.378  0.00  0.00    -0.012 A 
ATOM      8  C   UNL     1       6.224   0.675   4.345  0.00  0.00    +0.115 A 
ATOM      9  N   UNL     1       7.525   0.888   4.320  0.00  0.00    -0.263 NA
ATOM     10  C   UNL     1       8.294   0.375   3.380  0.00  0.00    +0.111 A 
ATOM     11  C   UNL     1       7.756  -0.413   2.379  0.00  0.00    +0.020 A 
ATOM     12  C   UNL     1       6.393  -0.664   2.376  0.00  0.00    +0.008 A 
ENDBRANCH   3   7
TORSDOF 1
ENDMDL
MODEL 9
REMARK VINA RESULT:    -3.142      1.938      4.105
REMARK INTER + INTRA:          -3.512
REMARK INTER:                  -3.299
REMARK INTRA:                  -0.213
REMARK UNBOUND:                -0.187
REMARK  Name = Nicotine.pdb
REMARK  2 active torsions:
REMARK  status: ('A' for Active; 'I' for Inactive)
REMARK    1  A    between atoms: C_3  and  C_6
REMARK    2  A    between atoms: N_4  and  C_12
REMARK                            x       y       z     vdW  Elec       q    Type
REMARK                         _______ _______ _______ _____ _____    ______ ____
ROOT
ATOM      1  C   UNL     1       8.543   3.160   2.469  0.00  0.00    +0.017 C 
ATOM      2  C   UNL     1       7.678   2.690   3.668  0.00  0.00    +0.025 C 
ATOM      3  C   UNL     1       7.774   1.151   3.584  0.00  0.00    +0.088 C 
ATOM      4  N   UNL     1       8.136   0.812   2.196  0.00  0.00    -0.298 NA
ATOM      5  C   UNL     1       8.242   2.064   1.417  0.00  0.00    +0.085 C 
ATOM      6  C   UNL     1       9.394   0.054   2.149  0.00  0.00    +0.105 C 
ENDROOT
BRANCH   3   7
ATOM      7  C   UNL     1       6.445   0.534   3.934  0.00  0.00    -0.012 A 
ATOM      8  C   UNL     1       5.948   0.628   5.220  0.00  0.00    +0.115 A 
ATOM      9  N   UNL     1       4.785   0.091   5.535  0.00  0.00    -0.263 NA
ATOM     10  C   UNL     1       4.056  -0.552   4.645  0.00  0.00    +0.111 A 
ATOM     11  C   UNL     1       4.488  -0.687   3.339  0.00  0.00    +0.020 A 
ATOM     12  C   UNL     1       5.703  -0.130   2.970  0.00  0.00    +0.008 A 
ENDBRANCH   3   7
TORSDOF 1
ENDMDL
MODEL 10
REMARK VINA RESULT:    -3.060      2.027      4.160
REMARK INTER + INTRA:          -3.425
REMARK INTER:                  -3.184
REMARK INTRA:                  -0.241
REMARK UNBOUND:                -0.187
REMARK  Name = Nicotine.pdb
REMARK  2 active torsions:
REMARK  status: ('A' for Active; 'I' for Inactive)
REMARK    1  A    between atoms: C_3  and  C_6
REMARK    2  A    between atoms: N_4  and  C_12
REMARK                            x       y       z     vdW  Elec       q    Type
REMARK                         _______ _______ _______ _____ _____    ______ ____
ROOT
ATOM      1  C   UNL     1       8.773  -0.507   3.079  0.00  0.00    +0.017 C 
ATOM      2  C   UNL     1       9.102   0.989   3.321  0.00  0.00    +0.025 C 
ATOM      3  C   UNL     1       7.710   1.622   3.528  0.00  0.00    +0.088 C 
ATOM      4  N   UNL     1       6.724   0.727   2.895  0.00  0.00    -0.298 NA
ATOM      5  C   UNL     1       7.445  -0.412   2.286  0.00  0.00    +0.085 C 
ATOM      6  C   UNL     1       5.731   0.261   3.871  0.00  0.00    +0.105 C 
ENDROOT
BRANCH   3   7
ATOM      7  C   UNL     1       7.662   2.981   2.879  0.00  0.00    -0.012 A 
ATOM      8  C   UNL     1       6.518   3.753   2.956  0.00  0.00    +0.115 A 
ATOM      9  N   UNL     1       6.468   4.943   2.391  0.00  0.00    -0.263 NA
ATOM     10  C   UNL     1       7.497   5.442   1.734  0.00  0.00    +0.111 A 
ATOM     11  C   UNL     1       8.674   4.728   1.615  0.00  0.00    +0.020 A 
ATOM     12  C   UNL     1       8.766   3.475   2.201  0.00  0.00    +0.008 A 
ENDBRANCH   3   7
TORSDOF 1
ENDMDL
