MODEL 1
REMARK VINA RESULT:    -0.642      0.000      0.000
REMARK INTER + INTRA:          -0.889
REMARK INTER:                  -0.680
REMARK INTRA:                  -0.209
REMARK UNBOUND:                -0.209
REMARK  Name = Nicotine.pdb
REMARK  2 active torsions:
REMARK  status: ('A' for Active; 'I' for Inactive)
REMARK    1  A    between atoms: C_3  and  C_6
REMARK    2  A    between atoms: N_4  and  C_12
REMARK                            x       y       z     vdW  Elec       q    Type
REMARK                         _______ _______ _______ _____ _____    ______ ____
ROOT
ATOM      1  C   UNL     1      -4.099   4.319  -1.742  0.00  0.00    +0.017 C 
ATOM      2  C   UNL     1      -2.785   4.498  -2.547  0.00  0.00    +0.025 C 
ATOM      3  C   UNL     1      -3.145   5.607  -3.558  0.00  0.00    +0.088 C 
ATOM      4  N   UNL     1      -4.613   5.613  -3.696  0.00  0.00    -0.298 NA
ATOM      5  C   UNL     1      -5.170   4.545  -2.839  0.00  0.00    +0.085 C 
ATOM      6  C   UNL     1      -5.171   6.923  -3.337  0.00  0.00    +0.105 C 
ENDROOT
BRANCH   3   7
ATOM      7  C   UNL     1      -2.505   5.314  -4.890  0.00  0.00    -0.012 A 
ATOM      8  C   UNL     1      -1.145   5.084  -4.976  0.00  0.00    +0.115 A 
ATOM      9  N   UNL     1      -0.576   4.826  -6.138  0.00  0.00    -0.263 NA
ATOM     10  C   UNL     1      -1.274   4.779  -7.255  0.00  0.00    +0.111 A 
ATOM     11  C   UNL     1      -2.639   4.998  -7.247  0.00  0.00    +0.020 A 
ATOM     12  C   UNL     1      -3.272   5.267  -6.044  0.00  0.00    +0.008 A 
ENDBRANCH   3   7
TORSDOF 1
ENDMDL
MODEL 2
REMARK VINA RESULT:    -0.634      0.772      1.363
REMARK INTER + INTRA:          -0.880
REMARK INTER:                  -0.664
REMARK INTRA:                  -0.217
REMARK UNBOUND:                -0.209
REMARK  Name = Nicotine.pdb
REMARK  2 active torsions:
REMARK  status: ('A' for Active; 'I' for Inactive)
REMARK    1  A    between atoms: C_3  and  C_6
REMARK    2  A    between atoms: N_4  and  C_12
REMARK                            x       y       z     vdW  Elec       q    Type
REMARK                         _______ _______ _______ _____ _____    ______ ____
ROOT
ATOM      1  C   UNL     1      -4.131   4.242  -1.770  0.00  0.00    +0.017 C 
ATOM      2  C   UNL     1      -2.795   4.453  -2.529  0.00  0.00    +0.025 C 
ATOM      3  C   UNL     1      -3.131   5.591  -3.515  0.00  0.00    +0.088 C 
ATOM      4  N   UNL     1      -4.594   5.594  -3.697  0.00  0.00    -0.298 NA
ATOM      5  C   UNL     1      -5.171   4.497  -2.890  0.00  0.00    +0.085 C 
ATOM      6  C   UNL     1      -5.170   6.890  -3.313  0.00  0.00    +0.105 C 
ENDROOT
BRANCH   3   7
ATOM      7  C   UNL     1      -2.450   5.344  -4.836  0.00  0.00    -0.012 A 
ATOM      8  C   UNL     1      -3.196   5.086  -5.970  0.00  0.00    +0.115 A 
ATOM      9  N   UNL     1      -2.608   4.869  -7.130  0.00  0.00    -0.263 NA
ATOM     10  C   UNL     1      -1.296   4.887  -7.256  0.00  0.00    +0.111 A 
ATOM     11  C   UNL     1      -0.484   5.138  -6.166  0.00  0.00    +0.020 A 
ATOM     12  C   UNL     1      -1.067   5.377  -4.931  0.00  0.00    +0.008 A 
ENDBRANCH   3   7
TORSDOF 1
ENDMDL
MODEL 3
REMARK VINA RESULT:    -0.560      1.501      4.473
REMARK INTER + INTRA:          -0.801
REMARK INTER:                  -0.572
REMARK INTRA:                  -0.230
REMARK UNBOUND:                -0.209
REMARK  Name = Nicotine.pdb
REMARK  2 active torsions:
REMARK  status: ('A' for Active; 'I' for Inactive)
REMARK    1  A    between atoms: C_3  and  C_6
REMARK    2  A    between atoms: N_4  and  C_12
REMARK                            x       y       z     vdW  Elec       q    Type
REMARK                         _______ _______ _______ _____ _____    ______ ____
ROOT
ATOM      1  C   UNL     1      -0.857   5.556  -6.760  0.00  0.00    +0.017 C 
ATOM      2  C   UNL     1      -1.613   4.623  -5.779  0.00  0.00    +0.025 C 
ATOM      3  C   UNL     1      -3.014   5.266  -5.698  0.00  0.00    +0.088 C 
ATOM      4  N   UNL     1      -2.870   6.678  -6.096  0.00  0.00    -0.298 NA
ATOM      5  C   UNL     1      -1.446   6.941  -6.392  0.00  0.00    +0.085 C 
ATOM      6  C   UNL     1      -3.716   6.988  -7.256  0.00  0.00    +0.105 C 
ENDROOT
BRANCH   3   7
ATOM      7  C   UNL     1      -3.538   5.180  -4.288  0.00  0.00    -0.012 A 
ATOM      8  C   UNL     1      -4.706   5.829  -3.935  0.00  0.00    +0.115 A 
ATOM      9  N   UNL     1      -5.171   5.758  -2.703  0.00  0.00    -0.263 NA
ATOM     10  C   UNL     1      -4.547   5.073  -1.765  0.00  0.00    +0.111 A 
ATOM     11  C   UNL     1      -3.374   4.398  -2.044  0.00  0.00    +0.020 A 
ATOM     12  C   UNL     1      -2.857   4.445  -3.330  0.00  0.00    +0.008 A 
ENDBRANCH   3   7
TORSDOF 1
ENDMDL
MODEL 4
REMARK VINA RESULT:     1.456      1.735      2.135
REMARK INTER + INTRA:           1.332
REMARK INTER:                   1.547
REMARK INTRA:                  -0.215
REMARK UNBOUND:                -0.209
REMARK  Name = Nicotine.pdb
REMARK  2 active torsions:
REMARK  status: ('A' for Active; 'I' for Inactive)
REMARK    1  A    between atoms: C_3  and  C_6
REMARK    2  A    between atoms: N_4  and  C_12
REMARK                            x       y       z     vdW  Elec       q    Type
REMARK                         _______ _______ _______ _____ _____    ______ ____
ROOT
ATOM      1  C   UNL     1      -3.647   3.402  -1.688  0.00  0.00    +0.017 C 
ATOM      2  C   UNL     1      -2.854   4.012  -2.874  0.00  0.00    +0.025 C 
ATOM      3  C   UNL     1      -3.574   5.355  -3.119  0.00  0.00    +0.088 C 
ATOM      4  N   UNL     1      -4.931   5.232  -2.558  0.00  0.00    -0.298 NA
ATOM      5  C   UNL     1      -5.090   3.871  -2.003  0.00  0.00    +0.085 C 
ATOM      6  C   UNL     1      -5.170   6.252  -1.529  0.00  0.00    +0.105 C 
ENDROOT
BRANCH   3   7
ATOM      7  C   UNL     1      -3.652   5.632  -4.598  0.00  0.00    -0.012 A 
ATOM      8  C   UNL     1      -4.694   6.378  -5.115  0.00  0.00    +0.115 A 
ATOM      9  N   UNL     1      -4.770   6.626  -6.409  0.00  0.00    -0.263 NA
ATOM     10  C   UNL     1      -3.864   6.176  -7.255  0.00  0.00    +0.111 A 
ATOM     11  C   UNL     1      -2.793   5.422  -6.811  0.00  0.00    +0.020 A 
ATOM     12  C   UNL     1      -2.677   5.147  -5.457  0.00  0.00    +0.008 A 
ENDBRANCH   3   7
TORSDOF 1
ENDMDL
