MODEL 1
REMARK VINA RESULT:    -3.049      0.000      0.000
REMARK INTER + INTRA:          -3.399
REMARK INTER:                  -3.228
REMARK INTRA:                  -0.171
REMARK UNBOUND:                -0.171
REMARK  Name = Nicotine.pdb
REMARK  2 active torsions:
REMARK  status: ('A' for Active; 'I' for Inactive)
REMARK    1  A    between atoms: C_3  and  C_6
REMARK    2  A    between atoms: N_4  and  C_12
REMARK                            x       y       z     vdW  Elec       q    Type
REMARK                         _______ _______ _______ _____ _____    ______ ____
ROOT
ATOM      1  C   UNL     1       1.175   7.006  -3.135  0.00  0.00    +0.017 C 
ATOM      2  C   UNL     1       2.576   7.027  -2.468  0.00  0.00    +0.025 C 
ATOM      3  C   UNL     1       3.529   6.782  -3.657  0.00  0.00    +0.088 C 
ATOM      4  N   UNL     1       2.746   6.121  -4.716  0.00  0.00    -0.298 NA
ATOM      5  C   UNL     1       1.364   5.925  -4.228  0.00  0.00    +0.085 C 
ATOM      6  C   UNL     1       2.760   6.912  -5.954  0.00  0.00    +0.105 C 
ENDROOT
BRANCH   3   7
ATOM      7  C   UNL     1       4.666   5.892  -3.227  0.00  0.00    -0.012 A 
ATOM      8  C   UNL     1       4.514   4.518  -3.218  0.00  0.00    +0.115 A 
ATOM      9  N   UNL     1       5.504   3.732  -2.843  0.00  0.00    -0.263 NA
ATOM     10  C   UNL     1       6.670   4.218  -2.465  0.00  0.00    +0.111 A 
ATOM     11  C   UNL     1       6.896   5.582  -2.449  0.00  0.00    +0.020 A 
ATOM     12  C   UNL     1       5.880   6.439  -2.841  0.00  0.00    +0.008 A 
ENDBRANCH   3   7
TORSDOF 1
ENDMDL
MODEL 2
REMARK VINA RESULT:    -2.930      1.679      2.521
REMARK INTER + INTRA:          -3.272
REMARK INTER:                  -3.059
REMARK INTRA:                  -0.213
REMARK UNBOUND:                -0.171
REMARK  Name = Nicotine.pdb
REMARK  2 active torsions:
REMARK  status: ('A' for Active; 'I' for Inactive)
REMARK    1  A    between atoms: C_3  and  C_6
REMARK    2  A    between atoms: N_4  and  C_12
REMARK                            x       y       z     vdW  Elec       q    Type
REMARK                         _______ _______ _______ _____ _____    ______ ____
ROOT
ATOM      1  C   UNL     1       2.720   5.972  -3.156  0.00  0.00    +0.017 C 
ATOM      2  C   UNL     1       4.148   6.364  -2.693  0.00  0.00    +0.025 C 
ATOM      3  C   UNL     1       5.052   5.435  -3.531  0.00  0.00    +0.088 C 
ATOM      4  N   UNL     1       4.229   4.284  -3.947  0.00  0.00    -0.298 NA
ATOM      5  C   UNL     1       2.872   4.447  -3.384  0.00  0.00    +0.085 C 
ATOM      6  C   UNL     1       4.183   4.170  -5.410  0.00  0.00    +0.105 C 
ENDROOT
BRANCH   3   7
ATOM      7  C   UNL     1       6.214   4.962  -2.698  0.00  0.00    -0.012 A 
ATOM      8  C   UNL     1       7.188   5.852  -2.287  0.00  0.00    +0.115 A 
ATOM      9  N   UNL     1       8.208   5.447  -1.557  0.00  0.00    -0.263 NA
ATOM     10  C   UNL     1       8.343   4.187  -1.193  0.00  0.00    +0.111 A 
ATOM     11  C   UNL     1       7.408   3.239  -1.566  0.00  0.00    +0.020 A 
ATOM     12  C   UNL     1       6.319   3.629  -2.329  0.00  0.00    +0.008 A 
ENDBRANCH   3   7
TORSDOF 1
ENDMDL
MODEL 3
REMARK VINA RESULT:    -2.860      1.751      2.762
REMARK INTER + INTRA:          -3.198
REMARK INTER:                  -2.988
REMARK INTRA:                  -0.210
REMARK UNBOUND:                -0.171
REMARK  Name = Nicotine.pdb
REMARK  2 active torsions:
REMARK  status: ('A' for Active; 'I' for Inactive)
REMARK    1  A    between atoms: C_3  and  C_6
REMARK    2  A    between atoms: N_4  and  C_12
REMARK                            x       y       z     vdW  Elec       q    Type
REMARK                         _______ _______ _______ _____ _____    ______ ____
ROOT
ATOM      1  C   UNL     1       0.263   3.792  -5.804  0.00  0.00    +0.017 C 
ATOM      2  C   UNL     1       1.026   3.872  -4.455  0.00  0.00    +0.025 C 
ATOM      3  C   UNL     1       1.273   5.386  -4.285  0.00  0.00    +0.088 C 
ATOM      4  N   UNL     1       1.196   5.994  -5.625  0.00  0.00    -0.298 NA
ATOM      5  C   UNL     1       0.940   4.925  -6.614  0.00  0.00    +0.085 C 
ATOM      6  C   UNL     1       0.149   7.023  -5.678  0.00  0.00    +0.105 C 
ENDROOT
BRANCH   3   7
ATOM      7  C   UNL     1       2.638   5.620  -3.692  0.00  0.00    -0.012 A 
ATOM      8  C   UNL     1       3.707   4.826  -4.063  0.00  0.00    +0.115 A 
ATOM      9  N   UNL     1       4.905   5.024  -3.548  0.00  0.00    -0.263 NA
ATOM     10  C   UNL     1       5.131   5.978  -2.667  0.00  0.00    +0.111 A 
ATOM     11  C   UNL     1       4.111   6.812  -2.248  0.00  0.00    +0.020 A 
ATOM     12  C   UNL     1       2.839   6.637  -2.771  0.00  0.00    +0.008 A 
ENDBRANCH   3   7
TORSDOF 1
ENDMDL
MODEL 4
REMARK VINA RESULT:    -2.857      0.958      1.442
REMARK INTER + INTRA:          -3.195
REMARK INTER:                  -3.001
REMARK INTRA:                  -0.193
REMARK UNBOUND:                -0.171
REMARK  Name = Nicotine.pdb
REMARK  2 active torsions:
REMARK  status: ('A' for Active; 'I' for Inactive)
REMARK    1  A    between atoms: C_3  and  C_6
REMARK    2  A    between atoms: N_4  and  C_12
REMARK                            x       y       z     vdW  Elec       q    Type
REMARK                         _______ _______ _______ _____ _____    ______ ____
ROOT
ATOM      1  C   UNL     1       1.012   6.793  -3.569  0.00  0.00    +0.017 C 
ATOM      2  C   UNL     1       2.329   7.027  -2.783  0.00  0.00    +0.025 C 
ATOM      3  C   UNL     1       3.412   6.909  -3.877  0.00  0.00    +0.088 C 
ATOM      4  N   UNL     1       2.832   6.127  -4.983  0.00  0.00    -0.298 NA
ATOM      5  C   UNL     1       1.455   5.737  -4.613  0.00  0.00    +0.085 C 
ATOM      6  C   UNL     1       2.844   6.896  -6.235  0.00  0.00    +0.105 C 
ENDROOT
BRANCH   3   7
ATOM      7  C   UNL     1       4.622   6.201  -3.326  0.00  0.00    -0.012 A 
ATOM      8  C   UNL     1       5.743   6.918  -2.952  0.00  0.00    +0.115 A 
ATOM      9  N   UNL     1       6.806   6.306  -2.469  0.00  0.00    -0.263 NA
ATOM     10  C   UNL     1       6.845   4.996  -2.324  0.00  0.00    +0.111 A 
ATOM     11  C   UNL     1       5.762   4.213  -2.675  0.00  0.00    +0.020 A 
ATOM     12  C   UNL     1       4.624   4.822  -3.182  0.00  0.00    +0.008 A 
ENDBRANCH   3   7
TORSDOF 1
ENDMDL
MODEL 5
REMARK VINA RESULT:    -2.796      4.331      7.454
REMARK INTER + INTRA:          -3.131
REMARK INTER:                  -2.931
REMARK INTRA:                  -0.200
REMARK UNBOUND:                -0.171
REMARK  Name = Nicotine.pdb
REMARK  2 active torsions:
REMARK  status: ('A' for Active; 'I' for Inactive)
REMARK    1  A    between atoms: C_3  and  C_6
REMARK    2  A    between atoms: N_4  and  C_12
REMARK                            x       y       z     vdW  Elec       q    Type
REMARK                         _______ _______ _______ _____ _____    ______ ____
ROOT
ATOM      1  C   UNL     1       7.599   0.544   2.827  0.00  0.00    +0.017 C 
ATOM      2  C   UNL     1       7.668   0.574   1.277  0.00  0.00    +0.025 C 
ATOM      3  C   UNL     1       8.377   1.914   0.987  0.00  0.00    +0.088 C 
ATOM      4  N   UNL     1       8.184   2.775   2.167  0.00  0.00    -0.298 NA
ATOM      5  C   UNL     1       7.370   2.040   3.158  0.00  0.00    +0.085 C 
ATOM      6  C   UNL     1       9.474   3.180   2.741  0.00  0.00    +0.105 C 
ENDROOT
BRANCH   3   7
ATOM      7  C   UNL     1       7.768   2.563  -0.229  0.00  0.00    -0.012 A 
ATOM      8  C   UNL     1       6.759   1.929  -0.928  0.00  0.00    +0.115 A 
ATOM      9  N   UNL     1       6.220   2.491  -1.993  0.00  0.00    -0.263 NA
ATOM     10  C   UNL     1       6.618   3.669  -2.431  0.00  0.00    +0.111 A 
ATOM     11  C   UNL     1       7.623   4.363  -1.783  0.00  0.00    +0.020 A 
ATOM     12  C   UNL     1       8.209   3.806  -0.657  0.00  0.00    +0.008 A 
ENDBRANCH   3   7
TORSDOF 1
ENDMDL
MODEL 6
REMARK VINA RESULT:    -2.704      1.348      4.457
REMARK INTER + INTRA:          -3.034
REMARK INTER:                  -2.829
REMARK INTRA:                  -0.205
REMARK UNBOUND:                -0.171
REMARK  Name = Nicotine.pdb
REMARK  2 active torsions:
REMARK  status: ('A' for Active; 'I' for Inactive)
REMARK    1  A    between atoms: C_3  and  C_6
REMARK    2  A    between atoms: N_4  and  C_12
REMARK                            x       y       z     vdW  Elec       q    Type
REMARK                         _______ _______ _______ _____ _____    ______ ____
ROOT
ATOM      1  C   UNL     1       7.224   6.876  -3.113  0.00  0.00    +0.017 C 
ATOM      2  C   UNL     1       5.788   6.989  -2.537  0.00  0.00    +0.025 C 
ATOM      3  C   UNL     1       5.209   5.577  -2.771  0.00  0.00    +0.088 C 
ATOM      4  N   UNL     1       5.991   4.958  -3.856  0.00  0.00    -0.298 NA
ATOM      5  C   UNL     1       7.005   5.929  -4.319  0.00  0.00    +0.085 C 
ATOM      6  C   UNL     1       6.622   3.710  -3.406  0.00  0.00    +0.105 C 
ENDROOT
BRANCH   3   7
ATOM      7  C   UNL     1       3.760   5.677  -3.173  0.00  0.00    -0.012 A 
ATOM      8  C   UNL     1       3.162   6.913  -3.331  0.00  0.00    +0.115 A 
ATOM      9  N   UNL     1       1.895   7.010  -3.683  0.00  0.00    -0.263 NA
ATOM     10  C   UNL     1       1.152   5.942  -3.896  0.00  0.00    +0.111 A 
ATOM     11  C   UNL     1       1.681   4.672  -3.758  0.00  0.00    +0.020 A 
ATOM     12  C   UNL     1       3.012   4.531  -3.395  0.00  0.00    +0.008 A 
ENDBRANCH   3   7
TORSDOF 1
ENDMDL
MODEL 7
REMARK VINA RESULT:    -2.612      7.469      8.889
REMARK INTER + INTRA:          -2.936
REMARK INTER:                  -2.720
REMARK INTRA:                  -0.216
REMARK UNBOUND:                -0.171
REMARK  Name = Nicotine.pdb
REMARK  2 active torsions:
REMARK  status: ('A' for Active; 'I' for Inactive)
REMARK    1  A    between atoms: C_3  and  C_6
REMARK    2  A    between atoms: N_4  and  C_12
REMARK                            x       y       z     vdW  Elec       q    Type
REMARK                         _______ _______ _______ _____ _____    ______ ____
ROOT
ATOM      1  C   UNL     1       7.896   2.003   0.643  0.00  0.00    +0.017 C 
ATOM      2  C   UNL     1       8.730   3.309   0.706  0.00  0.00    +0.025 C 
ATOM      3  C   UNL     1       9.511   3.159   2.029  0.00  0.00    +0.088 C 
ATOM      4  N   UNL     1       8.768   2.202   2.869  0.00  0.00    -0.298 NA
ATOM      5  C   UNL     1       7.555   1.776   2.138  0.00  0.00    +0.085 C 
ATOM      6  C   UNL     1       9.605   1.047   3.219  0.00  0.00    +0.105 C 
ENDROOT
BRANCH   3   7
ATOM      7  C   UNL     1       9.601   4.492   2.726  0.00  0.00    -0.012 A 
ATOM      8  C   UNL     1       8.952   4.698   3.928  0.00  0.00    +0.115 A 
ATOM      9  N   UNL     1       9.025   5.862   4.544  0.00  0.00    -0.263 NA
ATOM     10  C   UNL     1       9.715   6.868   4.044  0.00  0.00    +0.111 A 
ATOM     11  C   UNL     1      10.391   6.736   2.845  0.00  0.00    +0.020 A 
ATOM     12  C   UNL     1      10.340   5.526   2.172  0.00  0.00    +0.008 A 
ENDBRANCH   3   7
TORSDOF 1
ENDMDL
MODEL 8
REMARK VINA RESULT:    -2.602      4.494      6.607
REMARK INTER + INTRA:          -2.925
REMARK INTER:                  -2.670
REMARK INTRA:                  -0.254
REMARK UNBOUND:                -0.171
REMARK  Name = Nicotine.pdb
REMARK  2 active torsions:
REMARK  status: ('A' for Active; 'I' for Inactive)
REMARK    1  A    between atoms: C_3  and  C_6
REMARK    2  A    between atoms: N_4  and  C_12
REMARK                            x       y       z     vdW  Elec       q    Type
REMARK                         _______ _______ _______ _____ _____    ______ ____
ROOT
ATOM      1  C   UNL     1       6.101  -0.390  -1.007  0.00  0.00    +0.017 C 
ATOM      2  C   UNL     1       7.065   0.599  -1.714  0.00  0.00    +0.025 C 
ATOM      3  C   UNL     1       7.566   1.485  -0.554  0.00  0.00    +0.088 C 
ATOM      4  N   UNL     1       6.570   1.392   0.529  0.00  0.00    -0.298 NA
ATOM      5  C   UNL     1       5.469   0.514   0.081  0.00  0.00    +0.085 C 
ATOM      6  C   UNL     1       7.180   0.885   1.764  0.00  0.00    +0.105 C 
ENDROOT
BRANCH   3   7
ATOM      7  C   UNL     1       7.692   2.913  -1.016  0.00  0.00    -0.012 A 
ATOM      8  C   UNL     1       8.660   3.740  -0.478  0.00  0.00    +0.115 A 
ATOM      9  N   UNL     1       8.777   4.991  -0.878  0.00  0.00    -0.263 NA
ATOM     10  C   UNL     1       7.983   5.502  -1.797  0.00  0.00    +0.111 A 
ATOM     11  C   UNL     1       6.991   4.736  -2.381  0.00  0.00    +0.020 A 
ATOM     12  C   UNL     1       6.842   3.414  -1.990  0.00  0.00    +0.008 A 
ENDBRANCH   3   7
TORSDOF 1
ENDMDL
MODEL 9
REMARK VINA RESULT:    -2.588      4.364      6.424
REMARK INTER + INTRA:          -2.910
REMARK INTER:                  -2.695
REMARK INTRA:                  -0.215
REMARK UNBOUND:                -0.171
REMARK  Name = Nicotine.pdb
REMARK  2 active torsions:
REMARK  status: ('A' for Active; 'I' for Inactive)
REMARK    1  A    between atoms: C_3  and  C_6
REMARK    2  A    between atoms: N_4  and  C_12
REMARK                            x       y       z     vdW  Elec       q    Type
REMARK                         _______ _______ _______ _____ _____    ______ ____
ROOT
ATOM      1  C   UNL     1       7.581   4.760  -2.222  0.00  0.00    +0.017 C 
ATOM      2  C   UNL     1       8.321   4.361  -0.918  0.00  0.00    +0.025 C 
ATOM      3  C   UNL     1       8.269   2.819  -0.948  0.00  0.00    +0.088 C 
ATOM      4  N   UNL     1       7.144   2.436  -1.821  0.00  0.00    -0.298 NA
ATOM      5  C   UNL     1       6.487   3.667  -2.309  0.00  0.00    +0.085 C 
ATOM      6  C   UNL     1       7.605   1.605  -2.940  0.00  0.00    +0.105 C 
ENDROOT
BRANCH   3   7
ATOM      7  C   UNL     1       8.043   2.287   0.444  0.00  0.00    -0.012 A 
ATOM      8  C   UNL     1       7.418   1.069   0.634  0.00  0.00    +0.115 A 
ATOM      9  N   UNL     1       7.217   0.595   1.848  0.00  0.00    -0.263 NA
ATOM     10  C   UNL     1       7.600   1.258   2.922  0.00  0.00    +0.111 A 
ATOM     11  C   UNL     1       8.232   2.482   2.811  0.00  0.00    +0.020 A 
ATOM     12  C   UNL     1       8.465   3.009   1.550  0.00  0.00    +0.008 A 
ENDBRANCH   3   7
TORSDOF 1
ENDMDL
MODEL 10
REMARK VINA RESULT:    -2.550      1.301      4.402
REMARK INTER + INTRA:          -2.870
REMARK INTER:                  -2.660
REMARK INTRA:                  -0.210
REMARK UNBOUND:                -0.171
REMARK  Name = Nicotine.pdb
REMARK  2 active torsions:
REMARK  status: ('A' for Active; 'I' for Inactive)
REMARK    1  A    between atoms: C_3  and  C_6
REMARK    2  A    between atoms: N_4  and  C_12
REMARK                            x       y       z     vdW  Elec       q    Type
REMARK                         _______ _______ _______ _____ _____    ______ ____
ROOT
ATOM      1  C   UNL     1       6.696   4.338  -2.530  0.00  0.00    +0.017 C 
ATOM      2  C   UNL     1       5.256   4.190  -3.087  0.00  0.00    +0.025 C 
ATOM      3  C   UNL     1       5.121   5.405  -4.029  0.00  0.00    +0.088 C 
ATOM      4  N   UNL     1       6.112   6.406  -3.595  0.00  0.00    -0.298 NA
ATOM      5  C   UNL     1       6.831   5.877  -2.417  0.00  0.00    +0.085 C 
ATOM      6  C   UNL     1       7.045   6.729  -4.682  0.00  0.00    +0.105 C 
ENDROOT
BRANCH   3   7
ATOM      7  C   UNL     1       3.732   5.979  -3.930  0.00  0.00    -0.012 A 
ATOM      8  C   UNL     1       2.896   5.983  -5.031  0.00  0.00    +0.115 A 
ATOM      9  N   UNL     1       1.679   6.484  -4.952  0.00  0.00    -0.263 NA
ATOM     10  C   UNL     1       1.212   6.998  -3.831  0.00  0.00    +0.111 A 
ATOM     11  C   UNL     1       1.989   7.028  -2.689  0.00  0.00    +0.020 A 
ATOM     12  C   UNL     1       3.273   6.506  -2.732  0.00  0.00    +0.008 A 
ENDBRANCH   3   7
TORSDOF 1
ENDMDL
