MODEL 1
REMARK VINA RESULT:    -4.084      0.000      0.000
REMARK INTER + INTRA:          -4.567
REMARK INTER:                  -4.323
REMARK INTRA:                  -0.244
REMARK UNBOUND:                -0.244
REMARK  Name = Nicotine.pdb
REMARK  2 active torsions:
REMARK  status: ('A' for Active; 'I' for Inactive)
REMARK    1  A    between atoms: C_3  and  C_6
REMARK    2  A    between atoms: N_4  and  C_12
REMARK                            x       y       z     vdW  Elec       q    Type
REMARK                         _______ _______ _______ _____ _____    ______ ____
ROOT
ATOM      1  C   UNL     1       9.071  -4.796  -0.471  0.00  0.00    +0.017 C 
ATOM      2  C   UNL     1       7.605  -4.288  -0.479  0.00  0.00    +0.025 C 
ATOM      3  C   UNL     1       7.610  -3.195   0.610  0.00  0.00    +0.088 C 
ATOM      4  N   UNL     1       8.748  -3.474   1.504  0.00  0.00    -0.298 NA
ATOM      5  C   UNL     1       9.427  -4.700   1.033  0.00  0.00    +0.085 C 
ATOM      6  C   UNL     1       9.678  -2.339   1.544  0.00  0.00    +0.105 C 
ENDROOT
BRANCH   3   7
ATOM      7  C   UNL     1       6.321  -3.240   1.389  0.00  0.00    -0.012 A 
ATOM      8  C   UNL     1       6.064  -2.302   2.371  0.00  0.00    +0.115 A 
ATOM      9  N   UNL     1       4.938  -2.334   3.057  0.00  0.00    -0.263 NA
ATOM     10  C   UNL     1       4.020  -3.255   2.838  0.00  0.00    +0.111 A 
ATOM     11  C   UNL     1       4.207  -4.226   1.872  0.00  0.00    +0.020 A 
ATOM     12  C   UNL     1       5.376  -4.220   1.127  0.00  0.00    +0.008 A 
ENDBRANCH   3   7
TORSDOF 1
ENDMDL
MODEL 2
REMARK VINA RESULT:    -4.065      1.235      1.713
REMARK INTER + INTRA:          -4.547
REMARK INTER:                  -4.303
REMARK INTRA:                  -0.243
REMARK UNBOUND:                -0.244
REMARK  Name = Nicotine.pdb
REMARK  2 active torsions:
REMARK  status: ('A' for Active; 'I' for Inactive)
REMARK    1  A    between atoms: C_3  and  C_6
REMARK    2  A    between atoms: N_4  and  C_12
REMARK                            x       y       z     vdW  Elec       q    Type
REMARK                         _______ _______ _______ _____ _____    ______ ____
ROOT
ATOM      1  C   UNL     1      10.862  -3.629   0.722  0.00  0.00    +0.017 C 
ATOM      2  C   UNL     1       9.491  -3.716   0.002  0.00  0.00    +0.025 C 
ATOM      3  C   UNL     1       8.585  -2.818   0.871  0.00  0.00    +0.088 C 
ATOM      4  N   UNL     1       9.203  -2.735   2.206  0.00  0.00    -0.298 NA
ATOM      5  C   UNL     1      10.431  -3.559   2.208  0.00  0.00    +0.085 C 
ATOM      6  C   UNL     1       9.501  -1.343   2.564  0.00  0.00    +0.105 C 
ENDROOT
BRANCH   3   7
ATOM      7  C   UNL     1       7.210  -3.427   0.977  0.00  0.00    -0.012 A 
ATOM      8  C   UNL     1       6.206  -2.770   1.663  0.00  0.00    +0.115 A 
ATOM      9  N   UNL     1       5.001  -3.296   1.761  0.00  0.00    -0.263 NA
ATOM     10  C   UNL     1       4.705  -4.459   1.215  0.00  0.00    +0.111 A 
ATOM     11  C   UNL     1       5.659  -5.174   0.513  0.00  0.00    +0.020 A 
ATOM     12  C   UNL     1       6.936  -4.650   0.385  0.00  0.00    +0.008 A 
ENDBRANCH   3   7
TORSDOF 1
ENDMDL
MODEL 3
REMARK VINA RESULT:    -3.692      2.173      3.995
REMARK INTER + INTRA:          -4.152
REMARK INTER:                  -3.937
REMARK INTRA:                  -0.215
REMARK UNBOUND:                -0.244
REMARK  Name = Nicotine.pdb
REMARK  2 active torsions:
REMARK  status: ('A' for Active; 'I' for Inactive)
REMARK    1  A    between atoms: C_3  and  C_6
REMARK    2  A    between atoms: N_4  and  C_12
REMARK                            x       y       z     vdW  Elec       q    Type
REMARK                         _______ _______ _______ _____ _____    ______ ____
ROOT
ATOM      1  C   UNL     1       6.181  -5.160   0.540  0.00  0.00    +0.017 C 
ATOM      2  C   UNL     1       6.691  -3.701   0.402  0.00  0.00    +0.025 C 
ATOM      3  C   UNL     1       8.218  -3.880   0.259  0.00  0.00    +0.088 C 
ATOM      4  N   UNL     1       8.560  -5.191   0.839  0.00  0.00    -0.298 NA
ATOM      5  C   UNL     1       7.324  -5.816   1.354  0.00  0.00    +0.085 C 
ATOM      6  C   UNL     1       9.212  -6.053  -0.156  0.00  0.00    +0.105 C 
ENDROOT
BRANCH   3   7
ATOM      7  C   UNL     1       8.934  -2.784   1.006  0.00  0.00    -0.012 A 
ATOM      8  C   UNL     1       8.326  -2.154   2.075  0.00  0.00    +0.115 A 
ATOM      9  N   UNL     1       8.946  -1.195   2.734  0.00  0.00    -0.263 NA
ATOM     10  C   UNL     1      10.160  -0.799   2.403  0.00  0.00    +0.111 A 
ATOM     11  C   UNL     1      10.831  -1.384   1.345  0.00  0.00    +0.020 A 
ATOM     12  C   UNL     1      10.213  -2.399   0.632  0.00  0.00    +0.008 A 
ENDBRANCH   3   7
TORSDOF 1
ENDMDL
MODEL 4
REMARK VINA RESULT:    -3.565      2.049      5.295
REMARK INTER + INTRA:          -4.018
REMARK INTER:                  -3.849
REMARK INTRA:                  -0.169
REMARK UNBOUND:                -0.244
REMARK  Name = Nicotine.pdb
REMARK  2 active torsions:
REMARK  status: ('A' for Active; 'I' for Inactive)
REMARK    1  A    between atoms: C_3  and  C_6
REMARK    2  A    between atoms: N_4  and  C_12
REMARK                            x       y       z     vdW  Elec       q    Type
REMARK                         _______ _______ _______ _____ _____    ______ ____
ROOT
ATOM      1  C   UNL     1       2.969  -5.197   4.766  0.00  0.00    +0.017 C 
ATOM      2  C   UNL     1       4.378  -4.765   4.280  0.00  0.00    +0.025 C 
ATOM      3  C   UNL     1       4.063  -3.743   3.167  0.00  0.00    +0.088 C 
ATOM      4  N   UNL     1       2.695  -4.019   2.694  0.00  0.00    -0.298 NA
ATOM      5  C   UNL     1       2.163  -5.177   3.443  0.00  0.00    +0.085 C 
ATOM      6  C   UNL     1       1.832  -2.842   2.860  0.00  0.00    +0.105 C 
ENDROOT
BRANCH   3   7
ATOM      7  C   UNL     1       5.042  -3.902   2.033  0.00  0.00    -0.012 A 
ATOM      8  C   UNL     1       4.956  -4.988   1.183  0.00  0.00    +0.115 A 
ATOM      9  N   UNL     1       5.808  -5.136   0.187  0.00  0.00    -0.263 NA
ATOM     10  C   UNL     1       6.769  -4.262  -0.037  0.00  0.00    +0.111 A 
ATOM     11  C   UNL     1       6.918  -3.150   0.771  0.00  0.00    +0.020 A 
ATOM     12  C   UNL     1       6.037  -2.959   1.825  0.00  0.00    +0.008 A 
ENDBRANCH   3   7
TORSDOF 1
ENDMDL
MODEL 5
REMARK VINA RESULT:    -3.535      1.521      2.054
REMARK INTER + INTRA:          -3.986
REMARK INTER:                  -3.784
REMARK INTRA:                  -0.202
REMARK UNBOUND:                -0.244
REMARK  Name = Nicotine.pdb
REMARK  2 active torsions:
REMARK  status: ('A' for Active; 'I' for Inactive)
REMARK    1  A    between atoms: C_3  and  C_6
REMARK    2  A    between atoms: N_4  and  C_12
REMARK                            x       y       z     vdW  Elec       q    Type
REMARK                         _______ _______ _______ _____ _____    ______ ____
ROOT
ATOM      1  C   UNL     1       8.476  -4.633  -0.363  0.00  0.00    +0.017 C 
ATOM      2  C   UNL     1       7.544  -3.544   0.229  0.00  0.00    +0.025 C 
ATOM      3  C   UNL     1       7.351  -4.008   1.688  0.00  0.00    +0.088 C 
ATOM      4  N   UNL     1       7.636  -5.453   1.729  0.00  0.00    -0.298 NA
ATOM      5  C   UNL     1       7.970  -5.906   0.361  0.00  0.00    +0.085 C 
ATOM      6  C   UNL     1       8.730  -5.749   2.663  0.00  0.00    +0.105 C 
ENDROOT
BRANCH   3   7
ATOM      7  C   UNL     1       5.932  -3.751   2.125  0.00  0.00    -0.012 A 
ATOM      8  C   UNL     1       4.876  -4.080   1.296  0.00  0.00    +0.115 A 
ATOM      9  N   UNL     1       3.631  -3.859   1.670  0.00  0.00    -0.263 NA
ATOM     10  C   UNL     1       3.343  -3.320   2.839  0.00  0.00    +0.111 A 
ATOM     11  C   UNL     1       4.347  -2.966   3.721  0.00  0.00    +0.020 A 
ATOM     12  C   UNL     1       5.668  -3.188   3.364  0.00  0.00    +0.008 A 
ENDBRANCH   3   7
TORSDOF 1
ENDMDL
MODEL 6
REMARK VINA RESULT:    -3.525      1.342      2.260
REMARK INTER + INTRA:          -3.976
REMARK INTER:                  -3.778
REMARK INTRA:                  -0.197
REMARK UNBOUND:                -0.244
REMARK  Name = Nicotine.pdb
REMARK  2 active torsions:
REMARK  status: ('A' for Active; 'I' for Inactive)
REMARK    1  A    between atoms: C_3  and  C_6
REMARK    2  A    between atoms: N_4  and  C_12
REMARK                            x       y       z     vdW  Elec       q    Type
REMARK                         _______ _______ _______ _____ _____    ______ ____
ROOT
ATOM      1  C   UNL     1      10.236  -1.959   1.576  0.00  0.00    +0.017 C 
ATOM      2  C   UNL     1       8.913  -2.350   2.284  0.00  0.00    +0.025 C 
ATOM      3  C   UNL     1       8.677  -3.798   1.804  0.00  0.00    +0.088 C 
ATOM      4  N   UNL     1       9.428  -3.970   0.548  0.00  0.00    -0.298 NA
ATOM      5  C   UNL     1      10.093  -2.691   0.218  0.00  0.00    +0.085 C 
ATOM      6  C   UNL     1      10.407  -5.058   0.663  0.00  0.00    +0.105 C 
ENDROOT
BRANCH   3   7
ATOM      7  C   UNL     1       7.208  -4.025   1.560  0.00  0.00    -0.012 A 
ATOM      8  C   UNL     1       6.288  -3.040   1.868  0.00  0.00    +0.115 A 
ATOM      9  N   UNL     1       5.000  -3.230   1.657  0.00  0.00    -0.263 NA
ATOM     10  C   UNL     1       4.540  -4.357   1.150  0.00  0.00    +0.111 A 
ATOM     11  C   UNL     1       5.400  -5.387   0.817  0.00  0.00    +0.020 A 
ATOM     12  C   UNL     1       6.761  -5.221   1.020  0.00  0.00    +0.008 A 
ENDBRANCH   3   7
TORSDOF 1
ENDMDL
MODEL 7
REMARK VINA RESULT:    -3.404      1.404      4.305
REMARK INTER + INTRA:          -3.847
REMARK INTER:                  -3.625
REMARK INTRA:                  -0.222
REMARK UNBOUND:                -0.244
REMARK  Name = Nicotine.pdb
REMARK  2 active torsions:
REMARK  status: ('A' for Active; 'I' for Inactive)
REMARK    1  A    between atoms: C_3  and  C_6
REMARK    2  A    between atoms: N_4  and  C_12
REMARK                            x       y       z     vdW  Elec       q    Type
REMARK                         _______ _______ _______ _____ _____    ______ ____
ROOT
ATOM      1  C   UNL     1       3.957  -4.212   1.958  0.00  0.00    +0.017 C 
ATOM      2  C   UNL     1       5.105  -4.581   0.981  0.00  0.00    +0.025 C 
ATOM      3  C   UNL     1       6.319  -4.749   1.919  0.00  0.00    +0.088 C 
ATOM      4  N   UNL     1       6.027  -3.994   3.151  0.00  0.00    -0.298 NA
ATOM      5  C   UNL     1       4.704  -3.350   3.007  0.00  0.00    +0.085 C 
ATOM      6  C   UNL     1       6.059  -4.873   4.327  0.00  0.00    +0.105 C 
ENDROOT
BRANCH   3   7
ATOM      7  C   UNL     1       7.556  -4.197   1.260  0.00  0.00    -0.012 A 
ATOM      8  C   UNL     1       8.249  -3.151   1.838  0.00  0.00    +0.115 A 
ATOM      9  N   UNL     1       9.333  -2.662   1.268  0.00  0.00    -0.263 NA
ATOM     10  C   UNL     1       9.797  -3.146   0.133  0.00  0.00    +0.111 A 
ATOM     11  C   UNL     1       9.157  -4.192  -0.505  0.00  0.00    +0.020 A 
ATOM     12  C   UNL     1       8.017  -4.736   0.068  0.00  0.00    +0.008 A 
ENDBRANCH   3   7
TORSDOF 1
ENDMDL
MODEL 8
REMARK VINA RESULT:    -3.295      2.036      3.074
REMARK INTER + INTRA:          -3.731
REMARK INTER:                  -3.519
REMARK INTRA:                  -0.213
REMARK UNBOUND:                -0.244
REMARK  Name = Nicotine.pdb
REMARK  2 active torsions:
REMARK  status: ('A' for Active; 'I' for Inactive)
REMARK    1  A    between atoms: C_3  and  C_6
REMARK    2  A    between atoms: N_4  and  C_12
REMARK                            x       y       z     vdW  Elec       q    Type
REMARK                         _______ _______ _______ _____ _____    ______ ____
ROOT
ATOM      1  C   UNL     1       7.030  -5.010   0.541  0.00  0.00    +0.017 C 
ATOM      2  C   UNL     1       5.489  -5.185   0.584  0.00  0.00    +0.025 C 
ATOM      3  C   UNL     1       5.029  -3.997   1.455  0.00  0.00    +0.088 C 
ATOM      4  N   UNL     1       6.183  -3.580   2.271  0.00  0.00    -0.298 NA
ATOM      5  C   UNL     1       7.323  -4.470   1.963  0.00  0.00    +0.085 C 
ATOM      6  C   UNL     1       6.528  -2.175   2.018  0.00  0.00    +0.105 C 
ENDROOT
BRANCH   3   7
ATOM      7  C   UNL     1       3.895  -4.426   2.350  0.00  0.00    -0.012 A 
ATOM      8  C   UNL     1       3.850  -5.712   2.853  0.00  0.00    +0.115 A 
ATOM      9  N   UNL     1       2.861  -6.096   3.637  0.00  0.00    -0.263 NA
ATOM     10  C   UNL     1       1.883  -5.277   3.970  0.00  0.00    +0.111 A 
ATOM     11  C   UNL     1       1.861  -3.975   3.506  0.00  0.00    +0.020 A 
ATOM     12  C   UNL     1       2.887  -3.534   2.684  0.00  0.00    +0.008 A 
ENDBRANCH   3   7
TORSDOF 1
ENDMDL
MODEL 9
REMARK VINA RESULT:    -3.069      2.066      4.114
REMARK INTER + INTRA:          -3.492
REMARK INTER:                  -3.237
REMARK INTRA:                  -0.256
REMARK UNBOUND:                -0.244
REMARK  Name = Nicotine.pdb
REMARK  2 active torsions:
REMARK  status: ('A' for Active; 'I' for Inactive)
REMARK    1  A    between atoms: C_3  and  C_6
REMARK    2  A    between atoms: N_4  and  C_12
REMARK                            x       y       z     vdW  Elec       q    Type
REMARK                         _______ _______ _______ _____ _____    ______ ____
ROOT
ATOM      1  C   UNL     1      10.070  -0.865   3.938  0.00  0.00    +0.017 C 
ATOM      2  C   UNL     1       9.546  -1.003   2.484  0.00  0.00    +0.025 C 
ATOM      3  C   UNL     1       8.280  -1.869   2.651  0.00  0.00    +0.088 C 
ATOM      4  N   UNL     1       8.419  -2.606   3.920  0.00  0.00    -0.298 NA
ATOM      5  C   UNL     1       9.720  -2.254   4.528  0.00  0.00    +0.085 C 
ATOM      6  C   UNL     1       7.310  -2.298   4.832  0.00  0.00    +0.105 C 
ENDROOT
BRANCH   3   7
ATOM      7  C   UNL     1       8.167  -2.839   1.503  0.00  0.00    -0.012 A 
ATOM      8  C   UNL     1       6.935  -3.343   1.132  0.00  0.00    +0.115 A 
ATOM      9  N   UNL     1       6.827  -4.192   0.129  0.00  0.00    -0.263 NA
ATOM     10  C   UNL     1       7.880  -4.592  -0.556  0.00  0.00    +0.111 A 
ATOM     11  C   UNL     1       9.145  -4.131  -0.243  0.00  0.00    +0.020 A 
ATOM     12  C   UNL     1       9.297  -3.233   0.802  0.00  0.00    +0.008 A 
ENDBRANCH   3   7
TORSDOF 1
ENDMDL
