MODEL 1
REMARK VINA RESULT:    -3.874      0.000      0.000
REMARK INTER + INTRA:          -4.353
REMARK INTER:                  -4.101
REMARK INTRA:                  -0.252
REMARK UNBOUND:                -0.252
REMARK  Name = Nicotine.pdb
REMARK  2 active torsions:
REMARK  status: ('A' for Active; 'I' for Inactive)
REMARK    1  A    between atoms: C_3  and  C_6
REMARK    2  A    between atoms: N_4  and  C_12
REMARK                            x       y       z     vdW  Elec       q    Type
REMARK                         _______ _______ _______ _____ _____    ______ ____
ROOT
ATOM      1  C   UNL     1      -2.955  -2.755   0.855  0.00  0.00    +0.017 C 
ATOM      2  C   UNL     1      -1.682  -2.291   0.100  0.00  0.00    +0.025 C 
ATOM      3  C   UNL     1      -0.689  -1.994   1.245  0.00  0.00    +0.088 C 
ATOM      4  N   UNL     1      -1.486  -1.748   2.460  0.00  0.00    -0.298 NA
ATOM      5  C   UNL     1      -2.919  -1.853   2.114  0.00  0.00    +0.085 C 
ATOM      6  C   UNL     1      -1.129  -2.694   3.525  0.00  0.00    +0.105 C 
ENDROOT
BRANCH   3   7
ATOM      7  C   UNL     1       0.129  -0.774   0.910  0.00  0.00    -0.012 A 
ATOM      8  C   UNL     1       1.230  -0.439   1.675  0.00  0.00    +0.115 A 
ATOM      9  N   UNL     1       1.951   0.628   1.389  0.00  0.00    -0.263 NA
ATOM     10  C   UNL     1       1.656   1.411   0.371  0.00  0.00    +0.111 A 
ATOM     11  C   UNL     1       0.570   1.139  -0.439  0.00  0.00    +0.020 A 
ATOM     12  C   UNL     1      -0.209   0.024  -0.173  0.00  0.00    +0.008 A 
ENDBRANCH   3   7
TORSDOF 1
ENDMDL
MODEL 2
REMARK VINA RESULT:    -3.844      1.237      4.499
REMARK INTER + INTRA:          -4.321
REMARK INTER:                  -4.117
REMARK INTRA:                  -0.204
REMARK UNBOUND:                -0.252
REMARK  Name = Nicotine.pdb
REMARK  2 active torsions:
REMARK  status: ('A' for Active; 'I' for Inactive)
REMARK    1  A    between atoms: C_3  and  C_6
REMARK    2  A    between atoms: N_4  and  C_12
REMARK                            x       y       z     vdW  Elec       q    Type
REMARK                         _______ _______ _______ _____ _____    ______ ____
ROOT
ATOM      1  C   UNL     1       2.016   0.983   1.045  0.00  0.00    +0.017 C 
ATOM      2  C   UNL     1       1.250  -0.113   1.832  0.00  0.00    +0.025 C 
ATOM      3  C   UNL     1       0.517  -0.891   0.719  0.00  0.00    +0.088 C 
ATOM      4  N   UNL     1       0.408   0.008  -0.444  0.00  0.00    -0.298 NA
ATOM      5  C   UNL     1       1.016   1.309  -0.091  0.00  0.00    +0.085 C 
ATOM      6  C   UNL     1       1.059  -0.575  -1.624  0.00  0.00    +0.105 C 
ENDROOT
BRANCH   3   7
ATOM      7  C   UNL     1      -0.857  -1.289   1.191  0.00  0.00    -0.012 A 
ATOM      8  C   UNL     1      -1.023  -1.912   2.414  0.00  0.00    +0.115 A 
ATOM      9  N   UNL     1      -2.222  -2.264   2.835  0.00  0.00    -0.263 NA
ATOM     10  C   UNL     1      -3.303  -2.038   2.115  0.00  0.00    +0.111 A 
ATOM     11  C   UNL     1      -3.216  -1.419   0.882  0.00  0.00    +0.020 A 
ATOM     12  C   UNL     1      -1.972  -1.030   0.409  0.00  0.00    +0.008 A 
ENDBRANCH   3   7
TORSDOF 1
ENDMDL
MODEL 3
REMARK VINA RESULT:    -3.804      1.480      1.821
REMARK INTER + INTRA:          -4.279
REMARK INTER:                  -4.063
REMARK INTRA:                  -0.216
REMARK UNBOUND:                -0.252
REMARK  Name = Nicotine.pdb
REMARK  2 active torsions:
REMARK  status: ('A' for Active; 'I' for Inactive)
REMARK    1  A    between atoms: C_3  and  C_6
REMARK    2  A    between atoms: N_4  and  C_12
REMARK                            x       y       z     vdW  Elec       q    Type
REMARK                         _______ _______ _______ _____ _____    ______ ____
ROOT
ATOM      1  C   UNL     1      -4.480  -1.253   0.046  0.00  0.00    +0.017 C 
ATOM      2  C   UNL     1      -3.004  -1.081  -0.399  0.00  0.00    +0.025 C 
ATOM      3  C   UNL     1      -2.227  -1.906   0.649  0.00  0.00    +0.088 C 
ATOM      4  N   UNL     1      -3.084  -2.016   1.842  0.00  0.00    -0.298 NA
ATOM      5  C   UNL     1      -4.340  -1.278   1.589  0.00  0.00    +0.085 C 
ATOM      6  C   UNL     1      -3.356  -3.422   2.168  0.00  0.00    +0.105 C 
ENDROOT
BRANCH   3   7
ATOM      7  C   UNL     1      -0.941  -1.204   1.002  0.00  0.00    -0.012 A 
ATOM      8  C   UNL     1      -0.308  -1.468   2.202  0.00  0.00    +0.115 A 
ATOM      9  N   UNL     1       0.817  -0.858   2.520  0.00  0.00    -0.263 NA
ATOM     10  C   UNL     1       1.381   0.020   1.714  0.00  0.00    +0.111 A 
ATOM     11  C   UNL     1       0.806   0.335   0.497  0.00  0.00    +0.020 A 
ATOM     12  C   UNL     1      -0.375  -0.290   0.127  0.00  0.00    +0.008 A 
ENDBRANCH   3   7
TORSDOF 1
ENDMDL
MODEL 4
REMARK VINA RESULT:    -3.718      1.404      4.599
REMARK INTER + INTRA:          -4.188
REMARK INTER:                  -3.946
REMARK INTRA:                  -0.242
REMARK UNBOUND:                -0.252
REMARK  Name = Nicotine.pdb
REMARK  2 active torsions:
REMARK  status: ('A' for Active; 'I' for Inactive)
REMARK    1  A    between atoms: C_3  and  C_6
REMARK    2  A    between atoms: N_4  and  C_12
REMARK                            x       y       z     vdW  Elec       q    Type
REMARK                         _______ _______ _______ _____ _____    ______ ____
ROOT
ATOM      1  C   UNL     1       2.559  -0.853   0.060  0.00  0.00    +0.017 C 
ATOM      2  C   UNL     1       1.282  -1.732  -0.004  0.00  0.00    +0.025 C 
ATOM      3  C   UNL     1       0.147  -0.690  -0.084  0.00  0.00    +0.088 C 
ATOM      4  N   UNL     1       0.673   0.572   0.465  0.00  0.00    -0.298 NA
ATOM      5  C   UNL     1       2.067   0.351   0.902  0.00  0.00    +0.085 C 
ATOM      6  C   UNL     1       0.597   1.651  -0.528  0.00  0.00    +0.105 C 
ENDROOT
BRANCH   3   7
ATOM      7  C   UNL     1      -1.033  -1.154   0.731  0.00  0.00    -0.012 A 
ATOM      8  C   UNL     1      -2.314  -1.062   0.221  0.00  0.00    +0.115 A 
ATOM      9  N   UNL     1      -3.352  -1.465   0.928  0.00  0.00    -0.263 NA
ATOM     10  C   UNL     1      -3.213  -1.968   2.139  0.00  0.00    +0.111 A 
ATOM     11  C   UNL     1      -1.962  -2.091   2.714  0.00  0.00    +0.020 A 
ATOM     12  C   UNL     1      -0.847  -1.683   1.999  0.00  0.00    +0.008 A 
ENDBRANCH   3   7
TORSDOF 1
ENDMDL
MODEL 5
REMARK VINA RESULT:    -3.670      1.249      2.000
REMARK INTER + INTRA:          -4.136
REMARK INTER:                  -3.943
REMARK INTRA:                  -0.194
REMARK UNBOUND:                -0.252
REMARK  Name = Nicotine.pdb
REMARK  2 active torsions:
REMARK  status: ('A' for Active; 'I' for Inactive)
REMARK    1  A    between atoms: C_3  and  C_6
REMARK    2  A    between atoms: N_4  and  C_12
REMARK                            x       y       z     vdW  Elec       q    Type
REMARK                         _______ _______ _______ _____ _____    ______ ____
ROOT
ATOM      1  C   UNL     1      -2.919  -2.850   2.494  0.00  0.00    +0.017 C 
ATOM      2  C   UNL     1      -2.514  -1.625   1.633  0.00  0.00    +0.025 C 
ATOM      3  C   UNL     1      -1.231  -2.108   0.924  0.00  0.00    +0.088 C 
ATOM      4  N   UNL     1      -0.673  -3.207   1.733  0.00  0.00    -0.298 NA
ATOM      5  C   UNL     1      -1.536  -3.406   2.916  0.00  0.00    +0.085 C 
ATOM      6  C   UNL     1      -0.567  -4.440   0.943  0.00  0.00    +0.105 C 
ENDROOT
BRANCH   3   7
ATOM      7  C   UNL     1      -0.238  -0.978   0.837  0.00  0.00    -0.012 A 
ATOM      8  C   UNL     1      -0.235  -0.132  -0.255  0.00  0.00    +0.115 A 
ATOM      9  N   UNL     1       0.630   0.860  -0.339  0.00  0.00    -0.263 NA
ATOM     10  C   UNL     1       1.522   1.083   0.606  0.00  0.00    +0.111 A 
ATOM     11  C   UNL     1       1.579   0.279   1.729  0.00  0.00    +0.020 A 
ATOM     12  C   UNL     1       0.682  -0.770   1.854  0.00  0.00    +0.008 A 
ENDBRANCH   3   7
TORSDOF 1
ENDMDL
MODEL 6
REMARK VINA RESULT:    -3.583      3.293      4.635
REMARK INTER + INTRA:          -4.045
REMARK INTER:                  -3.792
REMARK INTRA:                  -0.253
REMARK UNBOUND:                -0.252
REMARK  Name = Nicotine.pdb
REMARK  2 active torsions:
REMARK  status: ('A' for Active; 'I' for Inactive)
REMARK    1  A    between atoms: C_3  and  C_6
REMARK    2  A    between atoms: N_4  and  C_12
REMARK                            x       y       z     vdW  Elec       q    Type
REMARK                         _______ _______ _______ _____ _____    ______ ____
ROOT
ATOM      1  C   UNL     1       1.762   0.653   1.262  0.00  0.00    +0.017 C 
ATOM      2  C   UNL     1       2.329  -0.253   0.138  0.00  0.00    +0.025 C 
ATOM      3  C   UNL     1       1.290  -1.391   0.052  0.00  0.00    +0.088 C 
ATOM      4  N   UNL     1       0.579  -1.431   1.343  0.00  0.00    -0.298 NA
ATOM      5  C   UNL     1       1.148  -0.391   2.226  0.00  0.00    +0.085 C 
ATOM      6  C   UNL     1      -0.864  -1.233   1.156  0.00  0.00    +0.105 C 
ENDROOT
BRANCH   3   7
ATOM      7  C   UNL     1       1.986  -2.704  -0.193  0.00  0.00    -0.012 A 
ATOM      8  C   UNL     1       1.259  -3.828  -0.537  0.00  0.00    +0.115 A 
ATOM      9  N   UNL     1       1.860  -4.981  -0.753  0.00  0.00    -0.263 NA
ATOM     10  C   UNL     1       3.168  -5.111  -0.650  0.00  0.00    +0.111 A 
ATOM     11  C   UNL     1       3.962  -4.031  -0.310  0.00  0.00    +0.020 A 
ATOM     12  C   UNL     1       3.365  -2.801  -0.081  0.00  0.00    +0.008 A 
ENDBRANCH   3   7
TORSDOF 1
ENDMDL
MODEL 7
REMARK VINA RESULT:    -3.417      1.797      4.528
REMARK INTER + INTRA:          -3.869
REMARK INTER:                  -3.624
REMARK INTRA:                  -0.245
REMARK UNBOUND:                -0.252
REMARK  Name = Nicotine.pdb
REMARK  2 active torsions:
REMARK  status: ('A' for Active; 'I' for Inactive)
REMARK    1  A    between atoms: C_3  and  C_6
REMARK    2  A    between atoms: N_4  and  C_12
REMARK                            x       y       z     vdW  Elec       q    Type
REMARK                         _______ _______ _______ _____ _____    ______ ____
ROOT
ATOM      1  C   UNL     1       2.132  -1.502  -1.528  0.00  0.00    +0.017 C 
ATOM      2  C   UNL     1       0.695  -1.928  -1.129  0.00  0.00    +0.025 C 
ATOM      3  C   UNL     1       0.480  -1.206   0.218  0.00  0.00    +0.088 C 
ATOM      4  N   UNL     1       1.813  -0.916   0.776  0.00  0.00    -0.298 NA
ATOM      5  C   UNL     1       2.836  -1.447  -0.150  0.00  0.00    +0.085 C 
ATOM      6  C   UNL     1       1.992   0.526   0.990  0.00  0.00    +0.105 C 
ENDROOT
BRANCH   3   7
ATOM      7  C   UNL     1      -0.289  -2.096   1.160  0.00  0.00    -0.012 A 
ATOM      8  C   UNL     1      -0.674  -1.632   2.403  0.00  0.00    +0.115 A 
ATOM      9  N   UNL     1      -1.347  -2.404   3.234  0.00  0.00    -0.263 NA
ATOM     10  C   UNL     1      -1.678  -3.640   2.916  0.00  0.00    +0.111 A 
ATOM     11  C   UNL     1      -1.328  -4.174   1.690  0.00  0.00    +0.020 A 
ATOM     12  C   UNL     1      -0.624  -3.390   0.789  0.00  0.00    +0.008 A 
ENDBRANCH   3   7
TORSDOF 1
ENDMDL
MODEL 8
REMARK VINA RESULT:    -3.309      3.586      5.191
REMARK INTER + INTRA:          -3.755
REMARK INTER:                  -3.539
REMARK INTRA:                  -0.216
REMARK UNBOUND:                -0.252
REMARK  Name = Nicotine.pdb
REMARK  2 active torsions:
REMARK  status: ('A' for Active; 'I' for Inactive)
REMARK    1  A    between atoms: C_3  and  C_6
REMARK    2  A    between atoms: N_4  and  C_12
REMARK                            x       y       z     vdW  Elec       q    Type
REMARK                         _______ _______ _______ _____ _____    ______ ____
ROOT
ATOM      1  C   UNL     1       2.666  -1.191  -4.362  0.00  0.00    +0.017 C 
ATOM      2  C   UNL     1       2.757  -0.189  -3.181  0.00  0.00    +0.025 C 
ATOM      3  C   UNL     1       3.313  -1.056  -2.032  0.00  0.00    +0.088 C 
ATOM      4  N   UNL     1       3.005  -2.461  -2.356  0.00  0.00    -0.298 NA
ATOM      5  C   UNL     1       2.263  -2.497  -3.634  0.00  0.00    +0.085 C 
ATOM      6  C   UNL     1       4.231  -3.265  -2.434  0.00  0.00    +0.105 C 
ENDROOT
BRANCH   3   7
ATOM      7  C   UNL     1       2.654  -0.671  -0.733  0.00  0.00    -0.012 A 
ATOM      8  C   UNL     1       2.407  -1.626   0.235  0.00  0.00    +0.115 A 
ATOM      9  N   UNL     1       1.831  -1.297   1.375  0.00  0.00    -0.263 NA
ATOM     10  C   UNL     1       1.469  -0.057   1.636  0.00  0.00    +0.111 A 
ATOM     11  C   UNL     1       1.684   0.952   0.716  0.00  0.00    +0.020 A 
ATOM     12  C   UNL     1       2.292   0.645  -0.492  0.00  0.00    +0.008 A 
ENDBRANCH   3   7
TORSDOF 1
ENDMDL
MODEL 9
REMARK VINA RESULT:    -3.242      3.099      5.153
REMARK INTER + INTRA:          -3.684
REMARK INTER:                  -3.459
REMARK INTRA:                  -0.225
REMARK UNBOUND:                -0.252
REMARK  Name = Nicotine.pdb
REMARK  2 active torsions:
REMARK  status: ('A' for Active; 'I' for Inactive)
REMARK    1  A    between atoms: C_3  and  C_6
REMARK    2  A    between atoms: N_4  and  C_12
REMARK                            x       y       z     vdW  Elec       q    Type
REMARK                         _______ _______ _______ _____ _____    ______ ____
ROOT
ATOM      1  C   UNL     1       3.738  -0.661  -3.592  0.00  0.00    +0.017 C 
ATOM      2  C   UNL     1       3.616  -1.240  -2.158  0.00  0.00    +0.025 C 
ATOM      3  C   UNL     1       2.090  -1.296  -1.935  0.00  0.00    +0.088 C 
ATOM      4  N   UNL     1       1.477  -0.330  -2.864  0.00  0.00    -0.298 NA
ATOM      5  C   UNL     1       2.553   0.336  -3.629  0.00  0.00    +0.085 C 
ATOM      6  C   UNL     1       0.525  -0.994  -3.763  0.00  0.00    +0.105 C 
ENDROOT
BRANCH   3   7
ATOM      7  C   UNL     1       1.765  -0.919  -0.513  0.00  0.00    -0.012 A 
ATOM      8  C   UNL     1       1.026  -1.771   0.285  0.00  0.00    +0.115 A 
ATOM      9  N   UNL     1       0.737  -1.449   1.531  0.00  0.00    -0.263 NA
ATOM     10  C   UNL     1       1.138  -0.311   2.063  0.00  0.00    +0.111 A 
ATOM     11  C   UNL     1       1.881   0.592   1.326  0.00  0.00    +0.020 A 
ATOM     12  C   UNL     1       2.209   0.285   0.014  0.00  0.00    +0.008 A 
ENDBRANCH   3   7
TORSDOF 1
ENDMDL
MODEL 10
REMARK VINA RESULT:    -3.236      3.093      4.551
REMARK INTER + INTRA:          -3.678
REMARK INTER:                  -3.474
REMARK INTRA:                  -0.204
REMARK UNBOUND:                -0.252
REMARK  Name = Nicotine.pdb
REMARK  2 active torsions:
REMARK  status: ('A' for Active; 'I' for Inactive)
REMARK    1  A    between atoms: C_3  and  C_6
REMARK    2  A    between atoms: N_4  and  C_12
REMARK                            x       y       z     vdW  Elec       q    Type
REMARK                         _______ _______ _______ _____ _____    ______ ____
ROOT
ATOM      1  C   UNL     1       0.935   1.352  -0.126  0.00  0.00    +0.017 C 
ATOM      2  C   UNL     1       0.784   0.051  -0.957  0.00  0.00    +0.025 C 
ATOM      3  C   UNL     1       0.944  -1.059   0.104  0.00  0.00    +0.088 C 
ATOM      4  N   UNL     1       1.677  -0.475   1.241  0.00  0.00    -0.298 NA
ATOM      5  C   UNL     1       1.998   0.933   0.921  0.00  0.00    +0.085 C 
ATOM      6  C   UNL     1       0.892  -0.568   2.479  0.00  0.00    +0.105 C 
ENDROOT
BRANCH   3   7
ATOM      7  C   UNL     1       1.724  -2.211  -0.473  0.00  0.00    -0.012 A 
ATOM      8  C   UNL     1       1.113  -3.114  -1.323  0.00  0.00    +0.115 A 
ATOM      9  N   UNL     1       1.789  -4.125  -1.833  0.00  0.00    -0.263 NA
ATOM     10  C   UNL     1       3.064  -4.316  -1.556  0.00  0.00    +0.111 A 
ATOM     11  C   UNL     1       3.742  -3.454  -0.715  0.00  0.00    +0.020 A 
ATOM     12  C   UNL     1       3.066  -2.377  -0.164  0.00  0.00    +0.008 A 
ENDBRANCH   3   7
TORSDOF 1
ENDMDL
