MODEL 1
REMARK VINA RESULT:     1.112      0.000      0.000
REMARK INTER + INTRA:           0.972
REMARK INTER:                   1.177
REMARK INTRA:                  -0.205
REMARK UNBOUND:                -0.205
REMARK  Name = Nicotine.pdb
REMARK  2 active torsions:
REMARK  status: ('A' for Active; 'I' for Inactive)
REMARK    1  A    between atoms: C_3  and  C_6
REMARK    2  A    between atoms: N_4  and  C_12
REMARK                            x       y       z     vdW  Elec       q    Type
REMARK                         _______ _______ _______ _____ _____    ______ ____
ROOT
ATOM      1  C   UNL     1       9.077   0.941  -2.108  0.00  0.00    +0.017 C 
ATOM      2  C   UNL     1       8.674  -0.555  -2.195  0.00  0.00    +0.025 C 
ATOM      3  C   UNL     1       9.321  -1.012  -3.519  0.00  0.00    +0.088 C 
ATOM      4  N   UNL     1       9.534   0.193  -4.341  0.00  0.00    -0.298 NA
ATOM      5  C   UNL     1       9.027   1.365  -3.597  0.00  0.00    +0.085 C 
ATOM      6  C   UNL     1      10.954   0.357  -4.679  0.00  0.00    +0.105 C 
ENDROOT
BRANCH   3   7
ATOM      7  C   UNL     1       8.402  -1.967  -4.236  0.00  0.00    -0.012 A 
ATOM      8  C   UNL     1       8.760  -3.292  -4.400  0.00  0.00    +0.115 A 
ATOM      9  N   UNL     1       7.961  -4.135  -5.025  0.00  0.00    -0.263 NA
ATOM     10  C   UNL     1       6.799  -3.752  -5.517  0.00  0.00    +0.111 A 
ATOM     11  C   UNL     1       6.373  -2.443  -5.390  0.00  0.00    +0.020 A 
ATOM     12  C   UNL     1       7.184  -1.530  -4.734  0.00  0.00    +0.008 A 
ENDBRANCH   3   7
TORSDOF 1
ENDMDL
MODEL 2
REMARK VINA RESULT:     1.299      1.452      4.567
REMARK INTER + INTRA:           1.169
REMARK INTER:                   1.362
REMARK INTRA:                  -0.193
REMARK UNBOUND:                -0.205
REMARK  Name = Nicotine.pdb
REMARK  2 active torsions:
REMARK  status: ('A' for Active; 'I' for Inactive)
REMARK    1  A    between atoms: C_3  and  C_6
REMARK    2  A    between atoms: N_4  and  C_12
REMARK                            x       y       z     vdW  Elec       q    Type
REMARK                         _______ _______ _______ _____ _____    ______ ____
ROOT
ATOM      1  C   UNL     1       9.171  -3.797  -4.379  0.00  0.00    +0.017 C 
ATOM      2  C   UNL     1       9.399  -2.810  -3.204  0.00  0.00    +0.025 C 
ATOM      3  C   UNL     1       8.283  -1.764  -3.407  0.00  0.00    +0.088 C 
ATOM      4  N   UNL     1       7.879  -1.825  -4.823  0.00  0.00    -0.298 NA
ATOM      5  C   UNL     1       8.710  -2.839  -5.506  0.00  0.00    +0.085 C 
ATOM      6  C   UNL     1       6.451  -2.141  -4.951  0.00  0.00    +0.105 C 
ENDROOT
BRANCH   3   7
ATOM      7  C   UNL     1       8.804  -0.388  -3.080  0.00  0.00    -0.012 A 
ATOM      8  C   UNL     1       8.657   0.131  -1.807  0.00  0.00    +0.115 A 
ATOM      9  N   UNL     1       9.110   1.334  -1.513  0.00  0.00    -0.263 NA
ATOM     10  C   UNL     1       9.716   2.085  -2.411  0.00  0.00    +0.111 A 
ATOM     11  C   UNL     1       9.899   1.633  -3.704  0.00  0.00    +0.020 A 
ATOM     12  C   UNL     1       9.441   0.371  -4.050  0.00  0.00    +0.008 A 
ENDBRANCH   3   7
TORSDOF 1
ENDMDL
MODEL 3
REMARK VINA RESULT:     1.594      1.218      4.523
REMARK INTER + INTRA:           1.482
REMARK INTER:                   1.665
REMARK INTRA:                  -0.183
REMARK UNBOUND:                -0.205
REMARK  Name = Nicotine.pdb
REMARK  2 active torsions:
REMARK  status: ('A' for Active; 'I' for Inactive)
REMARK    1  A    between atoms: C_3  and  C_6
REMARK    2  A    between atoms: N_4  and  C_12
REMARK                            x       y       z     vdW  Elec       q    Type
REMARK                         _______ _______ _______ _____ _____    ______ ____
ROOT
ATOM      1  C   UNL     1       6.444  -3.336  -5.992  0.00  0.00    +0.017 C 
ATOM      2  C   UNL     1       7.209  -1.989  -5.908  0.00  0.00    +0.025 C 
ATOM      3  C   UNL     1       8.450  -2.347  -5.063  0.00  0.00    +0.088 C 
ATOM      4  N   UNL     1       8.118  -3.555  -4.287  0.00  0.00    -0.298 NA
ATOM      5  C   UNL     1       6.725  -3.943  -4.594  0.00  0.00    +0.085 C 
ATOM      6  C   UNL     1       9.049  -4.649  -4.591  0.00  0.00    +0.105 C 
ENDROOT
BRANCH   3   7
ATOM      7  C   UNL     1       8.780  -1.211  -4.130  0.00  0.00    -0.012 A 
ATOM      8  C   UNL     1       8.304  -1.211  -2.833  0.00  0.00    +0.115 A 
ATOM      9  N   UNL     1       8.588  -0.221  -2.009  0.00  0.00    -0.263 NA
ATOM     10  C   UNL     1       9.330   0.802  -2.385  0.00  0.00    +0.111 A 
ATOM     11  C   UNL     1       9.842   0.871  -3.668  0.00  0.00    +0.020 A 
ATOM     12  C   UNL     1       9.569  -0.154  -4.560  0.00  0.00    +0.008 A 
ENDBRANCH   3   7
TORSDOF 1
ENDMDL
MODEL 4
REMARK VINA RESULT:     2.298      1.500      2.242
REMARK INTER + INTRA:           2.227
REMARK INTER:                   2.447
REMARK INTRA:                  -0.220
REMARK UNBOUND:                -0.205
REMARK  Name = Nicotine.pdb
REMARK  2 active torsions:
REMARK  status: ('A' for Active; 'I' for Inactive)
REMARK    1  A    between atoms: C_3  and  C_6
REMARK    2  A    between atoms: N_4  and  C_12
REMARK                            x       y       z     vdW  Elec       q    Type
REMARK                         _______ _______ _______ _____ _____    ______ ____
ROOT
ATOM      1  C   UNL     1       9.463   2.135  -3.840  0.00  0.00    +0.017 C 
ATOM      2  C   UNL     1       8.750   0.937  -4.521  0.00  0.00    +0.025 C 
ATOM      3  C   UNL     1       8.444  -0.004  -3.337  0.00  0.00    +0.088 C 
ATOM      4  N   UNL     1       9.383   0.338  -2.253  0.00  0.00    -0.298 NA
ATOM      5  C   UNL     1      10.268   1.426  -2.723  0.00  0.00    +0.085 C 
ATOM      6  C   UNL     1       8.663   0.733  -1.036  0.00  0.00    +0.105 C 
ENDROOT
BRANCH   3   7
ATOM      7  C   UNL     1       8.644  -1.437  -3.756  0.00  0.00    -0.012 A 
ATOM      8  C   UNL     1       9.604  -2.219  -3.141  0.00  0.00    +0.115 A 
ATOM      9  N   UNL     1       9.785  -3.474  -3.501  0.00  0.00    -0.263 NA
ATOM     10  C   UNL     1       9.065  -4.032  -4.455  0.00  0.00    +0.111 A 
ATOM     11  C   UNL     1       8.086  -3.312  -5.115  0.00  0.00    +0.020 A 
ATOM     12  C   UNL     1       7.864  -1.991  -4.759  0.00  0.00    +0.008 A 
ENDBRANCH   3   7
TORSDOF 1
ENDMDL
MODEL 5
REMARK VINA RESULT:     3.102      1.619      2.876
REMARK INTER + INTRA:           3.078
REMARK INTER:                   3.292
REMARK INTRA:                  -0.214
REMARK UNBOUND:                -0.205
REMARK  Name = Nicotine.pdb
REMARK  2 active torsions:
REMARK  status: ('A' for Active; 'I' for Inactive)
REMARK    1  A    between atoms: C_3  and  C_6
REMARK    2  A    between atoms: N_4  and  C_12
REMARK                            x       y       z     vdW  Elec       q    Type
REMARK                         _______ _______ _______ _____ _____    ______ ____
ROOT
ATOM      1  C   UNL     1       9.830   0.630  -4.716  0.00  0.00    +0.017 C 
ATOM      2  C   UNL     1       9.377  -0.783  -5.167  0.00  0.00    +0.025 C 
ATOM      3  C   UNL     1       8.801  -1.393  -3.872  0.00  0.00    +0.088 C 
ATOM      4  N   UNL     1       9.397  -0.660  -2.741  0.00  0.00    -0.298 NA
ATOM      5  C   UNL     1      10.330   0.354  -3.276  0.00  0.00    +0.085 C 
ATOM      6  C   UNL     1       8.358  -0.034  -1.912  0.00  0.00    +0.105 C 
ENDROOT
BRANCH   3   7
ATOM      7  C   UNL     1       9.164  -2.853  -3.786  0.00  0.00    -0.012 A 
ATOM      8  C   UNL     1       8.733  -3.739  -4.755  0.00  0.00    +0.115 A 
ATOM      9  N   UNL     1       9.046  -5.018  -4.688  0.00  0.00    -0.263 NA
ATOM     10  C   UNL     1       9.778  -5.501  -3.704  0.00  0.00    +0.111 A 
ATOM     11  C   UNL     1      10.246  -4.675  -2.699  0.00  0.00    +0.020 A 
ATOM     12  C   UNL     1       9.941  -3.324  -2.739  0.00  0.00    +0.008 A 
ENDBRANCH   3   7
TORSDOF 1
ENDMDL
MODEL 6
REMARK VINA RESULT:     3.878      1.962      3.589
REMARK INTER + INTRA:           3.899
REMARK INTER:                   4.155
REMARK INTRA:                  -0.256
REMARK UNBOUND:                -0.205
REMARK  Name = Nicotine.pdb
REMARK  2 active torsions:
REMARK  status: ('A' for Active; 'I' for Inactive)
REMARK    1  A    between atoms: C_3  and  C_6
REMARK    2  A    between atoms: N_4  and  C_12
REMARK                            x       y       z     vdW  Elec       q    Type
REMARK                         _______ _______ _______ _____ _____    ______ ____
ROOT
ATOM      1  C   UNL     1       7.966  -0.369  -3.907  0.00  0.00    +0.017 C 
ATOM      2  C   UNL     1       9.241  -1.252  -3.878  0.00  0.00    +0.025 C 
ATOM      3  C   UNL     1       8.822  -2.494  -4.691  0.00  0.00    +0.088 C 
ATOM      4  N   UNL     1       7.350  -2.562  -4.658  0.00  0.00    -0.298 NA
ATOM      5  C   UNL     1       6.845  -1.436  -3.843  0.00  0.00    +0.085 C 
ATOM      6  C   UNL     1       6.789  -2.523  -6.015  0.00  0.00    +0.105 C 
ENDROOT
BRANCH   3   7
ATOM      7  C   UNL     1       9.407  -3.736  -4.070  0.00  0.00    -0.012 A 
ATOM      8  C   UNL     1       9.488  -4.909  -4.796  0.00  0.00    +0.115 A 
ATOM      9  N   UNL     1       9.999  -6.000  -4.259  0.00  0.00    -0.263 NA
ATOM     10  C   UNL     1      10.450  -6.018  -3.020  0.00  0.00    +0.111 A 
ATOM     11  C   UNL     1      10.402  -4.882  -2.234  0.00  0.00    +0.020 A 
ATOM     12  C   UNL     1       9.876  -3.715  -2.765  0.00  0.00    +0.008 A 
ENDBRANCH   3   7
TORSDOF 1
ENDMDL
