MODEL 1
REMARK VINA RESULT:    -3.673      0.000      0.000
REMARK INTER + INTRA:          -4.092
REMARK INTER:                  -3.887
REMARK INTRA:                  -0.205
REMARK UNBOUND:                -0.205
REMARK  Name = Nicotine.pdb
REMARK  2 active torsions:
REMARK  status: ('A' for Active; 'I' for Inactive)
REMARK    1  A    between atoms: C_3  and  C_6
REMARK    2  A    between atoms: N_4  and  C_12
REMARK                            x       y       z     vdW  Elec       q    Type
REMARK                         _______ _______ _______ _____ _____    ______ ____
ROOT
ATOM      1  C   UNL     1      -4.437   6.108  -0.888  0.00  0.00    +0.017 C 
ATOM      2  C   UNL     1      -4.492   6.626  -2.349  0.00  0.00    +0.025 C 
ATOM      3  C   UNL     1      -4.640   5.328  -3.172  0.00  0.00    +0.088 C 
ATOM      4  N   UNL     1      -4.132   4.223  -2.339  0.00  0.00    -0.298 NA
ATOM      5  C   UNL     1      -3.657   4.780  -1.055  0.00  0.00    +0.085 C 
ATOM      6  C   UNL     1      -5.171   3.208  -2.120  0.00  0.00    +0.105 C 
ENDROOT
BRANCH   3   7
ATOM      7  C   UNL     1      -3.832   5.430  -4.439  0.00  0.00    -0.012 A 
ATOM      8  C   UNL     1      -3.065   6.552  -4.691  0.00  0.00    +0.115 A 
ATOM      9  N   UNL     1      -2.355   6.649  -5.798  0.00  0.00    -0.263 NA
ATOM     10  C   UNL     1      -2.346   5.689  -6.702  0.00  0.00    +0.111 A 
ATOM     11  C   UNL     1      -3.087   4.537  -6.519  0.00  0.00    +0.020 A 
ATOM     12  C   UNL     1      -3.843   4.397  -5.365  0.00  0.00    +0.008 A 
ENDBRANCH   3   7
TORSDOF 1
ENDMDL
MODEL 2
REMARK VINA RESULT:    -3.001     10.817     11.751
REMARK INTER + INTRA:          -3.381
REMARK INTER:                  -3.162
REMARK INTRA:                  -0.219
REMARK UNBOUND:                -0.205
REMARK  Name = Nicotine.pdb
REMARK  2 active torsions:
REMARK  status: ('A' for Active; 'I' for Inactive)
REMARK    1  A    between atoms: C_3  and  C_6
REMARK    2  A    between atoms: N_4  and  C_12
REMARK                            x       y       z     vdW  Elec       q    Type
REMARK                         _______ _______ _______ _____ _____    ______ ____
ROOT
ATOM      1  C   UNL     1       5.740   0.114   2.521  0.00  0.00    +0.017 C 
ATOM      2  C   UNL     1       5.763   0.600   1.048  0.00  0.00    +0.025 C 
ATOM      3  C   UNL     1       6.899   1.646   1.045  0.00  0.00    +0.088 C 
ATOM      4  N   UNL     1       7.069   2.109   2.434  0.00  0.00    -0.298 NA
ATOM      5  C   UNL     1       6.078   1.418   3.286  0.00  0.00    +0.085 C 
ATOM      6  C   UNL     1       8.437   1.859   2.909  0.00  0.00    +0.105 C 
ENDROOT
BRANCH   3   7
ATOM      7  C   UNL     1       6.525   2.806   0.159  0.00  0.00    -0.012 A 
ATOM      8  C   UNL     1       7.327   3.154  -0.911  0.00  0.00    +0.115 A 
ATOM      9  N   UNL     1       7.008   4.168  -1.692  0.00  0.00    -0.263 NA
ATOM     10  C   UNL     1       5.921   4.885  -1.486  0.00  0.00    +0.111 A 
ATOM     11  C   UNL     1       5.071   4.596  -0.436  0.00  0.00    +0.020 A 
ATOM     12  C   UNL     1       5.371   3.534   0.403  0.00  0.00    +0.008 A 
ENDBRANCH   3   7
TORSDOF 1
ENDMDL
MODEL 3
REMARK VINA RESULT:    -1.859     13.122     14.396
REMARK INTER + INTRA:          -2.172
REMARK INTER:                  -1.993
REMARK INTRA:                  -0.179
REMARK UNBOUND:                -0.205
REMARK  Name = Nicotine.pdb
REMARK  2 active torsions:
REMARK  status: ('A' for Active; 'I' for Inactive)
REMARK    1  A    between atoms: C_3  and  C_6
REMARK    2  A    between atoms: N_4  and  C_12
REMARK                            x       y       z     vdW  Elec       q    Type
REMARK                         _______ _______ _______ _____ _____    ______ ____
ROOT
ATOM      1  C   UNL     1       6.316   1.043   0.829  0.00  0.00    +0.017 C 
ATOM      2  C   UNL     1       7.812   1.060   1.240  0.00  0.00    +0.025 C 
ATOM      3  C   UNL     1       7.761   1.485   2.723  0.00  0.00    +0.088 C 
ATOM      4  N   UNL     1       6.481   2.185   2.932  0.00  0.00    -0.298 NA
ATOM      5  C   UNL     1       5.754   2.234   1.645  0.00  0.00    +0.085 C 
ATOM      6  C   UNL     1       5.678   1.518   3.966  0.00  0.00    +0.105 C 
ENDROOT
BRANCH   3   7
ATOM      7  C   UNL     1       8.909   2.410   3.031  0.00  0.00    -0.012 A 
ATOM      8  C   UNL     1       9.044   3.607   2.354  0.00  0.00    +0.115 A 
ATOM      9  N   UNL     1      10.046   4.422   2.618  0.00  0.00    -0.263 NA
ATOM     10  C   UNL     1      10.954   4.133   3.530  0.00  0.00    +0.111 A 
ATOM     11  C   UNL     1      10.884   2.953   4.248  0.00  0.00    +0.020 A 
ATOM     12  C   UNL     1       9.841   2.074   4.001  0.00  0.00    +0.008 A 
ENDBRANCH   3   7
TORSDOF 1
ENDMDL
MODEL 4
REMARK VINA RESULT:    -1.713      1.433      2.142
REMARK INTER + INTRA:          -2.018
REMARK INTER:                  -1.789
REMARK INTRA:                  -0.229
REMARK UNBOUND:                -0.205
REMARK  Name = Nicotine.pdb
REMARK  2 active torsions:
REMARK  status: ('A' for Active; 'I' for Inactive)
REMARK    1  A    between atoms: C_3  and  C_6
REMARK    2  A    between atoms: N_4  and  C_12
REMARK                            x       y       z     vdW  Elec       q    Type
REMARK                         _______ _______ _______ _____ _____    ______ ____
ROOT
ATOM      1  C   UNL     1      -3.657   4.402  -1.002  0.00  0.00    +0.017 C 
ATOM      2  C   UNL     1      -3.033   4.280  -2.417  0.00  0.00    +0.025 C 
ATOM      3  C   UNL     1      -3.790   5.356  -3.224  0.00  0.00    +0.088 C 
ATOM      4  N   UNL     1      -5.060   5.615  -2.523  0.00  0.00    -0.298 NA
ATOM      5  C   UNL     1      -5.132   4.734  -1.338  0.00  0.00    +0.085 C 
ATOM      6  C   UNL     1      -5.170   7.028  -2.136  0.00  0.00    +0.105 C 
ENDROOT
BRANCH   3   7
ATOM      7  C   UNL     1      -4.066   4.853  -4.617  0.00  0.00    -0.012 A 
ATOM      8  C   UNL     1      -3.693   5.601  -5.718  0.00  0.00    +0.115 A 
ATOM      9  N   UNL     1      -3.931   5.168  -6.940  0.00  0.00    -0.263 NA
ATOM     10  C   UNL     1      -4.528   4.014  -7.163  0.00  0.00    +0.111 A 
ATOM     11  C   UNL     1      -4.929   3.210  -6.112  0.00  0.00    +0.020 A 
ATOM     12  C   UNL     1      -4.691   3.631  -4.812  0.00  0.00    +0.008 A 
ENDBRANCH   3   7
TORSDOF 1
ENDMDL
MODEL 5
REMARK VINA RESULT:    -1.471     11.227     12.791
REMARK INTER + INTRA:          -1.761
REMARK INTER:                  -1.537
REMARK INTRA:                  -0.224
REMARK UNBOUND:                -0.205
REMARK  Name = Nicotine.pdb
REMARK  2 active torsions:
REMARK  status: ('A' for Active; 'I' for Inactive)
REMARK    1  A    between atoms: C_3  and  C_6
REMARK    2  A    between atoms: N_4  and  C_12
REMARK                            x       y       z     vdW  Elec       q    Type
REMARK                         _______ _______ _______ _____ _____    ______ ____
ROOT
ATOM      1  C   UNL     1       6.466   3.549  -1.051  0.00  0.00    +0.017 C 
ATOM      2  C   UNL     1       7.403   3.238   0.145  0.00  0.00    +0.025 C 
ATOM      3  C   UNL     1       6.821   1.926   0.711  0.00  0.00    +0.088 C 
ATOM      4  N   UNL     1       5.416   1.847   0.272  0.00  0.00    -0.298 NA
ATOM      5  C   UNL     1       5.098   3.058  -0.514  0.00  0.00    +0.085 C 
ATOM      6  C   UNL     1       5.177   0.630  -0.515  0.00  0.00    +0.105 C 
ENDROOT
BRANCH   3   7
ATOM      7  C   UNL     1       6.889   1.941   2.216  0.00  0.00    -0.012 A 
ATOM      8  C   UNL     1       5.749   1.739   2.970  0.00  0.00    +0.115 A 
ATOM      9  N   UNL     1       5.800   1.751   4.288  0.00  0.00    -0.263 NA
ATOM     10  C   UNL     1       6.930   1.954   4.935  0.00  0.00    +0.111 A 
ATOM     11  C   UNL     1       8.111   2.163   4.249  0.00  0.00    +0.020 A 
ATOM     12  C   UNL     1       8.097   2.153   2.862  0.00  0.00    +0.008 A 
ENDBRANCH   3   7
TORSDOF 1
ENDMDL
MODEL 6
REMARK VINA RESULT:    -1.439     10.504     11.797
REMARK INTER + INTRA:          -1.728
REMARK INTER:                  -1.512
REMARK INTRA:                  -0.216
REMARK UNBOUND:                -0.205
REMARK  Name = Nicotine.pdb
REMARK  2 active torsions:
REMARK  status: ('A' for Active; 'I' for Inactive)
REMARK    1  A    between atoms: C_3  and  C_6
REMARK    2  A    between atoms: N_4  and  C_12
REMARK                            x       y       z     vdW  Elec       q    Type
REMARK                         _______ _______ _______ _____ _____    ______ ____
ROOT
ATOM      1  C   UNL     1       6.571   5.122  -1.958  0.00  0.00    +0.017 C 
ATOM      2  C   UNL     1       6.741   3.623  -1.595  0.00  0.00    +0.025 C 
ATOM      3  C   UNL     1       5.681   3.411  -0.494  0.00  0.00    +0.088 C 
ATOM      4  N   UNL     1       5.387   4.731   0.090  0.00  0.00    -0.298 NA
ATOM      5  C   UNL     1       6.233   5.742  -0.579  0.00  0.00    +0.085 C 
ATOM      6  C   UNL     1       3.963   5.063  -0.045  0.00  0.00    +0.105 C 
ENDROOT
BRANCH   3   7
ATOM      7  C   UNL     1       6.221   2.487   0.567  0.00  0.00    -0.012 A 
ATOM      8  C   UNL     1       5.585   1.292   0.843  0.00  0.00    +0.115 A 
ATOM      9  N   UNL     1       6.052   0.478   1.770  0.00  0.00    -0.263 NA
ATOM     10  C   UNL     1       7.133   0.767   2.465  0.00  0.00    +0.111 A 
ATOM     11  C   UNL     1       7.823   1.945   2.245  0.00  0.00    +0.020 A 
ATOM     12  C   UNL     1       7.365   2.823   1.274  0.00  0.00    +0.008 A 
ENDBRANCH   3   7
TORSDOF 1
ENDMDL
MODEL 7
REMARK VINA RESULT:    -1.050     10.300     11.106
REMARK INTER + INTRA:          -1.316
REMARK INTER:                  -1.144
REMARK INTRA:                  -0.173
REMARK UNBOUND:                -0.205
REMARK  Name = Nicotine.pdb
REMARK  2 active torsions:
REMARK  status: ('A' for Active; 'I' for Inactive)
REMARK    1  A    between atoms: C_3  and  C_6
REMARK    2  A    between atoms: N_4  and  C_12
REMARK                            x       y       z     vdW  Elec       q    Type
REMARK                         _______ _______ _______ _____ _____    ______ ____
ROOT
ATOM      1  C   UNL     1       6.827   1.093   2.317  0.00  0.00    +0.017 C 
ATOM      2  C   UNL     1       6.270   2.517   2.058  0.00  0.00    +0.025 C 
ATOM      3  C   UNL     1       5.599   2.381   0.675  0.00  0.00    +0.088 C 
ATOM      4  N   UNL     1       6.217   1.225   0.001  0.00  0.00    -0.298 NA
ATOM      5  C   UNL     1       7.253   0.659   0.892  0.00  0.00    +0.085 C 
ATOM      6  C   UNL     1       5.208   0.214  -0.343  0.00  0.00    +0.105 C 
ENDROOT
BRANCH   3   7
ATOM      7  C   UNL     1       5.831   3.631  -0.134  0.00  0.00    -0.012 A 
ATOM      8  C   UNL     1       6.980   3.772  -0.889  0.00  0.00    +0.115 A 
ATOM      9  N   UNL     1       7.191   4.863  -1.599  0.00  0.00    -0.263 NA
ATOM     10  C   UNL     1       6.324   5.856  -1.618  0.00  0.00    +0.111 A 
ATOM     11  C   UNL     1       5.153   5.787  -0.888  0.00  0.00    +0.020 A 
ATOM     12  C   UNL     1       4.894   4.653  -0.133  0.00  0.00    +0.008 A 
ENDBRANCH   3   7
TORSDOF 1
ENDMDL
MODEL 8
REMARK VINA RESULT:    -1.042     11.525     12.433
REMARK INTER + INTRA:          -1.307
REMARK INTER:                  -1.091
REMARK INTRA:                  -0.216
REMARK UNBOUND:                -0.205
REMARK  Name = Nicotine.pdb
REMARK  2 active torsions:
REMARK  status: ('A' for Active; 'I' for Inactive)
REMARK    1  A    between atoms: C_3  and  C_6
REMARK    2  A    between atoms: N_4  and  C_12
REMARK                            x       y       z     vdW  Elec       q    Type
REMARK                         _______ _______ _______ _____ _____    ______ ____
ROOT
ATOM      1  C   UNL     1       6.322   1.678   4.504  0.00  0.00    +0.017 C 
ATOM      2  C   UNL     1       5.710   1.657   3.079  0.00  0.00    +0.025 C 
ATOM      3  C   UNL     1       6.953   1.563   2.169  0.00  0.00    +0.088 C 
ATOM      4  N   UNL     1       8.101   2.068   2.943  0.00  0.00    -0.298 NA
ATOM      5  C   UNL     1       7.620   2.492   4.276  0.00  0.00    +0.085 C 
ATOM      6  C   UNL     1       9.148   1.045   3.062  0.00  0.00    +0.105 C 
ENDROOT
BRANCH   3   7
ATOM      7  C   UNL     1       6.752   2.407   0.937  0.00  0.00    -0.012 A 
ATOM      8  C   UNL     1       7.535   3.525   0.721  0.00  0.00    +0.115 A 
ATOM      9  N   UNL     1       7.366   4.270  -0.354  0.00  0.00    -0.263 NA
ATOM     10  C   UNL     1       6.452   3.982  -1.260  0.00  0.00    +0.111 A 
ATOM     11  C   UNL     1       5.632   2.879  -1.112  0.00  0.00    +0.020 A 
ATOM     12  C   UNL     1       5.784   2.070   0.003  0.00  0.00    +0.008 A 
ENDBRANCH   3   7
TORSDOF 1
ENDMDL
