MODEL 1
REMARK VINA RESULT:    -3.385      0.000      0.000
REMARK INTER + INTRA:          -3.832
REMARK INTER:                  -3.582
REMARK INTRA:                  -0.250
REMARK UNBOUND:                -0.250
REMARK  Name = Nicotine.pdb
REMARK  2 active torsions:
REMARK  status: ('A' for Active; 'I' for Inactive)
REMARK    1  A    between atoms: C_3  and  C_6
REMARK    2  A    between atoms: N_4  and  C_12
REMARK                            x       y       z     vdW  Elec       q    Type
REMARK                         _______ _______ _______ _____ _____    ______ ____
ROOT
ATOM      1  C   UNL     1       6.785  -5.385  -0.064  0.00  0.00    +0.017 C 
ATOM      2  C   UNL     1       6.851  -3.944   0.505  0.00  0.00    +0.025 C 
ATOM      3  C   UNL     1       8.342  -3.577   0.350  0.00  0.00    +0.088 C 
ATOM      4  N   UNL     1       9.097  -4.840   0.271  0.00  0.00    -0.298 NA
ATOM      5  C   UNL     1       8.146  -5.965   0.396  0.00  0.00    +0.085 C 
ATOM      6  C   UNL     1       9.853  -4.925  -0.985  0.00  0.00    +0.105 C 
ENDROOT
BRANCH   3   7
ATOM      7  C   UNL     1       8.800  -2.778   1.543  0.00  0.00    -0.012 A 
ATOM      8  C   UNL     1       9.674  -1.720   1.382  0.00  0.00    +0.115 A 
ATOM      9  N   UNL     1      10.080  -1.015   2.421  0.00  0.00    -0.263 NA
ATOM     10  C   UNL     1       9.673  -1.288   3.644  0.00  0.00    +0.111 A 
ATOM     11  C   UNL     1       8.798  -2.332   3.883  0.00  0.00    +0.020 A 
ATOM     12  C   UNL     1       8.346  -3.091   2.815  0.00  0.00    +0.008 A 
ENDBRANCH   3   7
TORSDOF 1
ENDMDL
MODEL 2
REMARK VINA RESULT:    -2.998      2.784      5.459
REMARK INTER + INTRA:          -3.423
REMARK INTER:                  -3.188
REMARK INTRA:                  -0.236
REMARK UNBOUND:                -0.250
REMARK  Name = Nicotine.pdb
REMARK  2 active torsions:
REMARK  status: ('A' for Active; 'I' for Inactive)
REMARK    1  A    between atoms: C_3  and  C_6
REMARK    2  A    between atoms: N_4  and  C_12
REMARK                            x       y       z     vdW  Elec       q    Type
REMARK                         _______ _______ _______ _____ _____    ______ ____
ROOT
ATOM      1  C   UNL     1       7.872  -3.450   1.239  0.00  0.00    +0.017 C 
ATOM      2  C   UNL     1       6.796  -3.968   0.249  0.00  0.00    +0.025 C 
ATOM      3  C   UNL     1       7.567  -5.012  -0.587  0.00  0.00    +0.088 C 
ATOM      4  N   UNL     1       9.000  -4.685  -0.480  0.00  0.00    -0.298 NA
ATOM      5  C   UNL     1       9.146  -3.477   0.359  0.00  0.00    +0.085 C 
ATOM      6  C   UNL     1       9.757  -5.812   0.081  0.00  0.00    +0.105 C 
ENDROOT
BRANCH   3   7
ATOM      7  C   UNL     1       7.129  -4.941  -2.027  0.00  0.00    -0.012 A 
ATOM      8  C   UNL     1       6.778  -6.091  -2.708  0.00  0.00    +0.115 A 
ATOM      9  N   UNL     1       6.393  -6.038  -3.968  0.00  0.00    -0.263 NA
ATOM     10  C   UNL     1       6.329  -4.897  -4.625  0.00  0.00    +0.111 A 
ATOM     11  C   UNL     1       6.664  -3.705  -4.009  0.00  0.00    +0.020 A 
ATOM     12  C   UNL     1       7.067  -3.722  -2.683  0.00  0.00    +0.008 A 
ENDBRANCH   3   7
TORSDOF 1
ENDMDL
MODEL 3
REMARK VINA RESULT:    -2.914      1.229      4.494
REMARK INTER + INTRA:          -3.334
REMARK INTER:                  -3.124
REMARK INTRA:                  -0.210
REMARK UNBOUND:                -0.250
REMARK  Name = Nicotine.pdb
REMARK  2 active torsions:
REMARK  status: ('A' for Active; 'I' for Inactive)
REMARK    1  A    between atoms: C_3  and  C_6
REMARK    2  A    between atoms: N_4  and  C_12
REMARK                            x       y       z     vdW  Elec       q    Type
REMARK                         _______ _______ _______ _____ _____    ______ ____
ROOT
ATOM      1  C   UNL     1      10.045  -2.554   4.368  0.00  0.00    +0.017 C 
ATOM      2  C   UNL     1       9.801  -3.852   3.555  0.00  0.00    +0.025 C 
ATOM      3  C   UNL     1       9.732  -3.341   2.100  0.00  0.00    +0.088 C 
ATOM      4  N   UNL     1       9.383  -1.910   2.154  0.00  0.00    -0.298 NA
ATOM      5  C   UNL     1       9.209  -1.522   3.570  0.00  0.00    +0.085 C 
ATOM      6  C   UNL     1      10.415  -1.091   1.506  0.00  0.00    +0.105 C 
ENDROOT
BRANCH   3   7
ATOM      7  C   UNL     1       8.674  -4.100   1.340  0.00  0.00    -0.012 A 
ATOM      8  C   UNL     1       8.870  -5.426   1.005  0.00  0.00    +0.115 A 
ATOM      9  N   UNL     1       7.949  -6.097   0.341  0.00  0.00    -0.263 NA
ATOM     10  C   UNL     1       6.815  -5.536  -0.029  0.00  0.00    +0.111 A 
ATOM     11  C   UNL     1       6.549  -4.213   0.270  0.00  0.00    +0.020 A 
ATOM     12  C   UNL     1       7.491  -3.477   0.973  0.00  0.00    +0.008 A 
ENDBRANCH   3   7
TORSDOF 1
ENDMDL
MODEL 4
REMARK VINA RESULT:    -2.827      1.930      5.304
REMARK INTER + INTRA:          -3.242
REMARK INTER:                  -3.006
REMARK INTRA:                  -0.235
REMARK UNBOUND:                -0.250
REMARK  Name = Nicotine.pdb
REMARK  2 active torsions:
REMARK  status: ('A' for Active; 'I' for Inactive)
REMARK    1  A    between atoms: C_3  and  C_6
REMARK    2  A    between atoms: N_4  and  C_12
REMARK                            x       y       z     vdW  Elec       q    Type
REMARK                         _______ _______ _______ _____ _____    ______ ____
ROOT
ATOM      1  C   UNL     1       9.020  -0.046   6.244  0.00  0.00    +0.017 C 
ATOM      2  C   UNL     1       9.223  -1.379   5.477  0.00  0.00    +0.025 C 
ATOM      3  C   UNL     1       9.945  -0.932   4.188  0.00  0.00    +0.088 C 
ATOM      4  N   UNL     1       9.644   0.498   3.992  0.00  0.00    -0.298 NA
ATOM      5  C   UNL     1       8.752   0.945   5.083  0.00  0.00    +0.085 C 
ATOM      6  C   UNL     1      10.876   1.296   3.958  0.00  0.00    +0.105 C 
ENDROOT
BRANCH   3   7
ATOM      7  C   UNL     1       9.439  -1.729   3.014  0.00  0.00    -0.012 A 
ATOM      8  C   UNL     1       9.895  -1.459   1.737  0.00  0.00    +0.115 A 
ATOM      9  N   UNL     1       9.457  -2.152   0.704  0.00  0.00    -0.263 NA
ATOM     10  C   UNL     1       8.575  -3.122   0.843  0.00  0.00    +0.111 A 
ATOM     11  C   UNL     1       8.075  -3.449   2.090  0.00  0.00    +0.020 A 
ATOM     12  C   UNL     1       8.516  -2.746   3.200  0.00  0.00    +0.008 A 
ENDBRANCH   3   7
TORSDOF 1
ENDMDL
MODEL 5
REMARK VINA RESULT:    -2.825      2.798      3.834
REMARK INTER + INTRA:          -3.239
REMARK INTER:                  -2.984
REMARK INTRA:                  -0.256
REMARK UNBOUND:                -0.250
REMARK  Name = Nicotine.pdb
REMARK  2 active torsions:
REMARK  status: ('A' for Active; 'I' for Inactive)
REMARK    1  A    between atoms: C_3  and  C_6
REMARK    2  A    between atoms: N_4  and  C_12
REMARK                            x       y       z     vdW  Elec       q    Type
REMARK                         _______ _______ _______ _____ _____    ______ ____
ROOT
ATOM      1  C   UNL     1       6.476  -4.615  -4.691  0.00  0.00    +0.017 C 
ATOM      2  C   UNL     1       6.823  -3.620  -3.552  0.00  0.00    +0.025 C 
ATOM      3  C   UNL     1       8.074  -4.253  -2.907  0.00  0.00    +0.088 C 
ATOM      4  N   UNL     1       8.061  -5.688  -3.245  0.00  0.00    -0.298 NA
ATOM      5  C   UNL     1       6.850  -5.972  -4.044  0.00  0.00    +0.085 C 
ATOM      6  C   UNL     1       9.277  -6.068  -3.975  0.00  0.00    +0.105 C 
ENDROOT
BRANCH   3   7
ATOM      7  C   UNL     1       8.024  -4.077  -1.411  0.00  0.00    -0.012 A 
ATOM      8  C   UNL     1       9.189  -4.087  -0.667  0.00  0.00    +0.115 A 
ATOM      9  N   UNL     1       9.154  -3.933   0.642  0.00  0.00    -0.263 NA
ATOM     10  C   UNL     1       8.019  -3.765   1.290  0.00  0.00    +0.111 A 
ATOM     11  C   UNL     1       6.814  -3.744   0.613  0.00  0.00    +0.020 A 
ATOM     12  C   UNL     1       6.811  -3.897  -0.765  0.00  0.00    +0.008 A 
ENDBRANCH   3   7
TORSDOF 1
ENDMDL
MODEL 6
REMARK VINA RESULT:    -2.772      1.957      2.835
REMARK INTER + INTRA:          -3.184
REMARK INTER:                  -2.999
REMARK INTRA:                  -0.184
REMARK UNBOUND:                -0.250
REMARK  Name = Nicotine.pdb
REMARK  2 active torsions:
REMARK  status: ('A' for Active; 'I' for Inactive)
REMARK    1  A    between atoms: C_3  and  C_6
REMARK    2  A    between atoms: N_4  and  C_12
REMARK                            x       y       z     vdW  Elec       q    Type
REMARK                         _______ _______ _______ _____ _____    ______ ____
ROOT
ATOM      1  C   UNL     1       8.531  -3.998  -3.710  0.00  0.00    +0.017 C 
ATOM      2  C   UNL     1       9.461  -3.819  -2.480  0.00  0.00    +0.025 C 
ATOM      3  C   UNL     1       8.713  -4.581  -1.366  0.00  0.00    +0.088 C 
ATOM      4  N   UNL     1       7.295  -4.653  -1.761  0.00  0.00    -0.298 NA
ATOM      5  C   UNL     1       7.130  -3.951  -3.052  0.00  0.00    +0.085 C 
ATOM      6  C   UNL     1       6.846  -6.048  -1.859  0.00  0.00    +0.105 C 
ENDROOT
BRANCH   3   7
ATOM      7  C   UNL     1       8.846  -3.840  -0.060  0.00  0.00    -0.012 A 
ATOM      8  C   UNL     1       9.953  -3.051   0.186  0.00  0.00    +0.115 A 
ATOM      9  N   UNL     1      10.077  -2.399   1.326  0.00  0.00    -0.263 NA
ATOM     10  C   UNL     1       9.159  -2.472   2.269  0.00  0.00    +0.111 A 
ATOM     11  C   UNL     1       8.023  -3.241   2.094  0.00  0.00    +0.020 A 
ATOM     12  C   UNL     1       7.856  -3.937   0.906  0.00  0.00    +0.008 A 
ENDBRANCH   3   7
TORSDOF 1
ENDMDL
MODEL 7
REMARK VINA RESULT:    -2.735      1.644      2.029
REMARK INTER + INTRA:          -3.145
REMARK INTER:                  -2.890
REMARK INTRA:                  -0.255
REMARK UNBOUND:                -0.250
REMARK  Name = Nicotine.pdb
REMARK  2 active torsions:
REMARK  status: ('A' for Active; 'I' for Inactive)
REMARK    1  A    between atoms: C_3  and  C_6
REMARK    2  A    between atoms: N_4  and  C_12
REMARK                            x       y       z     vdW  Elec       q    Type
REMARK                         _______ _______ _______ _____ _____    ______ ____
ROOT
ATOM      1  C   UNL     1       8.674  -4.719   0.988  0.00  0.00    +0.017 C 
ATOM      2  C   UNL     1       8.107  -3.443   1.663  0.00  0.00    +0.025 C 
ATOM      3  C   UNL     1       9.187  -2.382   1.363  0.00  0.00    +0.088 C 
ATOM      4  N   UNL     1      10.443  -3.103   1.090  0.00  0.00    -0.298 NA
ATOM      5  C   UNL     1      10.195  -4.554   1.233  0.00  0.00    +0.085 C 
ATOM      6  C   UNL     1      10.954  -2.785  -0.250  0.00  0.00    +0.105 C 
ENDROOT
BRANCH   3   7
ATOM      7  C   UNL     1       9.362  -1.477   2.554  0.00  0.00    -0.012 A 
ATOM      8  C   UNL     1       9.777  -0.170   2.384  0.00  0.00    +0.115 A 
ATOM      9  N   UNL     1       9.933   0.629   3.422  0.00  0.00    -0.263 NA
ATOM     10  C   UNL     1       9.701   0.219   4.653  0.00  0.00    +0.111 A 
ATOM     11  C   UNL     1       9.282  -1.075   4.901  0.00  0.00    +0.020 A 
ATOM     12  C   UNL     1       9.102  -1.942   3.834  0.00  0.00    +0.008 A 
ENDBRANCH   3   7
TORSDOF 1
ENDMDL
MODEL 8
REMARK VINA RESULT:    -2.618      3.551      6.221
REMARK INTER + INTRA:          -3.021
REMARK INTER:                  -2.766
REMARK INTRA:                  -0.255
REMARK UNBOUND:                -0.250
REMARK  Name = Nicotine.pdb
REMARK  2 active torsions:
REMARK  status: ('A' for Active; 'I' for Inactive)
REMARK    1  A    between atoms: C_3  and  C_6
REMARK    2  A    between atoms: N_4  and  C_12
REMARK                            x       y       z     vdW  Elec       q    Type
REMARK                         _______ _______ _______ _____ _____    ______ ____
ROOT
ATOM      1  C   UNL     1       6.958  -5.302   0.171  0.00  0.00    +0.017 C 
ATOM      2  C   UNL     1       6.912  -6.093  -1.163  0.00  0.00    +0.025 C 
ATOM      3  C   UNL     1       7.998  -5.402  -2.015  0.00  0.00    +0.088 C 
ATOM      4  N   UNL     1       8.192  -4.050  -1.461  0.00  0.00    -0.298 NA
ATOM      5  C   UNL     1       7.261  -3.867  -0.327  0.00  0.00    +0.085 C 
ATOM      6  C   UNL     1       9.584  -3.848  -1.038  0.00  0.00    +0.105 C 
ENDROOT
BRANCH   3   7
ATOM      7  C   UNL     1       7.544  -5.310  -3.448  0.00  0.00    -0.012 A 
ATOM      8  C   UNL     1       8.469  -5.269  -4.474  0.00  0.00    +0.115 A 
ATOM      9  N   UNL     1       8.080  -5.188  -5.731  0.00  0.00    -0.263 NA
ATOM     10  C   UNL     1       6.805  -5.143  -6.060  0.00  0.00    +0.111 A 
ATOM     11  C   UNL     1       5.821  -5.181  -5.089  0.00  0.00    +0.020 A 
ATOM     12  C   UNL     1       6.192  -5.271  -3.757  0.00  0.00    +0.008 A 
ENDBRANCH   3   7
TORSDOF 1
ENDMDL
MODEL 9
REMARK VINA RESULT:    -2.566      2.358      4.777
REMARK INTER + INTRA:          -2.965
REMARK INTER:                  -2.764
REMARK INTRA:                  -0.201
REMARK UNBOUND:                -0.250
REMARK  Name = Nicotine.pdb
REMARK  2 active torsions:
REMARK  status: ('A' for Active; 'I' for Inactive)
REMARK    1  A    between atoms: C_3  and  C_6
REMARK    2  A    between atoms: N_4  and  C_12
REMARK                            x       y       z     vdW  Elec       q    Type
REMARK                         _______ _______ _______ _____ _____    ______ ____
ROOT
ATOM      1  C   UNL     1       6.771  -3.738   0.616  0.00  0.00    +0.017 C 
ATOM      2  C   UNL     1       6.950  -3.781  -0.924  0.00  0.00    +0.025 C 
ATOM      3  C   UNL     1       8.149  -4.735  -1.108  0.00  0.00    +0.088 C 
ATOM      4  N   UNL     1       8.902  -4.740   0.159  0.00  0.00    -0.298 NA
ATOM      5  C   UNL     1       8.240  -3.815   1.104  0.00  0.00    +0.085 C 
ATOM      6  C   UNL     1       8.985  -6.095   0.718  0.00  0.00    +0.105 C 
ENDROOT
BRANCH   3   7
ATOM      7  C   UNL     1       9.029  -4.243  -2.227  0.00  0.00    -0.012 A 
ATOM      8  C   UNL     1       8.705  -4.515  -3.543  0.00  0.00    +0.115 A 
ATOM      9  N   UNL     1       9.470  -4.087  -4.529  0.00  0.00    -0.263 NA
ATOM     10  C   UNL     1      10.565  -3.390  -4.303  0.00  0.00    +0.111 A 
ATOM     11  C   UNL     1      10.954  -3.079  -3.013  0.00  0.00    +0.020 A 
ATOM     12  C   UNL     1      10.172  -3.507  -1.952  0.00  0.00    +0.008 A 
ENDBRANCH   3   7
TORSDOF 1
ENDMDL
MODEL 10
REMARK VINA RESULT:    -2.496      4.457      7.156
REMARK INTER + INTRA:          -2.892
REMARK INTER:                  -2.638
REMARK INTRA:                  -0.254
REMARK UNBOUND:                -0.250
REMARK  Name = Nicotine.pdb
REMARK  2 active torsions:
REMARK  status: ('A' for Active; 'I' for Inactive)
REMARK    1  A    between atoms: C_3  and  C_6
REMARK    2  A    between atoms: N_4  and  C_12
REMARK                            x       y       z     vdW  Elec       q    Type
REMARK                         _______ _______ _______ _____ _____    ______ ____
ROOT
ATOM      1  C   UNL     1      10.032  -3.802  -2.443  0.00  0.00    +0.017 C 
ATOM      2  C   UNL     1       9.241  -3.454  -3.732  0.00  0.00    +0.025 C 
ATOM      3  C   UNL     1       7.778  -3.735  -3.328  0.00  0.00    +0.088 C 
ATOM      4  N   UNL     1       7.811  -4.673  -2.191  0.00  0.00    -0.298 NA
ATOM      5  C   UNL     1       9.222  -5.002  -1.893  0.00  0.00    +0.085 C 
ATOM      6  C   UNL     1       7.144  -4.100  -1.016  0.00  0.00    +0.105 C 
ENDROOT
BRANCH   3   7
ATOM      7  C   UNL     1       7.038  -4.355  -4.485  0.00  0.00    -0.012 A 
ATOM      8  C   UNL     1       5.686  -4.123  -4.654  0.00  0.00    +0.115 A 
ATOM      9  N   UNL     1       5.030  -4.662  -5.663  0.00  0.00    -0.263 NA
ATOM     10  C   UNL     1       5.630  -5.437  -6.545  0.00  0.00    +0.111 A 
ATOM     11  C   UNL     1       6.980  -5.713  -6.441  0.00  0.00    +0.020 A 
ATOM     12  C   UNL     1       7.704  -5.161  -5.396  0.00  0.00    +0.008 A 
ENDBRANCH   3   7
TORSDOF 1
ENDMDL
