MODEL 1
REMARK VINA RESULT:    -3.664      0.000      0.000
REMARK INTER + INTRA:          -4.076
REMARK INTER:                  -3.879
REMARK INTRA:                  -0.198
REMARK UNBOUND:                -0.198
REMARK  Name = Nicotine.pdb
REMARK  2 active torsions:
REMARK  status: ('A' for Active; 'I' for Inactive)
REMARK    1  A    between atoms: C_3  and  C_6
REMARK    2  A    between atoms: N_4  and  C_12
REMARK                            x       y       z     vdW  Elec       q    Type
REMARK                         _______ _______ _______ _____ _____    ______ ____
ROOT
ATOM      1  C   UNL     1       8.190   3.895   0.607  0.00  0.00    +0.017 C 
ATOM      2  C   UNL     1       7.178   3.651  -0.543  0.00  0.00    +0.025 C 
ATOM      3  C   UNL     1       7.876   2.571  -1.397  0.00  0.00    +0.088 C 
ATOM      4  N   UNL     1       9.319   2.646  -1.103  0.00  0.00    -0.298 NA
ATOM      5  C   UNL     1       9.544   3.736  -0.129  0.00  0.00    +0.085 C 
ATOM      6  C   UNL     1       9.818   1.366  -0.586  0.00  0.00    +0.105 C 
ENDROOT
BRANCH   3   7
ATOM      7  C   UNL     1       7.635   2.840  -2.860  0.00  0.00    -0.012 A 
ATOM      8  C   UNL     1       6.495   2.365  -3.480  0.00  0.00    +0.115 A 
ATOM      9  N   UNL     1       6.276   2.596  -4.760  0.00  0.00    -0.263 NA
ATOM     10  C   UNL     1       7.128   3.282  -5.495  0.00  0.00    +0.111 A 
ATOM     11  C   UNL     1       8.291   3.789  -4.945  0.00  0.00    +0.020 A 
ATOM     12  C   UNL     1       8.552   3.571  -3.601  0.00  0.00    +0.008 A 
ENDBRANCH   3   7
TORSDOF 1
ENDMDL
MODEL 2
REMARK VINA RESULT:    -3.531      1.165      1.794
REMARK INTER + INTRA:          -3.935
REMARK INTER:                  -3.727
REMARK INTRA:                  -0.208
REMARK UNBOUND:                -0.198
REMARK  Name = Nicotine.pdb
REMARK  2 active torsions:
REMARK  status: ('A' for Active; 'I' for Inactive)
REMARK    1  A    between atoms: C_3  and  C_6
REMARK    2  A    between atoms: N_4  and  C_12
REMARK                            x       y       z     vdW  Elec       q    Type
REMARK                         _______ _______ _______ _____ _____    ______ ____
ROOT
ATOM      1  C   UNL     1       8.894   2.504   0.475  0.00  0.00    +0.017 C 
ATOM      2  C   UNL     1       9.060   2.102  -1.014  0.00  0.00    +0.025 C 
ATOM      3  C   UNL     1       8.977   3.456  -1.751  0.00  0.00    +0.088 C 
ATOM      4  N   UNL     1       8.267   4.393  -0.863  0.00  0.00    -0.298 NA
ATOM      5  C   UNL     1       7.886   3.676   0.372  0.00  0.00    +0.085 C 
ATOM      6  C   UNL     1       9.100   5.564  -0.557  0.00  0.00    +0.105 C 
ENDROOT
BRANCH   3   7
ATOM      7  C   UNL     1       8.216   3.292  -3.041  0.00  0.00    -0.012 A 
ATOM      8  C   UNL     1       7.094   2.486  -3.093  0.00  0.00    +0.115 A 
ATOM      9  N   UNL     1       6.422   2.337  -4.218  0.00  0.00    -0.263 NA
ATOM     10  C   UNL     1       6.788   2.945  -5.329  0.00  0.00    +0.111 A 
ATOM     11  C   UNL     1       7.899   3.767  -5.353  0.00  0.00    +0.020 A 
ATOM     12  C   UNL     1       8.628   3.952  -4.188  0.00  0.00    +0.008 A 
ENDBRANCH   3   7
TORSDOF 1
ENDMDL
MODEL 3
REMARK VINA RESULT:    -3.329      1.429      4.494
REMARK INTER + INTRA:          -3.721
REMARK INTER:                  -3.538
REMARK INTRA:                  -0.183
REMARK UNBOUND:                -0.198
REMARK  Name = Nicotine.pdb
REMARK  2 active torsions:
REMARK  status: ('A' for Active; 'I' for Inactive)
REMARK    1  A    between atoms: C_3  and  C_6
REMARK    2  A    between atoms: N_4  and  C_12
REMARK                            x       y       z     vdW  Elec       q    Type
REMARK                         _______ _______ _______ _____ _____    ______ ____
ROOT
ATOM      1  C   UNL     1       7.148   1.780  -5.029  0.00  0.00    +0.017 C 
ATOM      2  C   UNL     1       6.732   2.266  -3.616  0.00  0.00    +0.025 C 
ATOM      3  C   UNL     1       7.934   3.130  -3.178  0.00  0.00    +0.088 C 
ATOM      4  N   UNL     1       9.097   2.693  -3.971  0.00  0.00    -0.298 NA
ATOM      5  C   UNL     1       8.675   1.587  -4.857  0.00  0.00    +0.085 C 
ATOM      6  C   UNL     1       9.653   3.808  -4.749  0.00  0.00    +0.105 C 
ENDROOT
BRANCH   3   7
ATOM      7  C   UNL     1       8.206   2.924  -1.711  0.00  0.00    -0.012 A 
ATOM      8  C   UNL     1       9.130   1.983  -1.296  0.00  0.00    +0.115 A 
ATOM      9  N   UNL     1       9.374   1.796  -0.014  0.00  0.00    -0.263 NA
ATOM     10  C   UNL     1       8.753   2.492   0.918  0.00  0.00    +0.111 A 
ATOM     11  C   UNL     1       7.817   3.451   0.580  0.00  0.00    +0.020 A 
ATOM     12  C   UNL     1       7.538   3.679  -0.759  0.00  0.00    +0.008 A 
ENDBRANCH   3   7
TORSDOF 1
ENDMDL
MODEL 4
REMARK VINA RESULT:    -3.216      1.545      1.767
REMARK INTER + INTRA:          -3.602
REMARK INTER:                  -3.399
REMARK INTRA:                  -0.203
REMARK UNBOUND:                -0.198
REMARK  Name = Nicotine.pdb
REMARK  2 active torsions:
REMARK  status: ('A' for Active; 'I' for Inactive)
REMARK    1  A    between atoms: C_3  and  C_6
REMARK    2  A    between atoms: N_4  and  C_12
REMARK                            x       y       z     vdW  Elec       q    Type
REMARK                         _______ _______ _______ _____ _____    ______ ____
ROOT
ATOM      1  C   UNL     1       8.168   3.632  -0.805  0.00  0.00    +0.017 C 
ATOM      2  C   UNL     1       7.460   2.776  -1.888  0.00  0.00    +0.025 C 
ATOM      3  C   UNL     1       8.598   2.464  -2.883  0.00  0.00    +0.088 C 
ATOM      4  N   UNL     1       9.635   3.495  -2.698  0.00  0.00    -0.298 NA
ATOM      5  C   UNL     1       9.179   4.440  -1.657  0.00  0.00    +0.085 C 
ATOM      6  C   UNL     1      10.922   2.889  -2.332  0.00  0.00    +0.105 C 
ENDROOT
BRANCH   3   7
ATOM      7  C   UNL     1       8.073   2.510  -4.294  0.00  0.00    -0.012 A 
ATOM      8  C   UNL     1       6.746   2.812  -4.537  0.00  0.00    +0.115 A 
ATOM      9  N   UNL     1       6.278   2.855  -5.769  0.00  0.00    -0.263 NA
ATOM     10  C   UNL     1       7.049   2.614  -6.812  0.00  0.00    +0.111 A 
ATOM     11  C   UNL     1       8.386   2.305  -6.647  0.00  0.00    +0.020 A 
ATOM     12  C   UNL     1       8.915   2.256  -5.366  0.00  0.00    +0.008 A 
ENDBRANCH   3   7
TORSDOF 1
ENDMDL
MODEL 5
REMARK VINA RESULT:    -3.198      1.798      4.132
REMARK INTER + INTRA:          -3.583
REMARK INTER:                  -3.410
REMARK INTRA:                  -0.173
REMARK UNBOUND:                -0.198
REMARK  Name = Nicotine.pdb
REMARK  2 active torsions:
REMARK  status: ('A' for Active; 'I' for Inactive)
REMARK    1  A    between atoms: C_3  and  C_6
REMARK    2  A    between atoms: N_4  and  C_12
REMARK                            x       y       z     vdW  Elec       q    Type
REMARK                         _______ _______ _______ _____ _____    ______ ____
ROOT
ATOM      1  C   UNL     1      10.375   0.825  -2.301  0.00  0.00    +0.017 C 
ATOM      2  C   UNL     1       9.474   1.409  -1.181  0.00  0.00    +0.025 C 
ATOM      3  C   UNL     1       8.464   2.275  -1.963  0.00  0.00    +0.088 C 
ATOM      4  N   UNL     1       9.083   2.604  -3.260  0.00  0.00    -0.298 NA
ATOM      5  C   UNL     1      10.434   2.005  -3.302  0.00  0.00    +0.085 C 
ATOM      6  C   UNL     1       8.258   2.123  -4.375  0.00  0.00    +0.105 C 
ENDROOT
BRANCH   3   7
ATOM      7  C   UNL     1       8.171   3.539  -1.198  0.00  0.00    -0.012 A 
ATOM      8  C   UNL     1       8.980   4.649  -1.346  0.00  0.00    +0.115 A 
ATOM      9  N   UNL     1       8.730   5.760  -0.680  0.00  0.00    -0.263 NA
ATOM     10  C   UNL     1       7.708   5.856   0.148  0.00  0.00    +0.111 A 
ATOM     11  C   UNL     1       6.855   4.787   0.347  0.00  0.00    +0.020 A 
ATOM     12  C   UNL     1       7.083   3.605  -0.340  0.00  0.00    +0.008 A 
ENDBRANCH   3   7
TORSDOF 1
ENDMDL
MODEL 6
REMARK VINA RESULT:    -3.153      1.669      4.661
REMARK INTER + INTRA:          -3.535
REMARK INTER:                  -3.340
REMARK INTRA:                  -0.195
REMARK UNBOUND:                -0.198
REMARK  Name = Nicotine.pdb
REMARK  2 active torsions:
REMARK  status: ('A' for Active; 'I' for Inactive)
REMARK    1  A    between atoms: C_3  and  C_6
REMARK    2  A    between atoms: N_4  and  C_12
REMARK                            x       y       z     vdW  Elec       q    Type
REMARK                         _______ _______ _______ _____ _____    ______ ____
ROOT
ATOM      1  C   UNL     1       7.129   2.555  -6.771  0.00  0.00    +0.017 C 
ATOM      2  C   UNL     1       7.596   3.649  -5.774  0.00  0.00    +0.025 C 
ATOM      3  C   UNL     1       8.618   2.900  -4.892  0.00  0.00    +0.088 C 
ATOM      4  N   UNL     1       8.313   1.462  -4.994  0.00  0.00    -0.298 NA
ATOM      5  C   UNL     1       7.139   1.291  -5.876  0.00  0.00    +0.085 C 
ATOM      6  C   UNL     1       9.469   0.713  -5.505  0.00  0.00    +0.105 C 
ENDROOT
BRANCH   3   7
ATOM      7  C   UNL     1       8.488   3.352  -3.460  0.00  0.00    -0.012 A 
ATOM      8  C   UNL     1       9.207   4.440  -3.003  0.00  0.00    +0.115 A 
ATOM      9  N   UNL     1       9.099   4.843  -1.751  0.00  0.00    -0.263 NA
ATOM     10  C   UNL     1       8.309   4.230  -0.892  0.00  0.00    +0.111 A 
ATOM     11  C   UNL     1       7.558   3.135  -1.278  0.00  0.00    +0.020 A 
ATOM     12  C   UNL     1       7.642   2.687  -2.587  0.00  0.00    +0.008 A 
ENDBRANCH   3   7
TORSDOF 1
ENDMDL
MODEL 7
REMARK VINA RESULT:    -2.626      2.280      5.358
REMARK INTER + INTRA:          -2.977
REMARK INTER:                  -2.722
REMARK INTRA:                  -0.255
REMARK UNBOUND:                -0.198
REMARK  Name = Nicotine.pdb
REMARK  2 active torsions:
REMARK  status: ('A' for Active; 'I' for Inactive)
REMARK    1  A    between atoms: C_3  and  C_6
REMARK    2  A    between atoms: N_4  and  C_12
REMARK                            x       y       z     vdW  Elec       q    Type
REMARK                         _______ _______ _______ _____ _____    ______ ____
ROOT
ATOM      1  C   UNL     1       7.640   5.519   0.042  0.00  0.00    +0.017 C 
ATOM      2  C   UNL     1       8.958   4.965   0.643  0.00  0.00    +0.025 C 
ATOM      3  C   UNL     1       9.075   3.569  -0.006  0.00  0.00    +0.088 C 
ATOM      4  N   UNL     1       7.720   3.168  -0.427  0.00  0.00    -0.298 NA
ATOM      5  C   UNL     1       6.773   4.238  -0.047  0.00  0.00    +0.085 C 
ATOM      6  C   UNL     1       7.673   2.911  -1.872  0.00  0.00    +0.105 C 
ENDROOT
BRANCH   3   7
ATOM      7  C   UNL     1       9.614   2.581   0.996  0.00  0.00    -0.012 A 
ATOM      8  C   UNL     1      10.356   1.493   0.576  0.00  0.00    +0.115 A 
ATOM      9  N   UNL     1      10.832   0.625   1.447  0.00  0.00    -0.263 NA
ATOM     10  C   UNL     1      10.622   0.755   2.742  0.00  0.00    +0.111 A 
ATOM     11  C   UNL     1       9.890   1.818   3.236  0.00  0.00    +0.020 A 
ATOM     12  C   UNL     1       9.378   2.755   2.351  0.00  0.00    +0.008 A 
ENDBRANCH   3   7
TORSDOF 1
ENDMDL
MODEL 8
REMARK VINA RESULT:    -2.513      3.195      5.654
REMARK INTER + INTRA:          -2.858
REMARK INTER:                  -2.638
REMARK INTRA:                  -0.219
REMARK UNBOUND:                -0.198
REMARK  Name = Nicotine.pdb
REMARK  2 active torsions:
REMARK  status: ('A' for Active; 'I' for Inactive)
REMARK    1  A    between atoms: C_3  and  C_6
REMARK    2  A    between atoms: N_4  and  C_12
REMARK                            x       y       z     vdW  Elec       q    Type
REMARK                         _______ _______ _______ _____ _____    ______ ____
ROOT
ATOM      1  C   UNL     1       9.350   4.986  -1.269  0.00  0.00    +0.017 C 
ATOM      2  C   UNL     1       9.997   3.652  -0.811  0.00  0.00    +0.025 C 
ATOM      3  C   UNL     1       8.885   3.001   0.038  0.00  0.00    +0.088 C 
ATOM      4  N   UNL     1       7.986   4.081   0.484  0.00  0.00    -0.298 NA
ATOM      5  C   UNL     1       8.505   5.367  -0.028  0.00  0.00    +0.085 C 
ATOM      6  C   UNL     1       6.612   3.846   0.024  0.00  0.00    +0.105 C 
ENDROOT
BRANCH   3   7
ATOM      7  C   UNL     1       9.490   2.310   1.233  0.00  0.00    -0.012 A 
ATOM      8  C   UNL     1       9.194   2.738   2.513  0.00  0.00    +0.115 A 
ATOM      9  N   UNL     1       9.719   2.139   3.563  0.00  0.00    -0.263 NA
ATOM     10  C   UNL     1      10.541   1.116   3.439  0.00  0.00    +0.111 A 
ATOM     11  C   UNL     1      10.883   0.631   2.190  0.00  0.00    +0.020 A 
ATOM     12  C   UNL     1      10.346   1.232   1.062  0.00  0.00    +0.008 A 
ENDBRANCH   3   7
TORSDOF 1
ENDMDL
MODEL 9
REMARK VINA RESULT:    -2.453      2.987      4.504
REMARK INTER + INTRA:          -2.794
REMARK INTER:                  -2.605
REMARK INTRA:                  -0.189
REMARK UNBOUND:                -0.198
REMARK  Name = Nicotine.pdb
REMARK  2 active torsions:
REMARK  status: ('A' for Active; 'I' for Inactive)
REMARK    1  A    between atoms: C_3  and  C_6
REMARK    2  A    between atoms: N_4  and  C_12
REMARK                            x       y       z     vdW  Elec       q    Type
REMARK                         _______ _______ _______ _____ _____    ______ ____
ROOT
ATOM      1  C   UNL     1       9.105   6.411  -1.536  0.00  0.00    +0.017 C 
ATOM      2  C   UNL     1       9.442   4.956  -1.957  0.00  0.00    +0.025 C 
ATOM      3  C   UNL     1       8.568   4.108  -1.009  0.00  0.00    +0.088 C 
ATOM      4  N   UNL     1       8.256   4.946   0.163  0.00  0.00    -0.298 NA
ATOM      5  C   UNL     1       8.916   6.258  -0.006  0.00  0.00    +0.085 C 
ATOM      6  C   UNL     1       6.805   5.103   0.327  0.00  0.00    +0.105 C 
ENDROOT
BRANCH   3   7
ATOM      7  C   UNL     1       9.324   2.879  -0.576  0.00  0.00    -0.012 A 
ATOM      8  C   UNL     1       9.966   2.848   0.648  0.00  0.00    +0.115 A 
ATOM      9  N   UNL     1      10.630   1.777   1.034  0.00  0.00    -0.263 NA
ATOM     10  C   UNL     1      10.710   0.700   0.277  0.00  0.00    +0.111 A 
ATOM     11  C   UNL     1      10.093   0.657  -0.959  0.00  0.00    +0.020 A 
ATOM     12  C   UNL     1       9.381   1.763  -1.397  0.00  0.00    +0.008 A 
ENDBRANCH   3   7
TORSDOF 1
ENDMDL
MODEL 10
REMARK VINA RESULT:    -2.450      7.415      8.589
REMARK INTER + INTRA:          -2.791
REMARK INTER:                  -2.603
REMARK INTRA:                  -0.188
REMARK UNBOUND:                -0.198
REMARK  Name = Nicotine.pdb
REMARK  2 active torsions:
REMARK  status: ('A' for Active; 'I' for Inactive)
REMARK    1  A    between atoms: C_3  and  C_6
REMARK    2  A    between atoms: N_4  and  C_12
REMARK                            x       y       z     vdW  Elec       q    Type
REMARK                         _______ _______ _______ _____ _____    ______ ____
ROOT
ATOM      1  C   UNL     1       5.392   0.238   6.231  0.00  0.00    +0.017 C 
ATOM      2  C   UNL     1       6.746  -0.520   6.243  0.00  0.00    +0.025 C 
ATOM      3  C   UNL     1       7.778   0.611   6.046  0.00  0.00    +0.088 C 
ATOM      4  N   UNL     1       7.073   1.740   5.413  0.00  0.00    -0.298 NA
ATOM      5  C   UNL     1       5.665   1.350   5.188  0.00  0.00    +0.085 C 
ATOM      6  C   UNL     1       7.160   2.948   6.244  0.00  0.00    +0.105 C 
ENDROOT
BRANCH   3   7
ATOM      7  C   UNL     1       8.894   0.136   5.152  0.00  0.00    -0.012 A 
ATOM      8  C   UNL     1       9.316  -1.180   5.200  0.00  0.00    +0.115 A 
ATOM      9  N   UNL     1      10.292  -1.604   4.421  0.00  0.00    -0.263 NA
ATOM     10  C   UNL     1      10.901  -0.799   3.573  0.00  0.00    +0.111 A 
ATOM     11  C   UNL     1      10.533   0.529   3.469  0.00  0.00    +0.020 A 
ATOM     12  C   UNL     1       9.507   1.010   4.268  0.00  0.00    +0.008 A 
ENDBRANCH   3   7
TORSDOF 1
ENDMDL
