MODEL 1
REMARK VINA RESULT:    -3.353      0.000      0.000
REMARK INTER + INTRA:          -3.805
REMARK INTER:                  -3.549
REMARK INTRA:                  -0.256
REMARK UNBOUND:                -0.256
REMARK  Name = Nicotine.pdb
REMARK  2 active torsions:
REMARK  status: ('A' for Active; 'I' for Inactive)
REMARK    1  A    between atoms: C_3  and  C_6
REMARK    2  A    between atoms: N_4  and  C_12
REMARK                            x       y       z     vdW  Elec       q    Type
REMARK                         _______ _______ _______ _____ _____    ______ ____
ROOT
ATOM      1  C   UNL     1       6.926  -0.466  -7.173  0.00  0.00    +0.017 C 
ATOM      2  C   UNL     1       6.054   0.815  -7.097  0.00  0.00    +0.025 C 
ATOM      3  C   UNL     1       7.099   1.937  -6.919  0.00  0.00    +0.088 C 
ATOM      4  N   UNL     1       8.317   1.316  -6.369  0.00  0.00    -0.298 NA
ATOM      5  C   UNL     1       8.064  -0.128  -6.177  0.00  0.00    +0.085 C 
ATOM      6  C   UNL     1       9.467   1.536  -7.256  0.00  0.00    +0.105 C 
ENDROOT
BRANCH   3   7
ATOM      7  C   UNL     1       6.576   2.978  -5.963  0.00  0.00    -0.012 A 
ATOM      8  C   UNL     1       7.170   4.223  -5.893  0.00  0.00    +0.115 A 
ATOM      9  N   UNL     1       6.718   5.140  -5.059  0.00  0.00    -0.263 NA
ATOM     10  C   UNL     1       5.692   4.909  -4.265  0.00  0.00    +0.111 A 
ATOM     11  C   UNL     1       5.046   3.687  -4.280  0.00  0.00    +0.020 A 
ATOM     12  C   UNL     1       5.489   2.700  -5.148  0.00  0.00    +0.008 A 
ENDBRANCH   3   7
TORSDOF 1
ENDMDL
MODEL 2
REMARK VINA RESULT:    -3.294      1.296      4.320
REMARK INTER + INTRA:          -3.742
REMARK INTER:                  -3.493
REMARK INTRA:                  -0.249
REMARK UNBOUND:                -0.256
REMARK  Name = Nicotine.pdb
REMARK  2 active torsions:
REMARK  status: ('A' for Active; 'I' for Inactive)
REMARK    1  A    between atoms: C_3  and  C_6
REMARK    2  A    between atoms: N_4  and  C_12
REMARK                            x       y       z     vdW  Elec       q    Type
REMARK                         _______ _______ _______ _____ _____    ______ ____
ROOT
ATOM      1  C   UNL     1       5.612   6.020  -5.140  0.00  0.00    +0.017 C 
ATOM      2  C   UNL     1       5.828   4.572  -4.627  0.00  0.00    +0.025 C 
ATOM      3  C   UNL     1       7.060   4.100  -5.429  0.00  0.00    +0.088 C 
ATOM      4  N   UNL     1       7.142   4.938  -6.638  0.00  0.00    -0.298 NA
ATOM      5  C   UNL     1       6.007   5.885  -6.632  0.00  0.00    +0.085 C 
ATOM      6  C   UNL     1       8.424   5.652  -6.698  0.00  0.00    +0.105 C 
ENDROOT
BRANCH   3   7
ATOM      7  C   UNL     1       6.896   2.653  -5.816  0.00  0.00    -0.012 A 
ATOM      8  C   UNL     1       7.975   1.790  -5.770  0.00  0.00    +0.115 A 
ATOM      9  N   UNL     1       7.840   0.522  -6.107  0.00  0.00    -0.263 NA
ATOM     10  C   UNL     1       6.682   0.029  -6.500  0.00  0.00    +0.111 A 
ATOM     11  C   UNL     1       5.559   0.832  -6.571  0.00  0.00    +0.020 A 
ATOM     12  C   UNL     1       5.661   2.169  -6.219  0.00  0.00    +0.008 A 
ENDBRANCH   3   7
TORSDOF 1
ENDMDL
MODEL 3
REMARK VINA RESULT:    -2.746      1.876      4.618
REMARK INTER + INTRA:          -3.162
REMARK INTER:                  -2.918
REMARK INTRA:                  -0.244
REMARK UNBOUND:                -0.256
REMARK  Name = Nicotine.pdb
REMARK  2 active torsions:
REMARK  status: ('A' for Active; 'I' for Inactive)
REMARK    1  A    between atoms: C_3  and  C_6
REMARK    2  A    between atoms: N_4  and  C_12
REMARK                            x       y       z     vdW  Elec       q    Type
REMARK                         _______ _______ _______ _____ _____    ______ ____
ROOT
ATOM      1  C   UNL     1       6.413   4.167  -5.704  0.00  0.00    +0.017 C 
ATOM      2  C   UNL     1       7.846   3.636  -5.972  0.00  0.00    +0.025 C 
ATOM      3  C   UNL     1       7.605   2.151  -6.321  0.00  0.00    +0.088 C 
ATOM      4  N   UNL     1       6.304   1.772  -5.741  0.00  0.00    -0.298 NA
ATOM      5  C   UNL     1       5.745   2.942  -5.032  0.00  0.00    +0.085 C 
ATOM      6  C   UNL     1       5.383   1.295  -6.781  0.00  0.00    +0.105 C 
ENDROOT
BRANCH   3   7
ATOM      7  C   UNL     1       8.700   1.302  -5.728  0.00  0.00    -0.012 A 
ATOM      8  C   UNL     1       8.739  -0.058  -5.972  0.00  0.00    +0.115 A 
ATOM      9  N   UNL     1       9.693  -0.808  -5.457  0.00  0.00    -0.263 NA
ATOM     10  C   UNL     1      10.641  -0.299  -4.696  0.00  0.00    +0.111 A 
ATOM     11  C   UNL     1      10.667   1.053  -4.408  0.00  0.00    +0.020 A 
ATOM     12  C   UNL     1       9.683   1.875  -4.936  0.00  0.00    +0.008 A 
ENDBRANCH   3   7
TORSDOF 1
ENDMDL
MODEL 4
REMARK VINA RESULT:    -2.743      4.304      6.166
REMARK INTER + INTRA:          -3.159
REMARK INTER:                  -2.905
REMARK INTRA:                  -0.255
REMARK UNBOUND:                -0.256
REMARK  Name = Nicotine.pdb
REMARK  2 active torsions:
REMARK  status: ('A' for Active; 'I' for Inactive)
REMARK    1  A    between atoms: C_3  and  C_6
REMARK    2  A    between atoms: N_4  and  C_12
REMARK                            x       y       z     vdW  Elec       q    Type
REMARK                         _______ _______ _______ _____ _____    ______ ____
ROOT
ATOM      1  C   UNL     1       9.780  -2.971  -1.034  0.00  0.00    +0.017 C 
ATOM      2  C   UNL     1      10.530  -2.517  -2.314  0.00  0.00    +0.025 C 
ATOM      3  C   UNL     1      10.401  -0.979  -2.265  0.00  0.00    +0.088 C 
ATOM      4  N   UNL     1       9.238  -0.666  -1.415  0.00  0.00    -0.298 NA
ATOM      5  C   UNL     1       8.631  -1.934  -0.961  0.00  0.00    +0.085 C 
ATOM      6  C   UNL     1       9.630   0.170  -0.273  0.00  0.00    +0.105 C 
ENDROOT
BRANCH   3   7
ATOM      7  C   UNL     1      10.184  -0.438  -3.654  0.00  0.00    -0.012 A 
ATOM      8  C   UNL     1      10.328   0.913  -3.908  0.00  0.00    +0.115 A 
ATOM      9  N   UNL     1      10.140   1.394  -5.121  0.00  0.00    -0.263 NA
ATOM     10  C   UNL     1       9.810   0.616  -6.133  0.00  0.00    +0.111 A 
ATOM     11  C   UNL     1       9.649  -0.745  -5.955  0.00  0.00    +0.020 A 
ATOM     12  C   UNL     1       9.843  -1.289  -4.694  0.00  0.00    +0.008 A 
ENDBRANCH   3   7
TORSDOF 1
ENDMDL
MODEL 5
REMARK VINA RESULT:    -2.735      5.857      7.803
REMARK INTER + INTRA:          -3.150
REMARK INTER:                  -2.900
REMARK INTRA:                  -0.250
REMARK UNBOUND:                -0.256
REMARK  Name = Nicotine.pdb
REMARK  2 active torsions:
REMARK  status: ('A' for Active; 'I' for Inactive)
REMARK    1  A    between atoms: C_3  and  C_6
REMARK    2  A    between atoms: N_4  and  C_12
REMARK                            x       y       z     vdW  Elec       q    Type
REMARK                         _______ _______ _______ _____ _____    ______ ____
ROOT
ATOM      1  C   UNL     1       9.681   0.104   0.737  0.00  0.00    +0.017 C 
ATOM      2  C   UNL     1       9.172  -0.079  -0.717  0.00  0.00    +0.025 C 
ATOM      3  C   UNL     1       9.523  -1.550  -1.025  0.00  0.00    +0.088 C 
ATOM      4  N   UNL     1      10.605  -1.943  -0.105  0.00  0.00    -0.298 NA
ATOM      5  C   UNL     1      10.954  -0.779   0.737  0.00  0.00    +0.085 C 
ATOM      6  C   UNL     1      10.204  -3.089   0.722  0.00  0.00    +0.105 C 
ENDROOT
BRANCH   3   7
ATOM      7  C   UNL     1       9.990  -1.678  -2.452  0.00  0.00    -0.012 A 
ATOM      8  C   UNL     1      10.201  -2.925  -3.009  0.00  0.00    +0.115 A 
ATOM      9  N   UNL     1      10.610  -3.045  -4.257  0.00  0.00    -0.263 NA
ATOM     10  C   UNL     1      10.832  -1.992  -5.019  0.00  0.00    +0.111 A 
ATOM     11  C   UNL     1      10.642  -0.713  -4.530  0.00  0.00    +0.020 A 
ATOM     12  C   UNL     1      10.207  -0.547  -3.224  0.00  0.00    +0.008 A 
ENDBRANCH   3   7
TORSDOF 1
ENDMDL
MODEL 6
REMARK VINA RESULT:    -2.727      7.388      8.041
REMARK INTER + INTRA:          -3.142
REMARK INTER:                  -2.958
REMARK INTRA:                  -0.185
REMARK UNBOUND:                -0.256
REMARK  Name = Nicotine.pdb
REMARK  2 active torsions:
REMARK  status: ('A' for Active; 'I' for Inactive)
REMARK    1  A    between atoms: C_3  and  C_6
REMARK    2  A    between atoms: N_4  and  C_12
REMARK                            x       y       z     vdW  Elec       q    Type
REMARK                         _______ _______ _______ _____ _____    ______ ____
ROOT
ATOM      1  C   UNL     1       9.674  -1.916  -2.126  0.00  0.00    +0.017 C 
ATOM      2  C   UNL     1      10.469  -0.678  -1.635  0.00  0.00    +0.025 C 
ATOM      3  C   UNL     1      10.899  -1.085  -0.210  0.00  0.00    +0.088 C 
ATOM      4  N   UNL     1       9.970  -2.135   0.244  0.00  0.00    -0.298 NA
ATOM      5  C   UNL     1       8.975  -2.376  -0.823  0.00  0.00    +0.085 C 
ATOM      6  C   UNL     1      10.692  -3.369   0.579  0.00  0.00    +0.105 C 
ENDROOT
BRANCH   3   7
ATOM      7  C   UNL     1      10.818   0.106   0.710  0.00  0.00    -0.012 A 
ATOM      8  C   UNL     1      10.954   1.387   0.209  0.00  0.00    +0.115 A 
ATOM      9  N   UNL     1      10.884   2.434   1.008  0.00  0.00    -0.263 NA
ATOM     10  C   UNL     1      10.683   2.305   2.304  0.00  0.00    +0.111 A 
ATOM     11  C   UNL     1      10.536   1.055   2.877  0.00  0.00    +0.020 A 
ATOM     12  C   UNL     1      10.599  -0.069   2.068  0.00  0.00    +0.008 A 
ENDBRANCH   3   7
TORSDOF 1
ENDMDL
MODEL 7
REMARK VINA RESULT:    -2.673      1.457      2.315
REMARK INTER + INTRA:          -3.085
REMARK INTER:                  -2.888
REMARK INTRA:                  -0.197
REMARK UNBOUND:                -0.256
REMARK  Name = Nicotine.pdb
REMARK  2 active torsions:
REMARK  status: ('A' for Active; 'I' for Inactive)
REMARK    1  A    between atoms: C_3  and  C_6
REMARK    2  A    between atoms: N_4  and  C_12
REMARK                            x       y       z     vdW  Elec       q    Type
REMARK                         _______ _______ _______ _____ _____    ______ ____
ROOT
ATOM      1  C   UNL     1       9.110   0.891  -6.012  0.00  0.00    +0.017 C 
ATOM      2  C   UNL     1       8.826   2.164  -5.172  0.00  0.00    +0.025 C 
ATOM      3  C   UNL     1       7.333   2.438  -5.451  0.00  0.00    +0.088 C 
ATOM      4  N   UNL     1       6.999   1.777  -6.726  0.00  0.00    -0.298 NA
ATOM      5  C   UNL     1       8.219   1.132  -7.256  0.00  0.00    +0.085 C 
ATOM      6  C   UNL     1       5.920   0.797  -6.544  0.00  0.00    +0.105 C 
ENDROOT
BRANCH   3   7
ATOM      7  C   UNL     1       7.097   3.922  -5.564  0.00  0.00    -0.012 A 
ATOM      8  C   UNL     1       7.918   4.702  -6.355  0.00  0.00    +0.115 A 
ATOM      9  N   UNL     1       7.718   6.002  -6.459  0.00  0.00    -0.263 NA
ATOM     10  C   UNL     1       6.736   6.605  -5.819  0.00  0.00    +0.111 A 
ATOM     11  C   UNL     1       5.873   5.889  -5.010  0.00  0.00    +0.020 A 
ATOM     12  C   UNL     1       6.050   4.520  -4.880  0.00  0.00    +0.008 A 
ENDBRANCH   3   7
TORSDOF 1
ENDMDL
MODEL 8
REMARK VINA RESULT:    -2.662      1.235      4.426
REMARK INTER + INTRA:          -3.073
REMARK INTER:                  -2.903
REMARK INTRA:                  -0.170
REMARK UNBOUND:                -0.256
REMARK  Name = Nicotine.pdb
REMARK  2 active torsions:
REMARK  status: ('A' for Active; 'I' for Inactive)
REMARK    1  A    between atoms: C_3  and  C_6
REMARK    2  A    between atoms: N_4  and  C_12
REMARK                            x       y       z     vdW  Elec       q    Type
REMARK                         _______ _______ _______ _____ _____    ______ ____
ROOT
ATOM      1  C   UNL     1       5.913   5.191  -6.502  0.00  0.00    +0.017 C 
ATOM      2  C   UNL     1       6.377   3.902  -7.230  0.00  0.00    +0.025 C 
ATOM      3  C   UNL     1       6.051   2.791  -6.210  0.00  0.00    +0.088 C 
ATOM      4  N   UNL     1       5.981   3.424  -4.881  0.00  0.00    -0.298 NA
ATOM      5  C   UNL     1       6.273   4.866  -5.031  0.00  0.00    +0.085 C 
ATOM      6  C   UNL     1       4.664   3.214  -4.266  0.00  0.00    +0.105 C 
ENDROOT
BRANCH   3   7
ATOM      7  C   UNL     1       7.137   1.746  -6.225  0.00  0.00    -0.012 A 
ATOM      8  C   UNL     1       8.388   2.031  -5.712  0.00  0.00    +0.115 A 
ATOM      9  N   UNL     1       9.344   1.123  -5.721  0.00  0.00    -0.263 NA
ATOM     10  C   UNL     1       9.149  -0.083  -6.215  0.00  0.00    +0.111 A 
ATOM     11  C   UNL     1       7.924  -0.441  -6.746  0.00  0.00    +0.020 A 
ATOM     12  C   UNL     1       6.893   0.486  -6.749  0.00  0.00    +0.008 A 
ENDBRANCH   3   7
TORSDOF 1
ENDMDL
MODEL 9
REMARK VINA RESULT:    -1.979      2.618      4.651
REMARK INTER + INTRA:          -2.350
REMARK INTER:                  -2.130
REMARK INTRA:                  -0.220
REMARK UNBOUND:                -0.256
REMARK  Name = Nicotine.pdb
REMARK  2 active torsions:
REMARK  status: ('A' for Active; 'I' for Inactive)
REMARK    1  A    between atoms: C_3  and  C_6
REMARK    2  A    between atoms: N_4  and  C_12
REMARK                            x       y       z     vdW  Elec       q    Type
REMARK                         _______ _______ _______ _____ _____    ______ ____
ROOT
ATOM      1  C   UNL     1       5.471   4.771  -4.476  0.00  0.00    +0.017 C 
ATOM      2  C   UNL     1       6.359   5.819  -5.198  0.00  0.00    +0.025 C 
ATOM      3  C   UNL     1       6.899   5.037  -6.415  0.00  0.00    +0.088 C 
ATOM      4  N   UNL     1       6.812   3.603  -6.086  0.00  0.00    -0.298 NA
ATOM      5  C   UNL     1       6.269   3.465  -4.718  0.00  0.00    +0.085 C 
ATOM      6  C   UNL     1       5.975   2.889  -7.059  0.00  0.00    +0.105 C 
ENDROOT
BRANCH   3   7
ATOM      7  C   UNL     1       8.333   5.419  -6.675  0.00  0.00    -0.012 A 
ATOM      8  C   UNL     1       9.338   4.477  -6.566  0.00  0.00    +0.115 A 
ATOM      9  N   UNL     1      10.596   4.803  -6.792  0.00  0.00    -0.263 NA
ATOM     10  C   UNL     1      10.944   6.029  -7.127  0.00  0.00    +0.111 A 
ATOM     11  C   UNL     1       9.994   7.025  -7.256  0.00  0.00    +0.020 A 
ATOM     12  C   UNL     1       8.661   6.718  -7.032  0.00  0.00    +0.008 A 
ENDBRANCH   3   7
TORSDOF 1
ENDMDL
MODEL 10
REMARK VINA RESULT:    -1.386      1.909      4.159
REMARK INTER + INTRA:          -1.723
REMARK INTER:                  -1.513
REMARK INTRA:                  -0.209
REMARK UNBOUND:                -0.256
REMARK  Name = Nicotine.pdb
REMARK  2 active torsions:
REMARK  status: ('A' for Active; 'I' for Inactive)
REMARK    1  A    between atoms: C_3  and  C_6
REMARK    2  A    between atoms: N_4  and  C_12
REMARK                            x       y       z     vdW  Elec       q    Type
REMARK                         _______ _______ _______ _____ _____    ______ ____
ROOT
ATOM      1  C   UNL     1       4.885   4.055  -4.672  0.00  0.00    +0.017 C 
ATOM      2  C   UNL     1       6.216   4.716  -5.119  0.00  0.00    +0.025 C 
ATOM      3  C   UNL     1       6.764   3.721  -6.165  0.00  0.00    +0.088 C 
ATOM      4  N   UNL     1       6.139   2.414  -5.894  0.00  0.00    -0.298 NA
ATOM      5  C   UNL     1       5.253   2.551  -4.717  0.00  0.00    +0.085 C 
ATOM      6  C   UNL     1       5.391   1.934  -7.063  0.00  0.00    +0.105 C 
ENDROOT
BRANCH   3   7
ATOM      7  C   UNL     1       8.261   3.613  -6.033  0.00  0.00    -0.012 A 
ATOM      8  C   UNL     1       8.837   2.457  -5.541  0.00  0.00    +0.115 A 
ATOM      9  N   UNL     1      10.147   2.354  -5.423  0.00  0.00    -0.263 NA
ATOM     10  C   UNL     1      10.953   3.338  -5.766  0.00  0.00    +0.111 A 
ATOM     11  C   UNL     1      10.449   4.524  -6.267  0.00  0.00    +0.020 A 
ATOM     12  C   UNL     1       9.078   4.667  -6.411  0.00  0.00    +0.008 A 
ENDBRANCH   3   7
TORSDOF 1
ENDMDL
