MODEL 1
REMARK VINA RESULT:    -3.905      0.000      0.000
REMARK INTER + INTRA:          -4.378
REMARK INTER:                  -4.134
REMARK INTRA:                  -0.244
REMARK UNBOUND:                -0.244
REMARK  Name = Nicotine.pdb
REMARK  2 active torsions:
REMARK  status: ('A' for Active; 'I' for Inactive)
REMARK    1  A    between atoms: C_3  and  C_6
REMARK    2  A    between atoms: N_4  and  C_12
REMARK                            x       y       z     vdW  Elec       q    Type
REMARK                         _______ _______ _______ _____ _____    ______ ____
ROOT
ATOM      1  C   UNL     1       8.172  -1.789   5.556  0.00  0.00    +0.017 C 
ATOM      2  C   UNL     1       7.201  -2.918   5.990  0.00  0.00    +0.025 C 
ATOM      3  C   UNL     1       6.822  -3.583   4.650  0.00  0.00    +0.088 C 
ATOM      4  N   UNL     1       7.066  -2.594   3.586  0.00  0.00    -0.298 NA
ATOM      5  C   UNL     1       7.553  -1.344   4.208  0.00  0.00    +0.085 C 
ATOM      6  C   UNL     1       8.031  -3.104   2.603  0.00  0.00    +0.105 C 
ENDROOT
BRANCH   3   7
ATOM      7  C   UNL     1       5.366  -3.973   4.665  0.00  0.00    -0.012 A 
ATOM      8  C   UNL     1       4.813  -4.652   3.596  0.00  0.00    +0.115 A 
ATOM      9  N   UNL     1       3.541  -4.997   3.601  0.00  0.00    -0.263 NA
ATOM     10  C   UNL     1       2.749  -4.712   4.616  0.00  0.00    +0.111 A 
ATOM     11  C   UNL     1       3.232  -4.036   5.721  0.00  0.00    +0.020 A 
ATOM     12  C   UNL     1       4.566  -3.661   5.754  0.00  0.00    +0.008 A 
ENDBRANCH   3   7
TORSDOF 1
ENDMDL
MODEL 2
REMARK VINA RESULT:    -3.830     12.573     13.127
REMARK INTER + INTRA:          -4.298
REMARK INTER:                  -4.104
REMARK INTRA:                  -0.195
REMARK UNBOUND:                -0.244
REMARK  Name = Nicotine.pdb
REMARK  2 active torsions:
REMARK  status: ('A' for Active; 'I' for Inactive)
REMARK    1  A    between atoms: C_3  and  C_6
REMARK    2  A    between atoms: N_4  and  C_12
REMARK                            x       y       z     vdW  Elec       q    Type
REMARK                         _______ _______ _______ _____ _____    ______ ____
ROOT
ATOM      1  C   UNL     1       1.732   1.507  -6.060  0.00  0.00    +0.017 C 
ATOM      2  C   UNL     1       1.196   0.111  -6.472  0.00  0.00    +0.025 C 
ATOM      3  C   UNL     1      -0.269   0.402  -6.862  0.00  0.00    +0.088 C 
ATOM      4  N   UNL     1      -0.658   1.655  -6.189  0.00  0.00    -0.298 NA
ATOM      5  C   UNL     1       0.487   2.134  -5.386  0.00  0.00    +0.085 C 
ATOM      6  C   UNL     1      -1.078   2.669  -7.166  0.00  0.00    +0.105 C 
ENDROOT
BRANCH   3   7
ATOM      7  C   UNL     1      -1.156  -0.725  -6.402  0.00  0.00    -0.012 A 
ATOM      8  C   UNL     1      -0.750  -2.038  -6.546  0.00  0.00    +0.115 A 
ATOM      9  N   UNL     1      -1.520  -3.031  -6.146  0.00  0.00    -0.263 NA
ATOM     10  C   UNL     1      -2.699  -2.816  -5.597  0.00  0.00    +0.111 A 
ATOM     11  C   UNL     1      -3.172  -1.529  -5.419  0.00  0.00    +0.020 A 
ATOM     12  C   UNL     1      -2.388  -0.459  -5.823  0.00  0.00    +0.008 A 
ENDBRANCH   3   7
TORSDOF 1
ENDMDL
MODEL 3
REMARK VINA RESULT:    -3.747     12.334     13.678
REMARK INTER + INTRA:          -4.210
REMARK INTER:                  -4.026
REMARK INTRA:                  -0.185
REMARK UNBOUND:                -0.244
REMARK  Name = Nicotine.pdb
REMARK  2 active torsions:
REMARK  status: ('A' for Active; 'I' for Inactive)
REMARK    1  A    between atoms: C_3  and  C_6
REMARK    2  A    between atoms: N_4  and  C_12
REMARK                            x       y       z     vdW  Elec       q    Type
REMARK                         _______ _______ _______ _____ _____    ______ ____
ROOT
ATOM      1  C   UNL     1      -3.950  -1.709  -5.037  0.00  0.00    +0.017 C 
ATOM      2  C   UNL     1      -3.155  -0.547  -5.689  0.00  0.00    +0.025 C 
ATOM      3  C   UNL     1      -2.079  -1.283  -6.515  0.00  0.00    +0.088 C 
ATOM      4  N   UNL     1      -1.921  -2.626  -5.928  0.00  0.00    -0.298 NA
ATOM      5  C   UNL     1      -2.829  -2.743  -4.767  0.00  0.00    +0.085 C 
ATOM      6  C   UNL     1      -2.199  -3.671  -6.922  0.00  0.00    +0.105 C 
ENDROOT
BRANCH   3   7
ATOM      7  C   UNL     1      -0.774  -0.533  -6.441  0.00  0.00    -0.012 A 
ATOM      8  C   UNL     1      -0.764   0.836  -6.255  0.00  0.00    +0.115 A 
ATOM      9  N   UNL     1       0.373   1.500  -6.189  0.00  0.00    -0.263 NA
ATOM     10  C   UNL     1       1.538   0.892  -6.297  0.00  0.00    +0.111 A 
ATOM     11  C   UNL     1       1.607  -0.476  -6.484  0.00  0.00    +0.020 A 
ATOM     12  C   UNL     1       0.432  -1.208  -6.553  0.00  0.00    +0.008 A 
ENDBRANCH   3   7
TORSDOF 1
ENDMDL
MODEL 4
REMARK VINA RESULT:    -3.521     12.740     13.455
REMARK INTER + INTRA:          -3.971
REMARK INTER:                  -3.762
REMARK INTRA:                  -0.209
REMARK UNBOUND:                -0.244
REMARK  Name = Nicotine.pdb
REMARK  2 active torsions:
REMARK  status: ('A' for Active; 'I' for Inactive)
REMARK    1  A    between atoms: C_3  and  C_6
REMARK    2  A    between atoms: N_4  and  C_12
REMARK                            x       y       z     vdW  Elec       q    Type
REMARK                         _______ _______ _______ _____ _____    ______ ____
ROOT
ATOM      1  C   UNL     1      -0.972   5.072  -5.365  0.00  0.00    +0.017 C 
ATOM      2  C   UNL     1      -1.002   3.570  -4.976  0.00  0.00    +0.025 C 
ATOM      3  C   UNL     1       0.456   3.121  -5.214  0.00  0.00    +0.088 C 
ATOM      4  N   UNL     1       1.056   4.073  -6.167  0.00  0.00    -0.298 NA
ATOM      5  C   UNL     1       0.032   5.069  -6.545  0.00  0.00    +0.085 C 
ATOM      6  C   UNL     1       2.237   4.724  -5.587  0.00  0.00    +0.105 C 
ENDROOT
BRANCH   3   7
ATOM      7  C   UNL     1       0.475   1.731  -5.795  0.00  0.00    -0.012 A 
ATOM      8  C   UNL     1      -0.703   1.112  -6.166  0.00  0.00    +0.115 A 
ATOM      9  N   UNL     1      -0.695  -0.105  -6.675  0.00  0.00    -0.263 NA
ATOM     10  C   UNL     1       0.427  -0.775  -6.850  0.00  0.00    +0.111 A 
ATOM     11  C   UNL     1       1.644  -0.220  -6.503  0.00  0.00    +0.020 A 
ATOM     12  C   UNL     1       1.676   1.059  -5.969  0.00  0.00    +0.008 A 
ENDBRANCH   3   7
TORSDOF 1
ENDMDL
MODEL 5
REMARK VINA RESULT:    -3.408     12.909     13.622
REMARK INTER + INTRA:          -3.851
REMARK INTER:                  -3.614
REMARK INTRA:                  -0.238
REMARK UNBOUND:                -0.244
REMARK  Name = Nicotine.pdb
REMARK  2 active torsions:
REMARK  status: ('A' for Active; 'I' for Inactive)
REMARK    1  A    between atoms: C_3  and  C_6
REMARK    2  A    between atoms: N_4  and  C_12
REMARK                            x       y       z     vdW  Elec       q    Type
REMARK                         _______ _______ _______ _____ _____    ______ ____
ROOT
ATOM      1  C   UNL     1       2.100   1.851  -5.707  0.00  0.00    +0.017 C 
ATOM      2  C   UNL     1       0.803   1.219  -6.277  0.00  0.00    +0.025 C 
ATOM      3  C   UNL     1      -0.162   2.421  -6.358  0.00  0.00    +0.088 C 
ATOM      4  N   UNL     1       0.326   3.438  -5.410  0.00  0.00    -0.298 NA
ATOM      5  C   UNL     1       1.529   2.910  -4.731  0.00  0.00    +0.085 C 
ATOM      6  C   UNL     1       0.621   4.702  -6.097  0.00  0.00    +0.105 C 
ENDROOT
BRANCH   3   7
ATOM      7  C   UNL     1      -1.554   1.988  -5.976  0.00  0.00    -0.012 A 
ATOM      8  C   UNL     1      -2.586   2.906  -5.938  0.00  0.00    +0.115 A 
ATOM      9  N   UNL     1      -3.807   2.535  -5.605  0.00  0.00    -0.263 NA
ATOM     10  C   UNL     1      -4.092   1.286  -5.296  0.00  0.00    +0.111 A 
ATOM     11  C   UNL     1      -3.111   0.312  -5.312  0.00  0.00    +0.020 A 
ATOM     12  C   UNL     1      -1.817   0.663  -5.663  0.00  0.00    +0.008 A 
ENDBRANCH   3   7
TORSDOF 1
ENDMDL
MODEL 6
REMARK VINA RESULT:    -3.356     12.939     13.966
REMARK INTER + INTRA:          -3.797
REMARK INTER:                  -3.565
REMARK INTRA:                  -0.232
REMARK UNBOUND:                -0.244
REMARK  Name = Nicotine.pdb
REMARK  2 active torsions:
REMARK  status: ('A' for Active; 'I' for Inactive)
REMARK    1  A    between atoms: C_3  and  C_6
REMARK    2  A    between atoms: N_4  and  C_12
REMARK                            x       y       z     vdW  Elec       q    Type
REMARK                         _______ _______ _______ _____ _____    ______ ____
ROOT
ATOM      1  C   UNL     1       1.614   0.663  -6.245  0.00  0.00    +0.017 C 
ATOM      2  C   UNL     1       1.917   1.917  -5.383  0.00  0.00    +0.025 C 
ATOM      3  C   UNL     1       0.521   2.539  -5.172  0.00  0.00    +0.088 C 
ATOM      4  N   UNL     1      -0.346   2.046  -6.257  0.00  0.00    -0.298 NA
ATOM      5  C   UNL     1       0.456   1.171  -7.139  0.00  0.00    +0.085 C 
ATOM      6  C   UNL     1      -1.508   1.328  -5.719  0.00  0.00    +0.105 C 
ENDROOT
BRANCH   3   7
ATOM      7  C   UNL     1       0.614   4.042  -5.232  0.00  0.00    -0.012 A 
ATOM      8  C   UNL     1      -0.530   4.816  -5.193  0.00  0.00    +0.115 A 
ATOM      9  N   UNL     1      -0.457   6.132  -5.245  0.00  0.00    -0.263 NA
ATOM     10  C   UNL     1       0.700   6.758  -5.336  0.00  0.00    +0.111 A 
ATOM     11  C   UNL     1       1.887   6.051  -5.380  0.00  0.00    +0.020 A 
ATOM     12  C   UNL     1       1.849   4.666  -5.322  0.00  0.00    +0.008 A 
ENDBRANCH   3   7
TORSDOF 1
ENDMDL
MODEL 7
REMARK VINA RESULT:    -3.209     12.585     13.917
REMARK INTER + INTRA:          -3.641
REMARK INTER:                  -3.407
REMARK INTRA:                  -0.234
REMARK UNBOUND:                -0.244
REMARK  Name = Nicotine.pdb
REMARK  2 active torsions:
REMARK  status: ('A' for Active; 'I' for Inactive)
REMARK    1  A    between atoms: C_3  and  C_6
REMARK    2  A    between atoms: N_4  and  C_12
REMARK                            x       y       z     vdW  Elec       q    Type
REMARK                         _______ _______ _______ _____ _____    ______ ____
ROOT
ATOM      1  C   UNL     1      -4.002   1.532  -5.255  0.00  0.00    +0.017 C 
ATOM      2  C   UNL     1      -2.766   2.420  -5.559  0.00  0.00    +0.025 C 
ATOM      3  C   UNL     1      -1.854   1.478  -6.372  0.00  0.00    +0.088 C 
ATOM      4  N   UNL     1      -2.252   0.096  -6.048  0.00  0.00    -0.298 NA
ATOM      5  C   UNL     1      -3.347   0.142  -5.056  0.00  0.00    +0.085 C 
ATOM      6  C   UNL     1      -2.665  -0.630  -7.256  0.00  0.00    +0.105 C 
ENDROOT
BRANCH   3   7
ATOM      7  C   UNL     1      -0.414   1.702  -5.989  0.00  0.00    -0.012 A 
ATOM      8  C   UNL     1       0.583   0.904  -6.519  0.00  0.00    +0.115 A 
ATOM      9  N   UNL     1       1.845   1.093  -6.189  0.00  0.00    -0.263 NA
ATOM     10  C   UNL     1       2.207   2.041  -5.347  0.00  0.00    +0.111 A 
ATOM     11  C   UNL     1       1.266   2.878  -4.778  0.00  0.00    +0.020 A 
ATOM     12  C   UNL     1      -0.071   2.713  -5.105  0.00  0.00    +0.008 A 
ENDBRANCH   3   7
TORSDOF 1
ENDMDL
MODEL 8
REMARK VINA RESULT:    -3.184     13.055     13.675
REMARK INTER + INTRA:          -3.614
REMARK INTER:                  -3.426
REMARK INTRA:                  -0.189
REMARK UNBOUND:                -0.244
REMARK  Name = Nicotine.pdb
REMARK  2 active torsions:
REMARK  status: ('A' for Active; 'I' for Inactive)
REMARK    1  A    between atoms: C_3  and  C_6
REMARK    2  A    between atoms: N_4  and  C_12
REMARK                            x       y       z     vdW  Elec       q    Type
REMARK                         _______ _______ _______ _____ _____    ______ ____
ROOT
ATOM      1  C   UNL     1      -0.510   1.972  -5.771  0.00  0.00    +0.017 C 
ATOM      2  C   UNL     1      -0.815   0.563  -6.345  0.00  0.00    +0.025 C 
ATOM      3  C   UNL     1      -2.354   0.484  -6.272  0.00  0.00    +0.088 C 
ATOM      4  N   UNL     1      -2.794   1.454  -5.253  0.00  0.00    -0.298 NA
ATOM      5  C   UNL     1      -1.599   2.107  -4.678  0.00  0.00    +0.085 C 
ATOM      6  C   UNL     1      -3.710   2.446  -5.830  0.00  0.00    +0.105 C 
ENDROOT
BRANCH   3   7
ATOM      7  C   UNL     1      -2.778  -0.906  -5.875  0.00  0.00    -0.012 A 
ATOM      8  C   UNL     1      -1.869  -1.947  -5.894  0.00  0.00    +0.115 A 
ATOM      9  N   UNL     1      -2.232  -3.166  -5.548  0.00  0.00    -0.263 NA
ATOM     10  C   UNL     1      -3.466  -3.442  -5.174  0.00  0.00    +0.111 A 
ATOM     11  C   UNL     1      -4.430  -2.453  -5.129  0.00  0.00    +0.020 A 
ATOM     12  C   UNL     1      -4.084  -1.157  -5.481  0.00  0.00    +0.008 A 
ENDBRANCH   3   7
TORSDOF 1
ENDMDL
MODEL 9
REMARK VINA RESULT:    -3.183     12.943     13.643
REMARK INTER + INTRA:          -3.613
REMARK INTER:                  -3.408
REMARK INTRA:                  -0.206
REMARK UNBOUND:                -0.244
REMARK  Name = Nicotine.pdb
REMARK  2 active torsions:
REMARK  status: ('A' for Active; 'I' for Inactive)
REMARK    1  A    between atoms: C_3  and  C_6
REMARK    2  A    between atoms: N_4  and  C_12
REMARK                            x       y       z     vdW  Elec       q    Type
REMARK                         _______ _______ _______ _____ _____    ______ ____
ROOT
ATOM      1  C   UNL     1       1.946   2.991  -5.381  0.00  0.00    +0.017 C 
ATOM      2  C   UNL     1       0.579   2.886  -4.656  0.00  0.00    +0.025 C 
ATOM      3  C   UNL     1      -0.089   1.679  -5.349  0.00  0.00    +0.088 C 
ATOM      4  N   UNL     1       0.554   1.519  -6.665  0.00  0.00    -0.298 NA
ATOM      5  C   UNL     1       1.567   2.584  -6.827  0.00  0.00    +0.085 C 
ATOM      6  C   UNL     1       1.163   0.189  -6.797  0.00  0.00    +0.105 C 
ENDROOT
BRANCH   3   7
ATOM      7  C   UNL     1      -1.563   1.939  -5.525  0.00  0.00    -0.012 A 
ATOM      8  C   UNL     1      -2.009   3.181  -5.937  0.00  0.00    +0.115 A 
ATOM      9  N   UNL     1      -3.297   3.417  -6.093  0.00  0.00    -0.263 NA
ATOM     10  C   UNL     1      -4.204   2.488  -5.865  0.00  0.00    +0.111 A 
ATOM     11  C   UNL     1      -3.833   1.223  -5.451  0.00  0.00    +0.020 A 
ATOM     12  C   UNL     1      -2.488   0.936  -5.281  0.00  0.00    +0.008 A 
ENDBRANCH   3   7
TORSDOF 1
ENDMDL
MODEL 10
REMARK VINA RESULT:    -3.000     12.767     13.420
REMARK INTER + INTRA:          -3.420
REMARK INTER:                  -3.197
REMARK INTRA:                  -0.224
REMARK UNBOUND:                -0.244
REMARK  Name = Nicotine.pdb
REMARK  2 active torsions:
REMARK  status: ('A' for Active; 'I' for Inactive)
REMARK    1  A    between atoms: C_3  and  C_6
REMARK    2  A    between atoms: N_4  and  C_12
REMARK                            x       y       z     vdW  Elec       q    Type
REMARK                         _______ _______ _______ _____ _____    ______ ____
ROOT
ATOM      1  C   UNL     1       0.153   5.010  -5.632  0.00  0.00    +0.017 C 
ATOM      2  C   UNL     1      -0.999   4.110  -5.114  0.00  0.00    +0.025 C 
ATOM      3  C   UNL     1      -0.320   2.733  -4.956  0.00  0.00    +0.088 C 
ATOM      4  N   UNL     1       0.868   2.729  -5.829  0.00  0.00    -0.298 NA
ATOM      5  C   UNL     1       0.938   4.026  -6.535  0.00  0.00    +0.085 C 
ATOM      6  C   UNL     1       2.091   2.484  -5.054  0.00  0.00    +0.105 C 
ENDROOT
BRANCH   3   7
ATOM      7  C   UNL     1      -1.270   1.641  -5.376  0.00  0.00    -0.012 A 
ATOM      8  C   UNL     1      -0.917   0.754  -6.374  0.00  0.00    +0.115 A 
ATOM      9  N   UNL     1      -1.743  -0.205  -6.747  0.00  0.00    -0.263 NA
ATOM     10  C   UNL     1      -2.928  -0.355  -6.189  0.00  0.00    +0.111 A 
ATOM     11  C   UNL     1      -3.349   0.495  -5.184  0.00  0.00    +0.020 A 
ATOM     12  C   UNL     1      -2.506   1.511  -4.761  0.00  0.00    +0.008 A 
ENDBRANCH   3   7
TORSDOF 1
ENDMDL
