MODEL 1
REMARK VINA RESULT:     7.467      0.000      0.000
REMARK INTER + INTRA:           7.656
REMARK INTER:                   7.903
REMARK INTRA:                  -0.247
REMARK UNBOUND:                -0.247
REMARK  Name = Nicotine.pdb
REMARK  2 active torsions:
REMARK  status: ('A' for Active; 'I' for Inactive)
REMARK    1  A    between atoms: C_3  and  C_6
REMARK    2  A    between atoms: N_4  and  C_12
REMARK                            x       y       z     vdW  Elec       q    Type
REMARK                         _______ _______ _______ _____ _____    ______ ____
ROOT
ATOM      1  C   UNL     1      10.578   2.510   6.213  0.00  0.00    +0.017 C 
ATOM      2  C   UNL     1      10.947   2.136   4.754  0.00  0.00    +0.025 C 
ATOM      3  C   UNL     1      10.954   3.503   4.036  0.00  0.00    +0.088 C 
ATOM      4  N   UNL     1      10.121   4.420   4.836  0.00  0.00    -0.298 NA
ATOM      5  C   UNL     1       9.583   3.677   5.995  0.00  0.00    +0.085 C 
ATOM      6  C   UNL     1      10.895   5.589   5.272  0.00  0.00    +0.105 C 
ENDROOT
BRANCH   3   7
ATOM      7  C   UNL     1      10.376   3.359   2.652  0.00  0.00    -0.012 A 
ATOM      8  C   UNL     1      10.952   4.018   1.582  0.00  0.00    +0.115 A 
ATOM      9  N   UNL     1      10.453   3.897   0.368  0.00  0.00    -0.263 NA
ATOM     10  C   UNL     1       9.394   3.150   0.125  0.00  0.00    +0.111 A 
ATOM     11  C   UNL     1       8.765   2.461   1.145  0.00  0.00    +0.020 A 
ATOM     12  C   UNL     1       9.264   2.560   2.435  0.00  0.00    +0.008 A 
ENDBRANCH   3   7
TORSDOF 1
ENDMDL
