MODEL 1
REMARK VINA RESULT:    -4.392      0.000      0.000
REMARK INTER + INTRA:          -4.869
REMARK INTER:                  -4.648
REMARK INTRA:                  -0.221
REMARK UNBOUND:                -0.221
REMARK  Name = Nicotine.pdb
REMARK  2 active torsions:
REMARK  status: ('A' for Active; 'I' for Inactive)
REMARK    1  A    between atoms: C_3  and  C_6
REMARK    2  A    between atoms: N_4  and  C_12
REMARK                            x       y       z     vdW  Elec       q    Type
REMARK                         _______ _______ _______ _____ _____    ______ ____
ROOT
ATOM      1  C   UNL     1      -4.394  -0.687   3.921  0.00  0.00    +0.017 C 
ATOM      2  C   UNL     1      -2.945  -0.786   3.377  0.00  0.00    +0.025 C 
ATOM      3  C   UNL     1      -2.642   0.660   2.929  0.00  0.00    +0.088 C 
ATOM      4  N   UNL     1      -3.936   1.326   2.698  0.00  0.00    -0.298 NA
ATOM      5  C   UNL     1      -5.019   0.353   2.957  0.00  0.00    +0.085 C 
ATOM      6  C   UNL     1      -4.079   2.512   3.552  0.00  0.00    +0.105 C 
ENDROOT
BRANCH   3   7
ATOM      7  C   UNL     1      -1.837   0.644   1.656  0.00  0.00    -0.012 A 
ATOM      8  C   UNL     1      -2.204   1.440   0.587  0.00  0.00    +0.115 A 
ATOM      9  N   UNL     1      -1.506   1.433  -0.531  0.00  0.00    -0.263 NA
ATOM     10  C   UNL     1      -0.438   0.673  -0.676  0.00  0.00    +0.111 A 
ATOM     11  C   UNL     1      -0.010  -0.149   0.349  0.00  0.00    +0.020 A 
ATOM     12  C   UNL     1      -0.716  -0.164   1.542  0.00  0.00    +0.008 A 
ENDBRANCH   3   7
TORSDOF 1
ENDMDL
MODEL 2
REMARK VINA RESULT:    -4.311      1.472      4.671
REMARK INTER + INTRA:          -4.784
REMARK INTER:                  -4.568
REMARK INTRA:                  -0.216
REMARK UNBOUND:                -0.221
REMARK  Name = Nicotine.pdb
REMARK  2 active torsions:
REMARK  status: ('A' for Active; 'I' for Inactive)
REMARK    1  A    between atoms: C_3  and  C_6
REMARK    2  A    between atoms: N_4  and  C_12
REMARK                            x       y       z     vdW  Elec       q    Type
REMARK                         _______ _______ _______ _____ _____    ______ ____
ROOT
ATOM      1  C   UNL     1      -0.928   1.125  -0.256  0.00  0.00    +0.017 C 
ATOM      2  C   UNL     1      -2.176   1.402   0.623  0.00  0.00    +0.025 C 
ATOM      3  C   UNL     1      -1.716   0.961   2.029  0.00  0.00    +0.088 C 
ATOM      4  N   UNL     1      -0.598   0.018   1.846  0.00  0.00    -0.298 NA
ATOM      5  C   UNL     1      -0.365  -0.162   0.397  0.00  0.00    +0.085 C 
ATOM      6  C   UNL     1       0.615   0.502   2.518  0.00  0.00    +0.105 C 
ENDROOT
BRANCH   3   7
ATOM      7  C   UNL     1      -2.850   0.280   2.750  0.00  0.00    -0.012 A 
ATOM      8  C   UNL     1      -2.597  -0.752   3.633  0.00  0.00    +0.115 A 
ATOM      9  N   UNL     1      -3.584  -1.354   4.268  0.00  0.00    -0.263 NA
ATOM     10  C   UNL     1      -4.841  -0.999   4.089  0.00  0.00    +0.111 A 
ATOM     11  C   UNL     1      -5.171   0.025   3.221  0.00  0.00    +0.020 A 
ATOM     12  C   UNL     1      -4.159   0.684   2.540  0.00  0.00    +0.008 A 
ENDBRANCH   3   7
TORSDOF 1
ENDMDL
MODEL 3
REMARK VINA RESULT:    -4.271      0.807      1.373
REMARK INTER + INTRA:          -4.741
REMARK INTER:                  -4.542
REMARK INTRA:                  -0.199
REMARK UNBOUND:                -0.221
REMARK  Name = Nicotine.pdb
REMARK  2 active torsions:
REMARK  status: ('A' for Active; 'I' for Inactive)
REMARK    1  A    between atoms: C_3  and  C_6
REMARK    2  A    between atoms: N_4  and  C_12
REMARK                            x       y       z     vdW  Elec       q    Type
REMARK                         _______ _______ _______ _____ _____    ______ ____
ROOT
ATOM      1  C   UNL     1      -4.471  -0.653   3.934  0.00  0.00    +0.017 C 
ATOM      2  C   UNL     1      -3.005  -0.764   3.439  0.00  0.00    +0.025 C 
ATOM      3  C   UNL     1      -2.677   0.678   2.998  0.00  0.00    +0.088 C 
ATOM      4  N   UNL     1      -3.959   1.352   2.721  0.00  0.00    -0.298 NA
ATOM      5  C   UNL     1      -5.056   0.387   2.947  0.00  0.00    +0.085 C 
ATOM      6  C   UNL     1      -4.122   2.542   3.566  0.00  0.00    +0.105 C 
ENDROOT
BRANCH   3   7
ATOM      7  C   UNL     1      -1.831   0.653   1.752  0.00  0.00    -0.012 A 
ATOM      8  C   UNL     1      -0.756  -0.210   1.654  0.00  0.00    +0.115 A 
ATOM      9  N   UNL     1      -0.010  -0.239   0.567  0.00  0.00    -0.263 NA
ATOM     10  C   UNL     1      -0.254   0.548  -0.462  0.00  0.00    +0.111 A 
ATOM     11  C   UNL     1      -1.312   1.438  -0.437  0.00  0.00    +0.020 A 
ATOM     12  C   UNL     1      -2.122   1.492   0.687  0.00  0.00    +0.008 A 
ENDBRANCH   3   7
TORSDOF 1
ENDMDL
MODEL 4
REMARK VINA RESULT:    -4.112      1.800      2.244
REMARK INTER + INTRA:          -4.574
REMARK INTER:                  -4.344
REMARK INTRA:                  -0.230
REMARK UNBOUND:                -0.221
REMARK  Name = Nicotine.pdb
REMARK  2 active torsions:
REMARK  status: ('A' for Active; 'I' for Inactive)
REMARK    1  A    between atoms: C_3  and  C_6
REMARK    2  A    between atoms: N_4  and  C_12
REMARK                            x       y       z     vdW  Elec       q    Type
REMARK                         _______ _______ _______ _____ _____    ______ ____
ROOT
ATOM      1  C   UNL     1      -5.008  -1.290   4.739  0.00  0.00    +0.017 C 
ATOM      2  C   UNL     1      -3.466  -1.415   4.862  0.00  0.00    +0.025 C 
ATOM      3  C   UNL     1      -2.953  -0.281   3.948  0.00  0.00    +0.088 C 
ATOM      4  N   UNL     1      -4.030   0.031   2.992  0.00  0.00    -0.298 NA
ATOM      5  C   UNL     1      -5.171  -0.872   3.257  0.00  0.00    +0.085 C 
ATOM      6  C   UNL     1      -4.436   1.439   3.097  0.00  0.00    +0.105 C 
ENDROOT
BRANCH   3   7
ATOM      7  C   UNL     1      -1.724  -0.738   3.206  0.00  0.00    -0.012 A 
ATOM      8  C   UNL     1      -1.177   0.047   2.208  0.00  0.00    +0.115 A 
ATOM      9  N   UNL     1      -0.102  -0.345   1.554  0.00  0.00    -0.263 NA
ATOM     10  C   UNL     1       0.492  -1.491   1.821  0.00  0.00    +0.111 A 
ATOM     11  C   UNL     1       0.003  -2.329   2.806  0.00  0.00    +0.020 A 
ATOM     12  C   UNL     1      -1.123  -1.948   3.518  0.00  0.00    +0.008 A 
ENDBRANCH   3   7
TORSDOF 1
ENDMDL
MODEL 5
REMARK VINA RESULT:    -3.941      2.345      4.632
REMARK INTER + INTRA:          -4.392
REMARK INTER:                  -4.170
REMARK INTRA:                  -0.222
REMARK UNBOUND:                -0.221
REMARK  Name = Nicotine.pdb
REMARK  2 active torsions:
REMARK  status: ('A' for Active; 'I' for Inactive)
REMARK    1  A    between atoms: C_3  and  C_6
REMARK    2  A    between atoms: N_4  and  C_12
REMARK                            x       y       z     vdW  Elec       q    Type
REMARK                         _______ _______ _______ _____ _____    ______ ____
ROOT
ATOM      1  C   UNL     1      -0.084  -2.234   5.619  0.00  0.00    +0.017 C 
ATOM      2  C   UNL     1      -1.621  -2.124   5.443  0.00  0.00    +0.025 C 
ATOM      3  C   UNL     1      -1.787  -1.983   3.915  0.00  0.00    +0.088 C 
ATOM      4  N   UNL     1      -0.508  -1.481   3.382  0.00  0.00    -0.298 NA
ATOM      5  C   UNL     1       0.427  -1.282   4.509  0.00  0.00    +0.085 C 
ATOM      6  C   UNL     1       0.051  -2.410   2.391  0.00  0.00    +0.105 C 
ENDROOT
BRANCH   3   7
ATOM      7  C   UNL     1      -2.891  -1.006   3.607  0.00  0.00    -0.012 A 
ATOM      8  C   UNL     1      -2.626   0.146   2.891  0.00  0.00    +0.115 A 
ATOM      9  N   UNL     1      -3.588   1.006   2.617  0.00  0.00    -0.263 NA
ATOM     10  C   UNL     1      -4.830   0.807   3.011  0.00  0.00    +0.111 A 
ATOM     11  C   UNL     1      -5.170  -0.323   3.731  0.00  0.00    +0.020 A 
ATOM     12  C   UNL     1      -4.187  -1.253   4.034  0.00  0.00    +0.008 A 
ENDBRANCH   3   7
TORSDOF 1
ENDMDL
MODEL 6
REMARK VINA RESULT:    -3.766      1.428      2.436
REMARK INTER + INTRA:          -4.207
REMARK INTER:                  -3.983
REMARK INTRA:                  -0.224
REMARK UNBOUND:                -0.221
REMARK  Name = Nicotine.pdb
REMARK  2 active torsions:
REMARK  status: ('A' for Active; 'I' for Inactive)
REMARK    1  A    between atoms: C_3  and  C_6
REMARK    2  A    between atoms: N_4  and  C_12
REMARK                            x       y       z     vdW  Elec       q    Type
REMARK                         _______ _______ _______ _____ _____    ______ ____
ROOT
ATOM      1  C   UNL     1      -4.126   1.962   4.841  0.00  0.00    +0.017 C 
ATOM      2  C   UNL     1      -3.819   2.093   3.326  0.00  0.00    +0.025 C 
ATOM      3  C   UNL     1      -3.454   0.649   2.920  0.00  0.00    +0.088 C 
ATOM      4  N   UNL     1      -3.031  -0.055   4.144  0.00  0.00    -0.298 NA
ATOM      5  C   UNL     1      -3.094   0.892   5.278  0.00  0.00    +0.085 C 
ATOM      6  C   UNL     1      -3.873  -1.232   4.393  0.00  0.00    +0.105 C 
ENDROOT
BRANCH   3   7
ATOM      7  C   UNL     1      -2.326   0.667   1.921  0.00  0.00    -0.012 A 
ATOM      8  C   UNL     1      -1.183  -0.077   2.145  0.00  0.00    +0.115 A 
ATOM      9  N   UNL     1      -0.190  -0.067   1.276  0.00  0.00    -0.263 NA
ATOM     10  C   UNL     1      -0.246   0.646   0.169  0.00  0.00    +0.111 A 
ATOM     11  C   UNL     1      -1.358   1.415  -0.123  0.00  0.00    +0.020 A 
ATOM     12  C   UNL     1      -2.423   1.425   0.765  0.00  0.00    +0.008 A 
ENDBRANCH   3   7
TORSDOF 1
ENDMDL
MODEL 7
REMARK VINA RESULT:    -3.735      1.285      4.401
REMARK INTER + INTRA:          -4.174
REMARK INTER:                  -3.989
REMARK INTRA:                  -0.185
REMARK UNBOUND:                -0.221
REMARK  Name = Nicotine.pdb
REMARK  2 active torsions:
REMARK  status: ('A' for Active; 'I' for Inactive)
REMARK    1  A    between atoms: C_3  and  C_6
REMARK    2  A    between atoms: N_4  and  C_12
REMARK                            x       y       z     vdW  Elec       q    Type
REMARK                         _______ _______ _______ _____ _____    ______ ____
ROOT
ATOM      1  C   UNL     1      -0.565   2.946   1.488  0.00  0.00    +0.017 C 
ATOM      2  C   UNL     1      -1.249   2.316   2.730  0.00  0.00    +0.025 C 
ATOM      3  C   UNL     1      -1.428   0.840   2.317  0.00  0.00    +0.088 C 
ATOM      4  N   UNL     1      -1.403   0.793   0.844  0.00  0.00    -0.298 NA
ATOM      5  C   UNL     1      -1.242   2.170   0.331  0.00  0.00    +0.085 C 
ATOM      6  C   UNL     1      -0.323  -0.078   0.363  0.00  0.00    +0.105 C 
ENDROOT
BRANCH   3   7
ATOM      7  C   UNL     1      -2.749   0.322   2.825  0.00  0.00    -0.012 A 
ATOM      8  C   UNL     1      -3.926   0.965   2.493  0.00  0.00    +0.115 A 
ATOM      9  N   UNL     1      -5.086   0.519   2.934  0.00  0.00    -0.263 NA
ATOM     10  C   UNL     1      -5.171  -0.549   3.703  0.00  0.00    +0.111 A 
ATOM     11  C   UNL     1      -4.036  -1.245   4.076  0.00  0.00    +0.020 A 
ATOM     12  C   UNL     1      -2.799  -0.808   3.627  0.00  0.00    +0.008 A 
ENDBRANCH   3   7
TORSDOF 1
ENDMDL
MODEL 8
REMARK VINA RESULT:    -3.599      1.783      4.543
REMARK INTER + INTRA:          -4.030
REMARK INTER:                  -3.828
REMARK INTRA:                  -0.201
REMARK UNBOUND:                -0.221
REMARK  Name = Nicotine.pdb
REMARK  2 active torsions:
REMARK  status: ('A' for Active; 'I' for Inactive)
REMARK    1  A    between atoms: C_3  and  C_6
REMARK    2  A    between atoms: N_4  and  C_12
REMARK                            x       y       z     vdW  Elec       q    Type
REMARK                         _______ _______ _______ _____ _____    ______ ____
ROOT
ATOM      1  C   UNL     1       0.138   1.974   2.776  0.00  0.00    +0.017 C 
ATOM      2  C   UNL     1      -0.490   0.682   3.362  0.00  0.00    +0.025 C 
ATOM      3  C   UNL     1      -1.630   0.370   2.370  0.00  0.00    +0.088 C 
ATOM      4  N   UNL     1      -1.969   1.629   1.683  0.00  0.00    -0.298 NA
ATOM      5  C   UNL     1      -1.110   2.705   2.221  0.00  0.00    +0.085 C 
ATOM      6  C   UNL     1      -1.801   1.498   0.230  0.00  0.00    +0.105 C 
ENDROOT
BRANCH   3   7
ATOM      7  C   UNL     1      -2.832  -0.148   3.117  0.00  0.00    -0.012 A 
ATOM      8  C   UNL     1      -2.689  -1.137   4.072  0.00  0.00    +0.115 A 
ATOM      9  N   UNL     1      -3.736  -1.595   4.730  0.00  0.00    -0.263 NA
ATOM     10  C   UNL     1      -4.951  -1.134   4.509  0.00  0.00    +0.111 A 
ATOM     11  C   UNL     1      -5.171  -0.144   3.569  0.00  0.00    +0.020 A 
ATOM     12  C   UNL     1      -4.094   0.366   2.861  0.00  0.00    +0.008 A 
ENDBRANCH   3   7
TORSDOF 1
ENDMDL
MODEL 9
REMARK VINA RESULT:    -3.516      2.990      5.367
REMARK INTER + INTRA:          -3.942
REMARK INTER:                  -3.757
REMARK INTRA:                  -0.185
REMARK UNBOUND:                -0.221
REMARK  Name = Nicotine.pdb
REMARK  2 active torsions:
REMARK  status: ('A' for Active; 'I' for Inactive)
REMARK    1  A    between atoms: C_3  and  C_6
REMARK    2  A    between atoms: N_4  and  C_12
REMARK                            x       y       z     vdW  Elec       q    Type
REMARK                         _______ _______ _______ _____ _____    ______ ____
ROOT
ATOM      1  C   UNL     1       2.545  -1.747   4.034  0.00  0.00    +0.017 C 
ATOM      2  C   UNL     1       1.130  -1.911   4.649  0.00  0.00    +0.025 C 
ATOM      3  C   UNL     1       0.273  -2.338   3.439  0.00  0.00    +0.088 C 
ATOM      4  N   UNL     1       0.978  -1.889   2.224  0.00  0.00    -0.298 NA
ATOM      5  C   UNL     1       2.213  -1.184   2.630  0.00  0.00    +0.085 C 
ATOM      6  C   UNL     1       1.283  -3.023   1.342  0.00  0.00    +0.105 C 
ENDROOT
BRANCH   3   7
ATOM      7  C   UNL     1      -1.084  -1.688   3.516  0.00  0.00    -0.012 A 
ATOM      8  C   UNL     1      -1.335  -0.512   2.834  0.00  0.00    +0.115 A 
ATOM      9  N   UNL     1      -2.520   0.064   2.896  0.00  0.00    -0.263 NA
ATOM     10  C   UNL     1      -3.505  -0.452   3.605  0.00  0.00    +0.111 A 
ATOM     11  C   UNL     1      -3.328  -1.626   4.313  0.00  0.00    +0.020 A 
ATOM     12  C   UNL     1      -2.097  -2.263   4.267  0.00  0.00    +0.008 A 
ENDBRANCH   3   7
TORSDOF 1
ENDMDL
MODEL 10
REMARK VINA RESULT:    -3.402      1.959      4.711
REMARK INTER + INTRA:          -3.821
REMARK INTER:                  -3.626
REMARK INTRA:                  -0.195
REMARK UNBOUND:                -0.221
REMARK  Name = Nicotine.pdb
REMARK  2 active torsions:
REMARK  status: ('A' for Active; 'I' for Inactive)
REMARK    1  A    between atoms: C_3  and  C_6
REMARK    2  A    between atoms: N_4  and  C_12
REMARK                            x       y       z     vdW  Elec       q    Type
REMARK                         _______ _______ _______ _____ _____    ______ ____
ROOT
ATOM      1  C   UNL     1       2.131  -0.133   1.662  0.00  0.00    +0.017 C 
ATOM      2  C   UNL     1       1.014   0.388   2.604  0.00  0.00    +0.025 C 
ATOM      3  C   UNL     1      -0.016  -0.762   2.588  0.00  0.00    +0.088 C 
ATOM      4  N   UNL     1       0.209  -1.534   1.353  0.00  0.00    -0.298 NA
ATOM      5  C   UNL     1       1.310  -0.901   0.596  0.00  0.00    +0.085 C 
ATOM      6  C   UNL     1       0.518  -2.937   1.658  0.00  0.00    +0.105 C 
ENDROOT
BRANCH   3   7
ATOM      7  C   UNL     1      -1.414  -0.198   2.594  0.00  0.00    -0.012 A 
ATOM      8  C   UNL     1      -1.772   0.793   1.700  0.00  0.00    +0.115 A 
ATOM      9  N   UNL     1      -2.993   1.291   1.699  0.00  0.00    -0.263 NA
ATOM     10  C   UNL     1      -3.914   0.870   2.542  0.00  0.00    +0.111 A 
ATOM     11  C   UNL     1      -3.630  -0.119   3.465  0.00  0.00    +0.020 A 
ATOM     12  C   UNL     1      -2.358  -0.671   3.493  0.00  0.00    +0.008 A 
ENDBRANCH   3   7
TORSDOF 1
ENDMDL
