MODEL 1
REMARK VINA RESULT:    -1.602      0.000      0.000
REMARK INTER + INTRA:          -1.881
REMARK INTER:                  -1.695
REMARK INTRA:                  -0.186
REMARK UNBOUND:                -0.186
REMARK  Name = Nicotine.pdb
REMARK  2 active torsions:
REMARK  status: ('A' for Active; 'I' for Inactive)
REMARK    1  A    between atoms: C_3  and  C_6
REMARK    2  A    between atoms: N_4  and  C_12
REMARK                            x       y       z     vdW  Elec       q    Type
REMARK                         _______ _______ _______ _____ _____    ______ ____
ROOT
ATOM      1  C   UNL     1       7.361   1.273  -6.230  0.00  0.00    +0.017 C 
ATOM      2  C   UNL     1       8.518   2.226  -5.830  0.00  0.00    +0.025 C 
ATOM      3  C   UNL     1       7.821   3.601  -5.742  0.00  0.00    +0.088 C 
ATOM      4  N   UNL     1       6.597   3.523  -6.559  0.00  0.00    -0.298 NA
ATOM      5  C   UNL     1       6.521   2.177  -7.166  0.00  0.00    +0.085 C 
ATOM      6  C   UNL     1       5.404   3.805  -5.750  0.00  0.00    +0.105 C 
ENDROOT
BRANCH   3   7
ATOM      7  C   UNL     1       8.732   4.673  -6.280  0.00  0.00    -0.012 A 
ATOM      8  C   UNL     1      10.088   4.438  -6.411  0.00  0.00    +0.115 A 
ATOM      9  N   UNL     1      10.892   5.372  -6.882  0.00  0.00    -0.263 NA
ATOM     10  C   UNL     1      10.441   6.556  -7.244  0.00  0.00    +0.111 A 
ATOM     11  C   UNL     1       9.097   6.864  -7.143  0.00  0.00    +0.020 A 
ATOM     12  C   UNL     1       8.220   5.906  -6.657  0.00  0.00    +0.008 A 
ENDBRANCH   3   7
TORSDOF 1
ENDMDL
MODEL 2
REMARK VINA RESULT:    -1.586      1.307      2.029
REMARK INTER + INTRA:          -1.865
REMARK INTER:                  -1.632
REMARK INTRA:                  -0.233
REMARK UNBOUND:                -0.186
REMARK  Name = Nicotine.pdb
REMARK  2 active torsions:
REMARK  status: ('A' for Active; 'I' for Inactive)
REMARK    1  A    between atoms: C_3  and  C_6
REMARK    2  A    between atoms: N_4  and  C_12
REMARK                            x       y       z     vdW  Elec       q    Type
REMARK                         _______ _______ _______ _____ _____    ______ ____
ROOT
ATOM      1  C   UNL     1       6.613   1.913  -6.004  0.00  0.00    +0.017 C 
ATOM      2  C   UNL     1       7.040   3.025  -6.997  0.00  0.00    +0.025 C 
ATOM      3  C   UNL     1       8.580   3.015  -6.888  0.00  0.00    +0.088 C 
ATOM      4  N   UNL     1       8.922   2.412  -5.587  0.00  0.00    -0.298 NA
ATOM      5  C   UNL     1       7.668   2.074  -4.881  0.00  0.00    +0.085 C 
ATOM      6  C   UNL     1       9.765   1.222  -5.764  0.00  0.00    +0.105 C 
ENDROOT
BRANCH   3   7
ATOM      7  C   UNL     1       9.108   4.425  -6.955  0.00  0.00    -0.012 A 
ATOM      8  C   UNL     1      10.454   4.677  -6.773  0.00  0.00    +0.115 A 
ATOM      9  N   UNL     1      10.925   5.908  -6.830  0.00  0.00    -0.263 NA
ATOM     10  C   UNL     1      10.138   6.940  -7.062  0.00  0.00    +0.111 A 
ATOM     11  C   UNL     1       8.780   6.766  -7.255  0.00  0.00    +0.020 A 
ATOM     12  C   UNL     1       8.251   5.485  -7.207  0.00  0.00    +0.008 A 
ENDBRANCH   3   7
TORSDOF 1
ENDMDL
MODEL 3
REMARK VINA RESULT:    -1.561      1.236      1.573
REMARK INTER + INTRA:          -1.838
REMARK INTER:                  -1.623
REMARK INTRA:                  -0.215
REMARK UNBOUND:                -0.186
REMARK  Name = Nicotine.pdb
REMARK  2 active torsions:
REMARK  status: ('A' for Active; 'I' for Inactive)
REMARK    1  A    between atoms: C_3  and  C_6
REMARK    2  A    between atoms: N_4  and  C_12
REMARK                            x       y       z     vdW  Elec       q    Type
REMARK                         _______ _______ _______ _____ _____    ______ ____
ROOT
ATOM      1  C   UNL     1       9.779   1.169  -5.119  0.00  0.00    +0.017 C 
ATOM      2  C   UNL     1      10.236   2.627  -4.851  0.00  0.00    +0.025 C 
ATOM      3  C   UNL     1       8.974   3.452  -5.177  0.00  0.00    +0.088 C 
ATOM      4  N   UNL     1       8.135   2.633  -6.071  0.00  0.00    -0.298 NA
ATOM      5  C   UNL     1       8.831   1.355  -6.330  0.00  0.00    +0.085 C 
ATOM      6  C   UNL     1       6.809   2.401  -5.483  0.00  0.00    +0.105 C 
ENDROOT
BRANCH   3   7
ATOM      7  C   UNL     1       9.363   4.733  -5.869  0.00  0.00    -0.012 A 
ATOM      8  C   UNL     1      10.605   4.858  -6.462  0.00  0.00    +0.115 A 
ATOM      9  N   UNL     1      10.953   5.975  -7.070  0.00  0.00    -0.263 NA
ATOM     10  C   UNL     1      10.140   7.011  -7.136  0.00  0.00    +0.111 A 
ATOM     11  C   UNL     1       8.882   6.960  -6.566  0.00  0.00    +0.020 A 
ATOM     12  C   UNL     1       8.478   5.800  -5.923  0.00  0.00    +0.008 A 
ENDBRANCH   3   7
TORSDOF 1
ENDMDL
MODEL 4
REMARK VINA RESULT:    -1.509      1.816      2.394
REMARK INTER + INTRA:          -1.784
REMARK INTER:                  -1.581
REMARK INTRA:                  -0.203
REMARK UNBOUND:                -0.186
REMARK  Name = Nicotine.pdb
REMARK  2 active torsions:
REMARK  status: ('A' for Active; 'I' for Inactive)
REMARK    1  A    between atoms: C_3  and  C_6
REMARK    2  A    between atoms: N_4  and  C_12
REMARK                            x       y       z     vdW  Elec       q    Type
REMARK                         _______ _______ _______ _____ _____    ______ ____
ROOT
ATOM      1  C   UNL     1      10.123   0.840  -6.327  0.00  0.00    +0.017 C 
ATOM      2  C   UNL     1      10.785   2.233  -6.490  0.00  0.00    +0.025 C 
ATOM      3  C   UNL     1       9.966   3.121  -5.528  0.00  0.00    +0.088 C 
ATOM      4  N   UNL     1       8.666   2.459  -5.323  0.00  0.00    -0.298 NA
ATOM      5  C   UNL     1       8.635   1.221  -6.131  0.00  0.00    +0.085 C 
ATOM      6  C   UNL     1       8.441   2.166  -3.902  0.00  0.00    +0.105 C 
ENDROOT
BRANCH   3   7
ATOM      7  C   UNL     1       9.759   4.483  -6.139  0.00  0.00    -0.012 A 
ATOM      8  C   UNL     1       8.524   4.842  -6.645  0.00  0.00    +0.115 A 
ATOM      9  N   UNL     1       8.335   6.032  -7.181  0.00  0.00    -0.263 NA
ATOM     10  C   UNL     1       9.306   6.920  -7.256  0.00  0.00    +0.111 A 
ATOM     11  C   UNL     1      10.568   6.633  -6.770  0.00  0.00    +0.020 A 
ATOM     12  C   UNL     1      10.803   5.394  -6.195  0.00  0.00    +0.008 A 
ENDBRANCH   3   7
TORSDOF 1
ENDMDL
MODEL 5
REMARK VINA RESULT:    -1.268      1.858      2.921
REMARK INTER + INTRA:          -1.529
REMARK INTER:                  -1.281
REMARK INTRA:                  -0.248
REMARK UNBOUND:                -0.186
REMARK  Name = Nicotine.pdb
REMARK  2 active torsions:
REMARK  status: ('A' for Active; 'I' for Inactive)
REMARK    1  A    between atoms: C_3  and  C_6
REMARK    2  A    between atoms: N_4  and  C_12
REMARK                            x       y       z     vdW  Elec       q    Type
REMARK                         _______ _______ _______ _____ _____    ______ ____
ROOT
ATOM      1  C   UNL     1       5.009   2.216  -5.285  0.00  0.00    +0.017 C 
ATOM      2  C   UNL     1       6.503   2.073  -4.891  0.00  0.00    +0.025 C 
ATOM      3  C   UNL     1       7.175   3.236  -5.652  0.00  0.00    +0.088 C 
ATOM      4  N   UNL     1       6.289   3.595  -6.773  0.00  0.00    -0.298 NA
ATOM      5  C   UNL     1       5.117   2.694  -6.755  0.00  0.00    +0.085 C 
ATOM      6  C   UNL     1       5.874   5.001  -6.687  0.00  0.00    +0.105 C 
ENDROOT
BRANCH   3   7
ATOM      7  C   UNL     1       8.517   2.796  -6.178  0.00  0.00    -0.012 A 
ATOM      8  C   UNL     1       9.362   3.706  -6.785  0.00  0.00    +0.115 A 
ATOM      9  N   UNL     1      10.538   3.330  -7.248  0.00  0.00    -0.263 NA
ATOM     10  C   UNL     1      10.954   2.082  -7.152  0.00  0.00    +0.111 A 
ATOM     11  C   UNL     1      10.164   1.117  -6.556  0.00  0.00    +0.020 A 
ATOM     12  C   UNL     1       8.923   1.476  -6.053  0.00  0.00    +0.008 A 
ENDBRANCH   3   7
TORSDOF 1
ENDMDL
MODEL 6
REMARK VINA RESULT:    -1.240      1.186      1.965
REMARK INTER + INTRA:          -1.499
REMARK INTER:                  -1.275
REMARK INTRA:                  -0.224
REMARK UNBOUND:                -0.186
REMARK  Name = Nicotine.pdb
REMARK  2 active torsions:
REMARK  status: ('A' for Active; 'I' for Inactive)
REMARK    1  A    between atoms: C_3  and  C_6
REMARK    2  A    between atoms: N_4  and  C_12
REMARK                            x       y       z     vdW  Elec       q    Type
REMARK                         _______ _______ _______ _____ _____    ______ ____
ROOT
ATOM      1  C   UNL     1       5.947   2.973  -3.942  0.00  0.00    +0.017 C 
ATOM      2  C   UNL     1       6.239   4.199  -4.848  0.00  0.00    +0.025 C 
ATOM      3  C   UNL     1       7.009   3.579  -6.033  0.00  0.00    +0.088 C 
ATOM      4  N   UNL     1       7.585   2.306  -5.563  0.00  0.00    -0.298 NA
ATOM      5  C   UNL     1       7.229   2.126  -4.139  0.00  0.00    +0.085 C 
ATOM      6  C   UNL     1       7.105   1.179  -6.373  0.00  0.00    +0.105 C 
ENDROOT
BRANCH   3   7
ATOM      7  C   UNL     1       8.109   4.510  -6.474  0.00  0.00    -0.012 A 
ATOM      8  C   UNL     1       9.419   4.073  -6.513  0.00  0.00    +0.115 A 
ATOM      9  N   UNL     1      10.388   4.882  -6.897  0.00  0.00    -0.263 NA
ATOM     10  C   UNL     1      10.150   6.127  -7.256  0.00  0.00    +0.111 A 
ATOM     11  C   UNL     1       8.864   6.634  -7.243  0.00  0.00    +0.020 A 
ATOM     12  C   UNL     1       7.819   5.812  -6.850  0.00  0.00    +0.008 A 
ENDBRANCH   3   7
TORSDOF 1
ENDMDL
MODEL 7
REMARK VINA RESULT:    -1.235      1.408      2.065
REMARK INTER + INTRA:          -1.493
REMARK INTER:                  -1.270
REMARK INTRA:                  -0.223
REMARK UNBOUND:                -0.186
REMARK  Name = Nicotine.pdb
REMARK  2 active torsions:
REMARK  status: ('A' for Active; 'I' for Inactive)
REMARK    1  A    between atoms: C_3  and  C_6
REMARK    2  A    between atoms: N_4  and  C_12
REMARK                            x       y       z     vdW  Elec       q    Type
REMARK                         _______ _______ _______ _____ _____    ______ ____
ROOT
ATOM      1  C   UNL     1       5.435   4.338  -4.246  0.00  0.00    +0.017 C 
ATOM      2  C   UNL     1       6.312   5.497  -4.790  0.00  0.00    +0.025 C 
ATOM      3  C   UNL     1       6.693   5.009  -6.204  0.00  0.00    +0.088 C 
ATOM      4  N   UNL     1       6.555   3.542  -6.213  0.00  0.00    -0.298 NA
ATOM      5  C   UNL     1       6.132   3.101  -4.867  0.00  0.00    +0.085 C 
ATOM      6  C   UNL     1       5.593   3.109  -7.235  0.00  0.00    +0.105 C 
ENDROOT
BRANCH   3   7
ATOM      7  C   UNL     1       8.117   5.393  -6.512  0.00  0.00    -0.012 A 
ATOM      8  C   UNL     1       9.048   4.424  -6.836  0.00  0.00    +0.115 A 
ATOM      9  N   UNL     1      10.297   4.751  -7.107  0.00  0.00    -0.263 NA
ATOM     10  C   UNL     1      10.706   6.004  -7.081  0.00  0.00    +0.111 A 
ATOM     11  C   UNL     1       9.832   7.027  -6.766  0.00  0.00    +0.020 A 
ATOM     12  C   UNL     1       8.510   6.722  -6.480  0.00  0.00    +0.008 A 
ENDBRANCH   3   7
TORSDOF 1
ENDMDL
MODEL 8
REMARK VINA RESULT:    -1.099      1.989      2.763
REMARK INTER + INTRA:          -1.350
REMARK INTER:                  -1.136
REMARK INTRA:                  -0.214
REMARK UNBOUND:                -0.186
REMARK  Name = Nicotine.pdb
REMARK  2 active torsions:
REMARK  status: ('A' for Active; 'I' for Inactive)
REMARK    1  A    between atoms: C_3  and  C_6
REMARK    2  A    between atoms: N_4  and  C_12
REMARK                            x       y       z     vdW  Elec       q    Type
REMARK                         _______ _______ _______ _____ _____    ______ ____
ROOT
ATOM      1  C   UNL     1       6.847   1.624  -4.837  0.00  0.00    +0.017 C 
ATOM      2  C   UNL     1       7.703   2.409  -5.865  0.00  0.00    +0.025 C 
ATOM      3  C   UNL     1       9.100   2.430  -5.209  0.00  0.00    +0.088 C 
ATOM      4  N   UNL     1       8.907   2.220  -3.763  0.00  0.00    -0.298 NA
ATOM      5  C   UNL     1       7.458   2.097  -3.495  0.00  0.00    +0.085 C 
ATOM      6  C   UNL     1       9.632   1.029  -3.302  0.00  0.00    +0.105 C 
ENDROOT
BRANCH   3   7
ATOM      7  C   UNL     1       9.760   3.763  -5.452  0.00  0.00    -0.012 A 
ATOM      8  C   UNL     1      10.102   4.151  -6.733  0.00  0.00    +0.115 A 
ATOM      9  N   UNL     1      10.680   5.316  -6.954  0.00  0.00    -0.263 NA
ATOM     10  C   UNL     1      10.954   6.151  -5.972  0.00  0.00    +0.111 A 
ATOM     11  C   UNL     1      10.641   5.831  -4.663  0.00  0.00    +0.020 A 
ATOM     12  C   UNL     1      10.028   4.618  -4.393  0.00  0.00    +0.008 A 
ENDBRANCH   3   7
TORSDOF 1
ENDMDL
MODEL 9
REMARK VINA RESULT:    -1.084      2.626      3.514
REMARK INTER + INTRA:          -1.333
REMARK INTER:                  -1.112
REMARK INTRA:                  -0.221
REMARK UNBOUND:                -0.186
REMARK  Name = Nicotine.pdb
REMARK  2 active torsions:
REMARK  status: ('A' for Active; 'I' for Inactive)
REMARK    1  A    between atoms: C_3  and  C_6
REMARK    2  A    between atoms: N_4  and  C_12
REMARK                            x       y       z     vdW  Elec       q    Type
REMARK                         _______ _______ _______ _____ _____    ______ ____
ROOT
ATOM      1  C   UNL     1       5.792   3.455  -4.200  0.00  0.00    +0.017 C 
ATOM      2  C   UNL     1       7.067   3.742  -5.036  0.00  0.00    +0.025 C 
ATOM      3  C   UNL     1       7.034   2.633  -6.110  0.00  0.00    +0.088 C 
ATOM      4  N   UNL     1       6.202   1.538  -5.582  0.00  0.00    -0.298 NA
ATOM      5  C   UNL     1       5.742   1.907  -4.226  0.00  0.00    +0.085 C 
ATOM      6  C   UNL     1       5.063   1.266  -6.468  0.00  0.00    +0.105 C 
ENDROOT
BRANCH   3   7
ATOM      7  C   UNL     1       8.431   2.136  -6.376  0.00  0.00    -0.012 A 
ATOM      8  C   UNL     1       8.758   0.813  -6.142  0.00  0.00    +0.115 A 
ATOM      9  N   UNL     1       9.979   0.369  -6.372  0.00  0.00    -0.263 NA
ATOM     10  C   UNL     1      10.929   1.160  -6.830  0.00  0.00    +0.111 A 
ATOM     11  C   UNL     1      10.676   2.495  -7.088  0.00  0.00    +0.020 A 
ATOM     12  C   UNL     1       9.403   2.996  -6.863  0.00  0.00    +0.008 A 
ENDBRANCH   3   7
TORSDOF 1
ENDMDL
MODEL 10
REMARK VINA RESULT:    -1.011      3.265      4.974
REMARK INTER + INTRA:          -1.256
REMARK INTER:                  -1.042
REMARK INTRA:                  -0.214
REMARK UNBOUND:                -0.186
REMARK  Name = Nicotine.pdb
REMARK  2 active torsions:
REMARK  status: ('A' for Active; 'I' for Inactive)
REMARK    1  A    between atoms: C_3  and  C_6
REMARK    2  A    between atoms: N_4  and  C_12
REMARK                            x       y       z     vdW  Elec       q    Type
REMARK                         _______ _______ _______ _____ _____    ______ ____
ROOT
ATOM      1  C   UNL     1       6.964  -1.715  -3.639  0.00  0.00    +0.017 C 
ATOM      2  C   UNL     1       7.116  -0.318  -4.297  0.00  0.00    +0.025 C 
ATOM      3  C   UNL     1       7.669  -0.652  -5.698  0.00  0.00    +0.088 C 
ATOM      4  N   UNL     1       8.299  -1.981  -5.614  0.00  0.00    -0.298 NA
ATOM      5  C   UNL     1       8.184  -2.470  -4.223  0.00  0.00    +0.085 C 
ATOM      6  C   UNL     1       7.677  -2.921  -6.556  0.00  0.00    +0.105 C 
ENDROOT
BRANCH   3   7
ATOM      7  C   UNL     1       8.692   0.377  -6.105  0.00  0.00    -0.012 A 
ATOM      8  C   UNL     1       8.334   1.706  -6.232  0.00  0.00    +0.115 A 
ATOM      9  N   UNL     1       9.223   2.613  -6.587  0.00  0.00    -0.263 NA
ATOM     10  C   UNL     1      10.478   2.294  -6.834  0.00  0.00    +0.111 A 
ATOM     11  C   UNL     1      10.909   0.985  -6.728  0.00  0.00    +0.020 A 
ATOM     12  C   UNL     1      10.004   0.005  -6.351  0.00  0.00    +0.008 A 
ENDBRANCH   3   7
TORSDOF 1
ENDMDL
