MODEL 1
REMARK VINA RESULT:    -3.709      0.000      0.000
REMARK INTER + INTRA:          -4.141
REMARK INTER:                  -3.926
REMARK INTRA:                  -0.216
REMARK UNBOUND:                -0.216
REMARK  Name = Nicotine.pdb
REMARK  2 active torsions:
REMARK  status: ('A' for Active; 'I' for Inactive)
REMARK    1  A    between atoms: C_3  and  C_6
REMARK    2  A    between atoms: N_4  and  C_12
REMARK                            x       y       z     vdW  Elec       q    Type
REMARK                         _______ _______ _______ _____ _____    ______ ____
ROOT
ATOM      1  C   UNL     1      -2.266  -5.448  -6.343  0.00  0.00    +0.017 C 
ATOM      2  C   UNL     1      -2.156  -3.985  -5.839  0.00  0.00    +0.025 C 
ATOM      3  C   UNL     1      -3.075  -3.975  -4.599  0.00  0.00    +0.088 C 
ATOM      4  N   UNL     1      -4.022  -5.094  -4.747  0.00  0.00    -0.298 NA
ATOM      5  C   UNL     1      -3.748  -5.776  -6.030  0.00  0.00    +0.085 C 
ATOM      6  C   UNL     1      -3.915  -6.029  -3.620  0.00  0.00    +0.105 C 
ENDROOT
BRANCH   3   7
ATOM      7  C   UNL     1      -3.827  -2.671  -4.528  0.00  0.00    -0.012 A 
ATOM      8  C   UNL     1      -3.977  -1.888  -5.658  0.00  0.00    +0.115 A 
ATOM      9  N   UNL     1      -4.634  -0.746  -5.605  0.00  0.00    -0.263 NA
ATOM     10  C   UNL     1      -5.169  -0.306  -4.483  0.00  0.00    +0.111 A 
ATOM     11  C   UNL     1      -5.060  -1.034  -3.313  0.00  0.00    +0.020 A 
ATOM     12  C   UNL     1      -4.381  -2.243  -3.332  0.00  0.00    +0.008 A 
ENDBRANCH   3   7
TORSDOF 1
ENDMDL
MODEL 2
REMARK VINA RESULT:    -3.338      1.906      3.175
REMARK INTER + INTRA:          -3.748
REMARK INTER:                  -3.561
REMARK INTRA:                  -0.187
REMARK UNBOUND:                -0.216
REMARK  Name = Nicotine.pdb
REMARK  2 active torsions:
REMARK  status: ('A' for Active; 'I' for Inactive)
REMARK    1  A    between atoms: C_3  and  C_6
REMARK    2  A    between atoms: N_4  and  C_12
REMARK                            x       y       z     vdW  Elec       q    Type
REMARK                         _______ _______ _______ _____ _____    ______ ____
ROOT
ATOM      1  C   UNL     1      -3.700  -3.780  -3.859  0.00  0.00    +0.017 C 
ATOM      2  C   UNL     1      -4.592  -2.519  -4.002  0.00  0.00    +0.025 C 
ATOM      3  C   UNL     1      -4.651  -2.306  -5.529  0.00  0.00    +0.088 C 
ATOM      4  N   UNL     1      -3.476  -2.982  -6.110  0.00  0.00    -0.298 NA
ATOM      5  C   UNL     1      -2.685  -3.578  -5.013  0.00  0.00    +0.085 C 
ATOM      6  C   UNL     1      -3.884  -4.004  -7.082  0.00  0.00    +0.105 C 
ENDROOT
BRANCH   3   7
ATOM      7  C   UNL     1      -4.604  -0.833  -5.844  0.00  0.00    -0.012 A 
ATOM      8  C   UNL     1      -5.163   0.085  -4.975  0.00  0.00    +0.115 A 
ATOM      9  N   UNL     1      -5.127   1.376  -5.243  0.00  0.00    -0.263 NA
ATOM     10  C   UNL     1      -4.562   1.841  -6.339  0.00  0.00    +0.111 A 
ATOM     11  C   UNL     1      -3.981   0.982  -7.255  0.00  0.00    +0.020 A 
ATOM     12  C   UNL     1      -3.996  -0.381  -7.005  0.00  0.00    +0.008 A 
ENDBRANCH   3   7
TORSDOF 1
ENDMDL
MODEL 3
REMARK VINA RESULT:    -3.067      1.480      4.390
REMARK INTER + INTRA:          -3.462
REMARK INTER:                  -3.246
REMARK INTRA:                  -0.215
REMARK UNBOUND:                -0.216
REMARK  Name = Nicotine.pdb
REMARK  2 active torsions:
REMARK  status: ('A' for Active; 'I' for Inactive)
REMARK    1  A    between atoms: C_3  and  C_6
REMARK    2  A    between atoms: N_4  and  C_12
REMARK                            x       y       z     vdW  Elec       q    Type
REMARK                         _______ _______ _______ _____ _____    ______ ____
ROOT
ATOM      1  C   UNL     1      -5.089  -0.178  -6.952  0.00  0.00    +0.017 C 
ATOM      2  C   UNL     1      -5.171  -1.727  -6.989  0.00  0.00    +0.025 C 
ATOM      3  C   UNL     1      -5.017  -2.118  -5.503  0.00  0.00    +0.088 C 
ATOM      4  N   UNL     1      -4.344  -0.997  -4.824  0.00  0.00    -0.298 NA
ATOM      5  C   UNL     1      -4.053   0.053  -5.823  0.00  0.00    +0.085 C 
ATOM      6  C   UNL     1      -5.171  -0.470  -3.731  0.00  0.00    +0.105 C 
ENDROOT
BRANCH   3   7
ATOM      7  C   UNL     1      -4.182  -3.367  -5.386  0.00  0.00    -0.012 A 
ATOM      8  C   UNL     1      -3.308  -3.721  -6.396  0.00  0.00    +0.115 A 
ATOM      9  N   UNL     1      -2.573  -4.812  -6.301  0.00  0.00    -0.263 NA
ATOM     10  C   UNL     1      -2.640  -5.603  -5.249  0.00  0.00    +0.111 A 
ATOM     11  C   UNL     1      -3.491  -5.313  -4.199  0.00  0.00    +0.020 A 
ATOM     12  C   UNL     1      -4.275  -4.172  -4.261  0.00  0.00    +0.008 A 
ENDBRANCH   3   7
TORSDOF 1
ENDMDL
MODEL 4
REMARK VINA RESULT:    -2.458      1.394      4.551
REMARK INTER + INTRA:          -2.818
REMARK INTER:                  -2.563
REMARK INTRA:                  -0.254
REMARK UNBOUND:                -0.216
REMARK  Name = Nicotine.pdb
REMARK  2 active torsions:
REMARK  status: ('A' for Active; 'I' for Inactive)
REMARK    1  A    between atoms: C_3  and  C_6
REMARK    2  A    between atoms: N_4  and  C_12
REMARK                            x       y       z     vdW  Elec       q    Type
REMARK                         _______ _______ _______ _____ _____    ______ ____
ROOT
ATOM      1  C   UNL     1      -5.096  -0.376  -5.688  0.00  0.00    +0.017 C 
ATOM      2  C   UNL     1      -4.821  -1.711  -6.430  0.00  0.00    +0.025 C 
ATOM      3  C   UNL     1      -4.446  -2.674  -5.283  0.00  0.00    +0.088 C 
ATOM      4  N   UNL     1      -3.990  -1.848  -4.151  0.00  0.00    -0.298 NA
ATOM      5  C   UNL     1      -4.043  -0.426  -4.553  0.00  0.00    +0.085 C 
ATOM      6  C   UNL     1      -4.812  -2.089  -2.958  0.00  0.00    +0.105 C 
ENDROOT
BRANCH   3   7
ATOM      7  C   UNL     1      -3.338  -3.593  -5.728  0.00  0.00    -0.012 A 
ATOM      8  C   UNL     1      -3.021  -4.715  -4.987  0.00  0.00    +0.115 A 
ATOM      9  N   UNL     1      -2.053  -5.525  -5.369  0.00  0.00    -0.263 NA
ATOM     10  C   UNL     1      -1.353  -5.300  -6.463  0.00  0.00    +0.111 A 
ATOM     11  C   UNL     1      -1.613  -4.198  -7.256  0.00  0.00    +0.020 A 
ATOM     12  C   UNL     1      -2.627  -3.327  -6.889  0.00  0.00    +0.008 A 
ENDBRANCH   3   7
TORSDOF 1
ENDMDL
MODEL 5
REMARK VINA RESULT:    -1.599      2.141      3.486
REMARK INTER + INTRA:          -1.908
REMARK INTER:                  -1.701
REMARK INTRA:                  -0.207
REMARK UNBOUND:                -0.216
REMARK  Name = Nicotine.pdb
REMARK  2 active torsions:
REMARK  status: ('A' for Active; 'I' for Inactive)
REMARK    1  A    between atoms: C_3  and  C_6
REMARK    2  A    between atoms: N_4  and  C_12
REMARK                            x       y       z     vdW  Elec       q    Type
REMARK                         _______ _______ _______ _____ _____    ______ ____
ROOT
ATOM      1  C   UNL     1      -2.927  -3.122  -7.252  0.00  0.00    +0.017 C 
ATOM      2  C   UNL     1      -2.370  -3.754  -5.949  0.00  0.00    +0.025 C 
ATOM      3  C   UNL     1      -3.427  -4.825  -5.604  0.00  0.00    +0.088 C 
ATOM      4  N   UNL     1      -4.680  -4.434  -6.273  0.00  0.00    -0.298 NA
ATOM      5  C   UNL     1      -4.453  -3.162  -6.991  0.00  0.00    +0.085 C 
ATOM      6  C   UNL     1      -5.137  -5.484  -7.192  0.00  0.00    +0.105 C 
ENDROOT
BRANCH   3   7
ATOM      7  C   UNL     1      -3.635  -4.879  -4.113  0.00  0.00    -0.012 A 
ATOM      8  C   UNL     1      -3.684  -3.713  -3.371  0.00  0.00    +0.115 A 
ATOM      9  N   UNL     1      -3.866  -3.751  -2.066  0.00  0.00    -0.263 NA
ATOM     10  C   UNL     1      -4.007  -4.891  -1.418  0.00  0.00    +0.111 A 
ATOM     11  C   UNL     1      -3.970  -6.097  -2.093  0.00  0.00    +0.020 A 
ATOM     12  C   UNL     1      -3.786  -6.096  -3.467  0.00  0.00    +0.008 A 
ENDBRANCH   3   7
TORSDOF 1
ENDMDL
MODEL 6
REMARK VINA RESULT:    -1.588     12.939     14.402
REMARK INTER + INTRA:          -1.897
REMARK INTER:                  -1.695
REMARK INTRA:                  -0.201
REMARK UNBOUND:                -0.216
REMARK  Name = Nicotine.pdb
REMARK  2 active torsions:
REMARK  status: ('A' for Active; 'I' for Inactive)
REMARK    1  A    between atoms: C_3  and  C_6
REMARK    2  A    between atoms: N_4  and  C_12
REMARK                            x       y       z     vdW  Elec       q    Type
REMARK                         _______ _______ _______ _____ _____    ______ ____
ROOT
ATOM      1  C   UNL     1       3.220   6.177   5.886  0.00  0.00    +0.017 C 
ATOM      2  C   UNL     1       1.799   6.699   6.226  0.00  0.00    +0.025 C 
ATOM      3  C   UNL     1       0.951   5.410   6.244  0.00  0.00    +0.088 C 
ATOM      4  N   UNL     1       1.667   4.404   5.439  0.00  0.00    -0.298 NA
ATOM      5  C   UNL     1       2.902   5.020   4.907  0.00  0.00    +0.085 C 
ATOM      6  C   UNL     1       1.976   3.212   6.238  0.00  0.00    +0.105 C 
ENDROOT
BRANCH   3   7
ATOM      7  C   UNL     1      -0.404   5.679   5.642  0.00  0.00    -0.012 A 
ATOM      8  C   UNL     1      -1.136   6.784   6.034  0.00  0.00    +0.115 A 
ATOM      9  N   UNL     1      -2.323   7.027   5.512  0.00  0.00    -0.263 NA
ATOM     10  C   UNL     1      -2.856   6.235   4.604  0.00  0.00    +0.111 A 
ATOM     11  C   UNL     1      -2.182   5.111   4.162  0.00  0.00    +0.020 A 
ATOM     12  C   UNL     1      -0.930   4.826   4.684  0.00  0.00    +0.008 A 
ENDBRANCH   3   7
TORSDOF 1
ENDMDL
MODEL 7
REMARK VINA RESULT:    -1.068      1.893      4.113
REMARK INTER + INTRA:          -1.346
REMARK INTER:                  -1.119
REMARK INTRA:                  -0.227
REMARK UNBOUND:                -0.216
REMARK  Name = Nicotine.pdb
REMARK  2 active torsions:
REMARK  status: ('A' for Active; 'I' for Inactive)
REMARK    1  A    between atoms: C_3  and  C_6
REMARK    2  A    between atoms: N_4  and  C_12
REMARK                            x       y       z     vdW  Elec       q    Type
REMARK                         _______ _______ _______ _____ _____    ______ ____
ROOT
ATOM      1  C   UNL     1      -4.594  -2.538  -7.255  0.00  0.00    +0.017 C 
ATOM      2  C   UNL     1      -5.090  -3.605  -6.244  0.00  0.00    +0.025 C 
ATOM      3  C   UNL     1      -4.932  -2.893  -4.883  0.00  0.00    +0.088 C 
ATOM      4  N   UNL     1      -3.934  -1.824  -5.062  0.00  0.00    -0.298 NA
ATOM      5  C   UNL     1      -3.451  -1.859  -6.459  0.00  0.00    +0.085 C 
ATOM      6  C   UNL     1      -4.504  -0.510  -4.735  0.00  0.00    +0.105 C 
ENDROOT
BRANCH   3   7
ATOM      7  C   UNL     1      -4.455  -3.874  -3.844  0.00  0.00    -0.012 A 
ATOM      8  C   UNL     1      -4.044  -3.431  -2.601  0.00  0.00    +0.115 A 
ATOM      9  N   UNL     1      -3.625  -4.283  -1.686  0.00  0.00    -0.263 NA
ATOM     10  C   UNL     1      -3.580  -5.580  -1.915  0.00  0.00    +0.111 A 
ATOM     11  C   UNL     1      -3.975  -6.097  -3.135  0.00  0.00    +0.020 A 
ATOM     12  C   UNL     1      -4.427  -5.232  -4.120  0.00  0.00    +0.008 A 
ENDBRANCH   3   7
TORSDOF 1
ENDMDL
MODEL 8
REMARK VINA RESULT:    -1.056      1.770      4.321
REMARK INTER + INTRA:          -1.333
REMARK INTER:                  -1.124
REMARK INTRA:                  -0.209
REMARK UNBOUND:                -0.216
REMARK  Name = Nicotine.pdb
REMARK  2 active torsions:
REMARK  status: ('A' for Active; 'I' for Inactive)
REMARK    1  A    between atoms: C_3  and  C_6
REMARK    2  A    between atoms: N_4  and  C_12
REMARK                            x       y       z     vdW  Elec       q    Type
REMARK                         _______ _______ _______ _____ _____    ______ ____
ROOT
ATOM      1  C   UNL     1      -4.608  -1.187  -3.579  0.00  0.00    +0.017 C 
ATOM      2  C   UNL     1      -5.120  -2.186  -4.650  0.00  0.00    +0.025 C 
ATOM      3  C   UNL     1      -4.672  -3.554  -4.092  0.00  0.00    +0.088 C 
ATOM      4  N   UNL     1      -3.555  -3.302  -3.164  0.00  0.00    -0.298 NA
ATOM      5  C   UNL     1      -3.277  -1.850  -3.144  0.00  0.00    +0.085 C 
ATOM      6  C   UNL     1      -3.867  -3.798  -1.817  0.00  0.00    +0.105 C 
ENDROOT
BRANCH   3   7
ATOM      7  C   UNL     1      -4.214  -4.442  -5.219  0.00  0.00    -0.012 A 
ATOM      8  C   UNL     1      -2.875  -4.751  -5.366  0.00  0.00    +0.115 A 
ATOM      9  N   UNL     1      -2.465  -5.528  -6.349  0.00  0.00    -0.263 NA
ATOM     10  C   UNL     1      -3.308  -6.039  -7.226  0.00  0.00    +0.111 A 
ATOM     11  C   UNL     1      -4.662  -5.774  -7.143  0.00  0.00    +0.020 A 
ATOM     12  C   UNL     1      -5.130  -4.966  -6.119  0.00  0.00    +0.008 A 
ENDBRANCH   3   7
TORSDOF 1
ENDMDL
MODEL 9
REMARK VINA RESULT:    -0.772     12.906     14.840
REMARK INTER + INTRA:          -1.032
REMARK INTER:                  -0.816
REMARK INTRA:                  -0.216
REMARK UNBOUND:                -0.216
REMARK  Name = Nicotine.pdb
REMARK  2 active torsions:
REMARK  status: ('A' for Active; 'I' for Inactive)
REMARK    1  A    between atoms: C_3  and  C_6
REMARK    2  A    between atoms: N_4  and  C_12
REMARK                            x       y       z     vdW  Elec       q    Type
REMARK                         _______ _______ _______ _____ _____    ______ ____
ROOT
ATOM      1  C   UNL     1      -2.033   4.541   4.141  0.00  0.00    +0.017 C 
ATOM      2  C   UNL     1      -0.759   4.089   4.902  0.00  0.00    +0.025 C 
ATOM      3  C   UNL     1      -0.496   5.264   5.867  0.00  0.00    +0.088 C 
ATOM      4  N   UNL     1      -1.164   6.451   5.303  0.00  0.00    -0.298 NA
ATOM      5  C   UNL     1      -1.803   6.069   4.026  0.00  0.00    +0.085 C 
ATOM      6  C   UNL     1      -2.150   6.998   6.244  0.00  0.00    +0.105 C 
ENDROOT
BRANCH   3   7
ATOM      7  C   UNL     1       0.986   5.514   5.980  0.00  0.00    -0.012 A 
ATOM      8  C   UNL     1       1.471   6.801   6.112  0.00  0.00    +0.115 A 
ATOM      9  N   UNL     1       2.766   7.028   6.211  0.00  0.00    -0.263 NA
ATOM     10  C   UNL     1       3.645   6.046   6.188  0.00  0.00    +0.111 A 
ATOM     11  C   UNL     1       3.235   4.732   6.059  0.00  0.00    +0.020 A 
ATOM     12  C   UNL     1       1.881   4.454   5.958  0.00  0.00    +0.008 A 
ENDBRANCH   3   7
TORSDOF 1
ENDMDL
