MODEL 1
REMARK VINA RESULT:     0.000      0.000      0.000
REMARK INTER + INTRA:          -0.256
REMARK INTER:                   0.000
REMARK INTRA:                  -0.256
REMARK UNBOUND:                -0.256
REMARK  Name = Nicotine.pdb
REMARK  2 active torsions:
REMARK  status: ('A' for Active; 'I' for Inactive)
REMARK    1  A    between atoms: C_3  and  C_6
REMARK    2  A    between atoms: N_4  and  C_12
REMARK                            x       y       z     vdW  Elec       q    Type
REMARK                         _______ _______ _______ _____ _____    ______ ____
ROOT
ATOM      1  C   UNL     1       6.002   2.445   1.730  0.00  0.00    +0.017 C 
ATOM      2  C   UNL     1       6.076   3.825   2.435  0.00  0.00    +0.025 C 
ATOM      3  C   UNL     1       5.401   3.555   3.797  0.00  0.00    +0.088 C 
ATOM      4  N   UNL     1       4.542   2.369   3.631  0.00  0.00    -0.298 NA
ATOM      5  C   UNL     1       4.636   1.912   2.229  0.00  0.00    +0.085 C 
ATOM      6  C   UNL     1       4.932   1.301   4.561  0.00  0.00    +0.105 C 
ENDROOT
BRANCH   3   7
ATOM      7  C   UNL     1       4.566   4.743   4.199  0.00  0.00    -0.012 A 
ATOM      8  C   UNL     1       4.228   4.943   5.524  0.00  0.00    +0.115 A 
ATOM      9  N   UNL     1       3.497   5.980   5.885  0.00  0.00    -0.263 NA
ATOM     10  C   UNL     1       3.063   6.861   5.006  0.00  0.00    +0.111 A 
ATOM     11  C   UNL     1       3.362   6.727   3.663  0.00  0.00    +0.020 A 
ATOM     12  C   UNL     1       4.132   5.652   3.247  0.00  0.00    +0.008 A 
ENDBRANCH   3   7
TORSDOF 1
ENDMDL
MODEL 2
REMARK VINA RESULT:     0.000      4.109      5.796
REMARK INTER + INTRA:          -0.256
REMARK INTER:                   0.000
REMARK INTRA:                  -0.256
REMARK UNBOUND:                -0.256
REMARK  Name = Nicotine.pdb
REMARK  2 active torsions:
REMARK  status: ('A' for Active; 'I' for Inactive)
REMARK    1  A    between atoms: C_3  and  C_6
REMARK    2  A    between atoms: N_4  and  C_12
REMARK                            x       y       z     vdW  Elec       q    Type
REMARK                         _______ _______ _______ _____ _____    ______ ____
ROOT
ATOM      1  C   UNL     1       6.659   6.347  -0.618  0.00  0.00    +0.017 C 
ATOM      2  C   UNL     1       7.742   5.237  -0.579  0.00  0.00    +0.025 C 
ATOM      3  C   UNL     1       6.940   3.985  -0.161  0.00  0.00    +0.088 C 
ATOM      4  N   UNL     1       5.719   4.455   0.518  0.00  0.00    -0.298 NA
ATOM      5  C   UNL     1       5.743   5.933   0.560  0.00  0.00    +0.085 C 
ATOM      6  C   UNL     1       4.515   3.967  -0.166  0.00  0.00    +0.105 C 
ENDROOT
BRANCH   3   7
ATOM      7  C   UNL     1       7.760   3.142   0.781  0.00  0.00    -0.012 A 
ATOM      8  C   UNL     1       7.473   1.801   0.948  0.00  0.00    +0.115 A 
ATOM      9  N   UNL     1       8.185   1.056   1.771  0.00  0.00    -0.263 NA
ATOM     10  C   UNL     1       9.192   1.554   2.461  0.00  0.00    +0.111 A 
ATOM     11  C   UNL     1       9.538   2.887   2.345  0.00  0.00    +0.020 A 
ATOM     12  C   UNL     1       8.815   3.700   1.486  0.00  0.00    +0.008 A 
ENDBRANCH   3   7
TORSDOF 1
ENDMDL
MODEL 3
REMARK VINA RESULT:     0.000      4.237      6.128
REMARK INTER + INTRA:          -0.256
REMARK INTER:                   0.000
REMARK INTRA:                  -0.256
REMARK UNBOUND:                -0.256
REMARK  Name = Nicotine.pdb
REMARK  2 active torsions:
REMARK  status: ('A' for Active; 'I' for Inactive)
REMARK    1  A    between atoms: C_3  and  C_6
REMARK    2  A    between atoms: N_4  and  C_12
REMARK                            x       y       z     vdW  Elec       q    Type
REMARK                         _______ _______ _______ _____ _____    ______ ____
ROOT
ATOM      1  C   UNL     1       5.238   1.064  -4.121  0.00  0.00    +0.017 C 
ATOM      2  C   UNL     1       5.310   0.731  -2.607  0.00  0.00    +0.025 C 
ATOM      3  C   UNL     1       4.265   1.686  -1.992  0.00  0.00    +0.088 C 
ATOM      4  N   UNL     1       4.081   2.801  -2.939  0.00  0.00    -0.298 NA
ATOM      5  C   UNL     1       4.980   2.591  -4.093  0.00  0.00    +0.085 C 
ATOM      6  C   UNL     1       2.681   2.900  -3.371  0.00  0.00    +0.105 C 
ENDROOT
BRANCH   3   7
ATOM      7  C   UNL     1       4.765   2.210  -0.671  0.00  0.00    -0.012 A 
ATOM      8  C   UNL     1       3.877   2.709   0.264  0.00  0.00    +0.115 A 
ATOM      9  N   UNL     1       4.306   3.170   1.423  0.00  0.00    -0.263 NA
ATOM     10  C   UNL     1       5.587   3.175   1.735  0.00  0.00    +0.111 A 
ATOM     11  C   UNL     1       6.533   2.691   0.851  0.00  0.00    +0.020 A 
ATOM     12  C   UNL     1       6.119   2.194  -0.375  0.00  0.00    +0.008 A 
ENDBRANCH   3   7
TORSDOF 1
ENDMDL
MODEL 4
REMARK VINA RESULT:     0.000      5.275      6.367
REMARK INTER + INTRA:          -0.256
REMARK INTER:                   0.000
REMARK INTRA:                  -0.256
REMARK UNBOUND:                -0.256
REMARK  Name = Nicotine.pdb
REMARK  2 active torsions:
REMARK  status: ('A' for Active; 'I' for Inactive)
REMARK    1  A    between atoms: C_3  and  C_6
REMARK    2  A    between atoms: N_4  and  C_12
REMARK                            x       y       z     vdW  Elec       q    Type
REMARK                         _______ _______ _______ _____ _____    ______ ____
ROOT
ATOM      1  C   UNL     1       4.444   3.283  -4.687  0.00  0.00    +0.017 C 
ATOM      2  C   UNL     1       4.516   2.950  -3.173  0.00  0.00    +0.025 C 
ATOM      3  C   UNL     1       3.471   3.905  -2.558  0.00  0.00    +0.088 C 
ATOM      4  N   UNL     1       3.287   5.020  -3.504  0.00  0.00    -0.298 NA
ATOM      5  C   UNL     1       4.186   4.810  -4.659  0.00  0.00    +0.085 C 
ATOM      6  C   UNL     1       1.887   5.118  -3.937  0.00  0.00    +0.105 C 
ENDROOT
BRANCH   3   7
ATOM      7  C   UNL     1       3.971   4.429  -1.237  0.00  0.00    -0.012 A 
ATOM      8  C   UNL     1       3.083   4.928  -0.302  0.00  0.00    +0.115 A 
ATOM      9  N   UNL     1       3.513   5.389   0.857  0.00  0.00    -0.263 NA
ATOM     10  C   UNL     1       4.793   5.393   1.170  0.00  0.00    +0.111 A 
ATOM     11  C   UNL     1       5.739   4.910   0.285  0.00  0.00    +0.020 A 
ATOM     12  C   UNL     1       5.325   4.412  -0.941  0.00  0.00    +0.008 A 
ENDBRANCH   3   7
TORSDOF 1
ENDMDL
MODEL 5
REMARK VINA RESULT:     0.000      8.467      9.919
REMARK INTER + INTRA:          -0.256
REMARK INTER:                   0.000
REMARK INTRA:                  -0.256
REMARK UNBOUND:                -0.256
REMARK  Name = Nicotine.pdb
REMARK  2 active torsions:
REMARK  status: ('A' for Active; 'I' for Inactive)
REMARK    1  A    between atoms: C_3  and  C_6
REMARK    2  A    between atoms: N_4  and  C_12
REMARK                            x       y       z     vdW  Elec       q    Type
REMARK                         _______ _______ _______ _____ _____    ______ ____
ROOT
ATOM      1  C   UNL     1       0.547  -5.925  -0.872  0.00  0.00    +0.017 C 
ATOM      2  C   UNL     1       0.853  -4.640  -1.685  0.00  0.00    +0.025 C 
ATOM      3  C   UNL     1       0.741  -3.524  -0.626  0.00  0.00    +0.088 C 
ATOM      4  N   UNL     1      -0.096  -4.044   0.470  0.00  0.00    -0.298 NA
ATOM      5  C   UNL     1      -0.524  -5.417   0.125  0.00  0.00    +0.085 C 
ATOM      6  C   UNL     1       0.633  -4.025   1.745  0.00  0.00    +0.105 C 
ENDROOT
BRANCH   3   7
ATOM      7  C   UNL     1       0.095  -2.305  -1.232  0.00  0.00    -0.012 A 
ATOM      8  C   UNL     1       0.272  -1.061  -0.656  0.00  0.00    +0.115 A 
ATOM      9  N   UNL     1      -0.290   0.011  -1.180  0.00  0.00    -0.263 NA
ATOM     10  C   UNL     1      -1.038  -0.058  -2.264  0.00  0.00    +0.111 A 
ATOM     11  C   UNL     1      -1.260  -1.268  -2.895  0.00  0.00    +0.020 A 
ATOM     12  C   UNL     1      -0.681  -2.416  -2.376  0.00  0.00    +0.008 A 
ENDBRANCH   3   7
TORSDOF 1
ENDMDL
MODEL 6
REMARK VINA RESULT:     0.000      6.643      7.559
REMARK INTER + INTRA:          -0.256
REMARK INTER:                   0.000
REMARK INTRA:                  -0.256
REMARK UNBOUND:                -0.256
REMARK  Name = Nicotine.pdb
REMARK  2 active torsions:
REMARK  status: ('A' for Active; 'I' for Inactive)
REMARK    1  A    between atoms: C_3  and  C_6
REMARK    2  A    between atoms: N_4  and  C_12
REMARK                            x       y       z     vdW  Elec       q    Type
REMARK                         _______ _______ _______ _____ _____    ______ ____
ROOT
ATOM      1  C   UNL     1       3.041   0.184  -1.234  0.00  0.00    +0.017 C 
ATOM      2  C   UNL     1       2.069   0.711  -0.146  0.00  0.00    +0.025 C 
ATOM      3  C   UNL     1       1.278  -0.553   0.255  0.00  0.00    +0.088 C 
ATOM      4  N   UNL     1       1.376  -1.503  -0.868  0.00  0.00    -0.298 NA
ATOM      5  C   UNL     1       2.166  -0.876  -1.948  0.00  0.00    +0.085 C 
ATOM      6  C   UNL     1       1.985  -2.768  -0.436  0.00  0.00    +0.105 C 
ENDROOT
BRANCH   3   7
ATOM      7  C   UNL     1      -0.165  -0.198   0.503  0.00  0.00    -0.012 A 
ATOM      8  C   UNL     1      -0.964  -1.019   1.277  0.00  0.00    +0.115 A 
ATOM      9  N   UNL     1      -2.228  -0.715   1.499  0.00  0.00    -0.263 NA
ATOM     10  C   UNL     1      -2.777   0.373   0.998  0.00  0.00    +0.111 A 
ATOM     11  C   UNL     1      -2.040   1.243   0.216  0.00  0.00    +0.020 A 
ATOM     12  C   UNL     1      -0.707   0.959  -0.036  0.00  0.00    +0.008 A 
ENDBRANCH   3   7
TORSDOF 1
ENDMDL
MODEL 7
REMARK VINA RESULT:     0.000      8.330     10.037
REMARK INTER + INTRA:          -0.256
REMARK INTER:                   0.000
REMARK INTRA:                  -0.256
REMARK UNBOUND:                -0.256
REMARK  Name = Nicotine.pdb
REMARK  2 active torsions:
REMARK  status: ('A' for Active; 'I' for Inactive)
REMARK    1  A    between atoms: C_3  and  C_6
REMARK    2  A    between atoms: N_4  and  C_12
REMARK                            x       y       z     vdW  Elec       q    Type
REMARK                         _______ _______ _______ _____ _____    ______ ____
ROOT
ATOM      1  C   UNL     1      -1.630   0.526   0.586  0.00  0.00    +0.017 C 
ATOM      2  C   UNL     1      -0.673  -0.681   0.405  0.00  0.00    +0.025 C 
ATOM      3  C   UNL     1      -1.611  -1.895   0.565  0.00  0.00    +0.088 C 
ATOM      4  N   UNL     1      -2.791  -1.439   1.323  0.00  0.00    -0.298 NA
ATOM      5  C   UNL     1      -2.611  -0.010   1.658  0.00  0.00    +0.085 C 
ATOM      6  C   UNL     1      -4.024  -1.650   0.555  0.00  0.00    +0.105 C 
ENDROOT
BRANCH   3   7
ATOM      7  C   UNL     1      -0.907  -2.991   1.322  0.00  0.00    -0.012 A 
ATOM      8  C   UNL     1      -1.339  -4.300   1.220  0.00  0.00    +0.115 A 
ATOM      9  N   UNL     1      -0.727  -5.266   1.879  0.00  0.00    -0.263 NA
ATOM     10  C   UNL     1       0.311  -5.025   2.656  0.00  0.00    +0.111 A 
ATOM     11  C   UNL     1       0.799  -3.741   2.806  0.00  0.00    +0.020 A 
ATOM     12  C   UNL     1       0.186  -2.701   2.125  0.00  0.00    +0.008 A 
ENDBRANCH   3   7
TORSDOF 1
ENDMDL
MODEL 8
REMARK VINA RESULT:     0.000      9.695     11.918
REMARK INTER + INTRA:          -0.256
REMARK INTER:                   0.000
REMARK INTRA:                  -0.256
REMARK UNBOUND:                -0.256
REMARK  Name = Nicotine.pdb
REMARK  2 active torsions:
REMARK  status: ('A' for Active; 'I' for Inactive)
REMARK    1  A    between atoms: C_3  and  C_6
REMARK    2  A    between atoms: N_4  and  C_12
REMARK                            x       y       z     vdW  Elec       q    Type
REMARK                         _______ _______ _______ _____ _____    ______ ____
ROOT
ATOM      1  C   UNL     1       1.663   0.698  -2.993  0.00  0.00    +0.017 C 
ATOM      2  C   UNL     1       1.048  -0.650  -3.453  0.00  0.00    +0.025 C 
ATOM      3  C   UNL     1       0.873  -0.452  -4.974  0.00  0.00    +0.088 C 
ATOM      4  N   UNL     1       0.830   1.001  -5.222  0.00  0.00    -0.298 NA
ATOM      5  C   UNL     1       0.944   1.704  -3.927  0.00  0.00    +0.085 C 
ATOM      6  C   UNL     1       1.901   1.410  -6.141  0.00  0.00    +0.105 C 
ENDROOT
BRANCH   3   7
ATOM      7  C   UNL     1      -0.414  -1.089  -5.430  0.00  0.00    -0.012 A 
ATOM      8  C   UNL     1      -0.590  -1.436  -6.756  0.00  0.00    +0.115 A 
ATOM      9  N   UNL     1      -1.713  -1.995  -7.163  0.00  0.00    -0.263 NA
ATOM     10  C   UNL     1      -2.705  -2.244  -6.331  0.00  0.00    +0.111 A 
ATOM     11  C   UNL     1      -2.601  -1.925  -4.990  0.00  0.00    +0.020 A 
ATOM     12  C   UNL     1      -1.433  -1.341  -4.524  0.00  0.00    +0.008 A 
ENDBRANCH   3   7
TORSDOF 1
ENDMDL
MODEL 9
REMARK VINA RESULT:     0.000      3.614      5.133
REMARK INTER + INTRA:          -0.256
REMARK INTER:                   0.000
REMARK INTRA:                  -0.256
REMARK UNBOUND:                -0.256
REMARK  Name = Nicotine.pdb
REMARK  2 active torsions:
REMARK  status: ('A' for Active; 'I' for Inactive)
REMARK    1  A    between atoms: C_3  and  C_6
REMARK    2  A    between atoms: N_4  and  C_12
REMARK                            x       y       z     vdW  Elec       q    Type
REMARK                         _______ _______ _______ _____ _____    ______ ____
ROOT
ATOM      1  C   UNL     1       5.873  -1.812  -1.301  0.00  0.00    +0.017 C 
ATOM      2  C   UNL     1       5.863  -0.286  -1.019  0.00  0.00    +0.025 C 
ATOM      3  C   UNL     1       5.461  -0.210   0.469  0.00  0.00    +0.088 C 
ATOM      4  N   UNL     1       4.764  -1.466   0.798  0.00  0.00    -0.298 NA
ATOM      5  C   UNL     1       4.694  -2.299  -0.422  0.00  0.00    +0.085 C 
ATOM      6  C   UNL     1       5.446  -2.180   1.885  0.00  0.00    +0.105 C 
ENDROOT
BRANCH   3   7
ATOM      7  C   UNL     1       4.542   0.962   0.693  0.00  0.00    -0.012 A 
ATOM      8  C   UNL     1       4.397   1.505   1.956  0.00  0.00    +0.115 A 
ATOM      9  N   UNL     1       3.594   2.532   2.160  0.00  0.00    -0.263 NA
ATOM     10  C   UNL     1       2.903   3.078   1.179  0.00  0.00    +0.111 A 
ATOM     11  C   UNL     1       2.998   2.589  -0.111  0.00  0.00    +0.020 A 
ATOM     12  C   UNL     1       3.836   1.514  -0.365  0.00  0.00    +0.008 A 
ENDBRANCH   3   7
TORSDOF 1
ENDMDL
MODEL 10
REMARK VINA RESULT:     0.000      9.623     11.605
REMARK INTER + INTRA:          -0.256
REMARK INTER:                   0.000
REMARK INTRA:                  -0.256
REMARK UNBOUND:                -0.256
REMARK  Name = Nicotine.pdb
REMARK  2 active torsions:
REMARK  status: ('A' for Active; 'I' for Inactive)
REMARK    1  A    between atoms: C_3  and  C_6
REMARK    2  A    between atoms: N_4  and  C_12
REMARK                            x       y       z     vdW  Elec       q    Type
REMARK                         _______ _______ _______ _____ _____    ______ ____
ROOT
ATOM      1  C   UNL     1      -1.062   0.714  -0.643  0.00  0.00    +0.017 C 
ATOM      2  C   UNL     1      -2.032   0.523  -1.839  0.00  0.00    +0.025 C 
ATOM      3  C   UNL     1      -2.884  -0.689  -1.404  0.00  0.00    +0.088 C 
ATOM      4  N   UNL     1      -2.104  -1.432  -0.398  0.00  0.00    -0.298 NA
ATOM      5  C   UNL     1      -0.805  -0.751  -0.211  0.00  0.00    +0.085 C 
ATOM      6  C   UNL     1      -2.837  -1.527   0.871  0.00  0.00    +0.105 C 
ENDROOT
BRANCH   3   7
ATOM      7  C   UNL     1      -3.163  -1.571  -2.593  0.00  0.00    -0.012 A 
ATOM      8  C   UNL     1      -4.232  -2.448  -2.577  0.00  0.00    +0.115 A 
ATOM      9  N   UNL     1      -4.484  -3.224  -3.613  0.00  0.00    -0.263 NA
ATOM     10  C   UNL     1      -3.734  -3.197  -4.697  0.00  0.00    +0.111 A 
ATOM     11  C   UNL     1      -2.648  -2.346  -4.786  0.00  0.00    +0.020 A 
ATOM     12  C   UNL     1      -2.355  -1.511  -3.718  0.00  0.00    +0.008 A 
ENDBRANCH   3   7
TORSDOF 1
ENDMDL
