MODEL 1
REMARK VINA RESULT:    -3.805      0.000      0.000
REMARK INTER + INTRA:          -4.282
REMARK INTER:                  -4.028
REMARK INTRA:                  -0.254
REMARK UNBOUND:                -0.254
REMARK  Name = Nicotine.pdb
REMARK  2 active torsions:
REMARK  status: ('A' for Active; 'I' for Inactive)
REMARK    1  A    between atoms: C_3  and  C_6
REMARK    2  A    between atoms: N_4  and  C_12
REMARK                            x       y       z     vdW  Elec       q    Type
REMARK                         _______ _______ _______ _____ _____    ______ ____
ROOT
ATOM      1  C   UNL     1      10.269  -3.094  -6.917  0.00  0.00    +0.017 C 
ATOM      2  C   UNL     1       8.780  -2.662  -6.868  0.00  0.00    +0.025 C 
ATOM      3  C   UNL     1       8.868  -1.127  -6.729  0.00  0.00    +0.088 C 
ATOM      4  N   UNL     1      10.198  -0.814  -6.174  0.00  0.00    -0.298 NA
ATOM      5  C   UNL     1      10.921  -2.082  -5.941  0.00  0.00    +0.085 C 
ATOM      6  C   UNL     1      10.952   0.065  -7.077  0.00  0.00    +0.105 C 
ENDROOT
BRANCH   3   7
ATOM      7  C   UNL     1       7.793  -0.634  -5.797  0.00  0.00    -0.012 A 
ATOM      8  C   UNL     1       7.222   0.611  -5.984  0.00  0.00    +0.115 A 
ATOM      9  N   UNL     1       6.280   1.051  -5.172  0.00  0.00    -0.263 NA
ATOM     10  C   UNL     1       5.847   0.328  -4.158  0.00  0.00    +0.111 A 
ATOM     11  C   UNL     1       6.370  -0.927  -3.909  0.00  0.00    +0.020 A 
ATOM     12  C   UNL     1       7.358  -1.424  -4.744  0.00  0.00    +0.008 A 
ENDBRANCH   3   7
TORSDOF 1
ENDMDL
MODEL 2
REMARK VINA RESULT:    -3.565      1.958      3.931
REMARK INTER + INTRA:          -4.028
REMARK INTER:                  -3.806
REMARK INTRA:                  -0.222
REMARK UNBOUND:                -0.254
REMARK  Name = Nicotine.pdb
REMARK  2 active torsions:
REMARK  status: ('A' for Active; 'I' for Inactive)
REMARK    1  A    between atoms: C_3  and  C_6
REMARK    2  A    between atoms: N_4  and  C_12
REMARK                            x       y       z     vdW  Elec       q    Type
REMARK                         _______ _______ _______ _____ _____    ______ ____
ROOT
ATOM      1  C   UNL     1       6.593  -1.185  -3.788  0.00  0.00    +0.017 C 
ATOM      2  C   UNL     1       6.549   0.121  -4.626  0.00  0.00    +0.025 C 
ATOM      3  C   UNL     1       7.544  -0.168  -5.771  0.00  0.00    +0.088 C 
ATOM      4  N   UNL     1       8.454  -1.229  -5.302  0.00  0.00    -0.298 NA
ATOM      5  C   UNL     1       8.083  -1.589  -3.917  0.00  0.00    +0.085 C 
ATOM      6  C   UNL     1       8.395  -2.401  -6.185  0.00  0.00    +0.105 C 
ENDROOT
BRANCH   3   7
ATOM      7  C   UNL     1       8.329   1.077  -6.093  0.00  0.00    -0.012 A 
ATOM      8  C   UNL     1       9.703   1.094  -5.951  0.00  0.00    +0.115 A 
ATOM      9  N   UNL     1      10.398   2.179  -6.231  0.00  0.00    -0.263 NA
ATOM     10  C   UNL     1       9.816   3.284  -6.655  0.00  0.00    +0.111 A 
ATOM     11  C   UNL     1       8.445   3.342  -6.823  0.00  0.00    +0.020 A 
ATOM     12  C   UNL     1       7.683   2.219  -6.543  0.00  0.00    +0.008 A 
ENDBRANCH   3   7
TORSDOF 1
ENDMDL
MODEL 3
REMARK VINA RESULT:    -3.278      1.868      2.562
REMARK INTER + INTRA:          -3.724
REMARK INTER:                  -3.482
REMARK INTRA:                  -0.242
REMARK UNBOUND:                -0.254
REMARK  Name = Nicotine.pdb
REMARK  2 active torsions:
REMARK  status: ('A' for Active; 'I' for Inactive)
REMARK    1  A    between atoms: C_3  and  C_6
REMARK    2  A    between atoms: N_4  and  C_12
REMARK                            x       y       z     vdW  Elec       q    Type
REMARK                         _______ _______ _______ _____ _____    ______ ____
ROOT
ATOM      1  C   UNL     1      10.946   0.938  -6.834  0.00  0.00    +0.017 C 
ATOM      2  C   UNL     1       9.701   0.016  -6.758  0.00  0.00    +0.025 C 
ATOM      3  C   UNL     1       8.537   1.016  -6.598  0.00  0.00    +0.088 C 
ATOM      4  N   UNL     1       9.104   2.264  -6.057  0.00  0.00    -0.298 NA
ATOM      5  C   UNL     1      10.556   2.071  -5.852  0.00  0.00    +0.085 C 
ATOM      6  C   UNL     1       8.844   3.395  -6.956  0.00  0.00    +0.105 C 
ENDROOT
BRANCH   3   7
ATOM      7  C   UNL     1       7.512   0.461  -5.644  0.00  0.00    -0.012 A 
ATOM      8  C   UNL     1       6.352   1.164  -5.377  0.00  0.00    +0.115 A 
ATOM      9  N   UNL     1       5.450   0.685  -4.543  0.00  0.00    -0.263 NA
ATOM     10  C   UNL     1       5.614  -0.473  -3.934  0.00  0.00    +0.111 A 
ATOM     11  C   UNL     1       6.748  -1.232  -4.152  0.00  0.00    +0.020 A 
ATOM     12  C   UNL     1       7.717  -0.764  -5.026  0.00  0.00    +0.008 A 
ENDBRANCH   3   7
TORSDOF 1
ENDMDL
MODEL 4
REMARK VINA RESULT:    -3.156      1.239      2.200
REMARK INTER + INTRA:          -3.595
REMARK INTER:                  -3.387
REMARK INTRA:                  -0.208
REMARK UNBOUND:                -0.254
REMARK  Name = Nicotine.pdb
REMARK  2 active torsions:
REMARK  status: ('A' for Active; 'I' for Inactive)
REMARK    1  A    between atoms: C_3  and  C_6
REMARK    2  A    between atoms: N_4  and  C_12
REMARK                            x       y       z     vdW  Elec       q    Type
REMARK                         _______ _______ _______ _____ _____    ______ ____
ROOT
ATOM      1  C   UNL     1      10.920  -2.193  -4.209  0.00  0.00    +0.017 C 
ATOM      2  C   UNL     1       9.475  -1.885  -3.737  0.00  0.00    +0.025 C 
ATOM      3  C   UNL     1       8.662  -1.943  -5.048  0.00  0.00    +0.088 C 
ATOM      4  N   UNL     1       9.606  -1.715  -6.158  0.00  0.00    -0.298 NA
ATOM      5  C   UNL     1      10.954  -1.495  -5.592  0.00  0.00    +0.085 C 
ATOM      6  C   UNL     1       9.605  -2.848  -7.091  0.00  0.00    +0.105 C 
ENDROOT
BRANCH   3   7
ATOM      7  C   UNL     1       7.605  -0.869  -5.044  0.00  0.00    -0.012 A 
ATOM      8  C   UNL     1       6.482  -0.998  -4.249  0.00  0.00    +0.115 A 
ATOM      9  N   UNL     1       5.552  -0.063  -4.239  0.00  0.00    -0.263 NA
ATOM     10  C   UNL     1       5.653   1.023  -4.980  0.00  0.00    +0.111 A 
ATOM     11  C   UNL     1       6.748   1.221  -5.800  0.00  0.00    +0.020 A 
ATOM     12  C   UNL     1       7.749   0.262  -5.832  0.00  0.00    +0.008 A 
ENDBRANCH   3   7
TORSDOF 1
ENDMDL
MODEL 5
REMARK VINA RESULT:    -2.687      1.233      4.449
REMARK INTER + INTRA:          -3.098
REMARK INTER:                  -2.905
REMARK INTRA:                  -0.193
REMARK UNBOUND:                -0.254
REMARK  Name = Nicotine.pdb
REMARK  2 active torsions:
REMARK  status: ('A' for Active; 'I' for Inactive)
REMARK    1  A    between atoms: C_3  and  C_6
REMARK    2  A    between atoms: N_4  and  C_12
REMARK                            x       y       z     vdW  Elec       q    Type
REMARK                         _______ _______ _______ _____ _____    ______ ____
ROOT
ATOM      1  C   UNL     1       6.253  -0.572  -3.289  0.00  0.00    +0.017 C 
ATOM      2  C   UNL     1       7.621  -1.259  -3.541  0.00  0.00    +0.025 C 
ATOM      3  C   UNL     1       8.101  -0.607  -4.855  0.00  0.00    +0.088 C 
ATOM      4  N   UNL     1       6.907  -0.086  -5.546  0.00  0.00    -0.298 NA
ATOM      5  C   UNL     1       5.715  -0.409  -4.733  0.00  0.00    +0.085 C 
ATOM      6  C   UNL     1       7.017   1.361  -5.769  0.00  0.00    +0.105 C 
ENDROOT
BRANCH   3   7
ATOM      7  C   UNL     1       8.786  -1.635  -5.718  0.00  0.00    -0.012 A 
ATOM      8  C   UNL     1      10.166  -1.703  -5.761  0.00  0.00    +0.115 A 
ATOM      9  N   UNL     1      10.773  -2.600  -6.514  0.00  0.00    -0.263 NA
ATOM     10  C   UNL     1      10.097  -3.460  -7.249  0.00  0.00    +0.111 A 
ATOM     11  C   UNL     1       8.715  -3.453  -7.256  0.00  0.00    +0.020 A 
ATOM     12  C   UNL     1       8.041  -2.527  -6.473  0.00  0.00    +0.008 A 
ENDBRANCH   3   7
TORSDOF 1
ENDMDL
MODEL 6
REMARK VINA RESULT:    -2.686      2.000      3.060
REMARK INTER + INTRA:          -3.097
REMARK INTER:                  -2.883
REMARK INTRA:                  -0.214
REMARK UNBOUND:                -0.254
REMARK  Name = Nicotine.pdb
REMARK  2 active torsions:
REMARK  status: ('A' for Active; 'I' for Inactive)
REMARK    1  A    between atoms: C_3  and  C_6
REMARK    2  A    between atoms: N_4  and  C_12
REMARK                            x       y       z     vdW  Elec       q    Type
REMARK                         _______ _______ _______ _____ _____    ______ ____
ROOT
ATOM      1  C   UNL     1      10.226  -2.801  -7.037  0.00  0.00    +0.017 C 
ATOM      2  C   UNL     1      10.563  -1.300  -7.237  0.00  0.00    +0.025 C 
ATOM      3  C   UNL     1       9.937  -0.634  -5.993  0.00  0.00    +0.088 C 
ATOM      4  N   UNL     1       8.890  -1.543  -5.492  0.00  0.00    -0.298 NA
ATOM      5  C   UNL     1       8.824  -2.722  -6.382  0.00  0.00    +0.085 C 
ATOM      6  C   UNL     1       9.159  -1.943  -4.105  0.00  0.00    +0.105 C 
ENDROOT
BRANCH   3   7
ATOM      7  C   UNL     1       9.329   0.691  -6.372  0.00  0.00    -0.012 A 
ATOM      8  C   UNL     1      10.122   1.706  -6.874  0.00  0.00    +0.115 A 
ATOM      9  N   UNL     1       9.598   2.869  -7.208  0.00  0.00    -0.263 NA
ATOM     10  C   UNL     1       8.309   3.111  -7.078  0.00  0.00    +0.111 A 
ATOM     11  C   UNL     1       7.453   2.144  -6.583  0.00  0.00    +0.020 A 
ATOM     12  C   UNL     1       7.967   0.907  -6.227  0.00  0.00    +0.008 A 
ENDBRANCH   3   7
TORSDOF 1
ENDMDL
MODEL 7
REMARK VINA RESULT:    -2.683      9.562     10.817
REMARK INTER + INTRA:          -3.094
REMARK INTER:                  -2.878
REMARK INTRA:                  -0.216
REMARK UNBOUND:                -0.254
REMARK  Name = Nicotine.pdb
REMARK  2 active torsions:
REMARK  status: ('A' for Active; 'I' for Inactive)
REMARK    1  A    between atoms: C_3  and  C_6
REMARK    2  A    between atoms: N_4  and  C_12
REMARK                            x       y       z     vdW  Elec       q    Type
REMARK                         _______ _______ _______ _____ _____    ______ ____
ROOT
ATOM      1  C   UNL     1      10.914   2.698   1.160  0.00  0.00    +0.017 C 
ATOM      2  C   UNL     1      10.948   3.867   2.179  0.00  0.00    +0.025 C 
ATOM      3  C   UNL     1      10.212   3.281   3.403  0.00  0.00    +0.088 C 
ATOM      4  N   UNL     1       9.367   2.176   2.918  0.00  0.00    -0.298 NA
ATOM      5  C   UNL     1       9.528   2.069   1.452  0.00  0.00    +0.085 C 
ATOM      6  C   UNL     1       9.719   0.913   3.580  0.00  0.00    +0.105 C 
ENDROOT
BRANCH   3   7
ATOM      7  C   UNL     1       9.353   4.343   4.041  0.00  0.00    -0.012 A 
ATOM      8  C   UNL     1       8.253   3.989   4.799  0.00  0.00    +0.115 A 
ATOM      9  N   UNL     1       7.497   4.912   5.361  0.00  0.00    -0.263 NA
ATOM     10  C   UNL     1       7.754   6.198   5.224  0.00  0.00    +0.111 A 
ATOM     11  C   UNL     1       8.838   6.627   4.480  0.00  0.00    +0.020 A 
ATOM     12  C   UNL     1       9.659   5.685   3.879  0.00  0.00    +0.008 A 
ENDBRANCH   3   7
TORSDOF 1
ENDMDL
MODEL 8
REMARK VINA RESULT:    -2.631      1.650      4.271
REMARK INTER + INTRA:          -3.039
REMARK INTER:                  -2.825
REMARK INTRA:                  -0.214
REMARK UNBOUND:                -0.254
REMARK  Name = Nicotine.pdb
REMARK  2 active torsions:
REMARK  status: ('A' for Active; 'I' for Inactive)
REMARK    1  A    between atoms: C_3  and  C_6
REMARK    2  A    between atoms: N_4  and  C_12
REMARK                            x       y       z     vdW  Elec       q    Type
REMARK                         _______ _______ _______ _____ _____    ______ ____
ROOT
ATOM      1  C   UNL     1       6.487   1.349  -5.492  0.00  0.00    +0.017 C 
ATOM      2  C   UNL     1       7.175   0.013  -5.107  0.00  0.00    +0.025 C 
ATOM      3  C   UNL     1       8.618   0.204  -5.621  0.00  0.00    +0.088 C 
ATOM      4  N   UNL     1       8.575   1.240  -6.668  0.00  0.00    -0.298 NA
ATOM      5  C   UNL     1       7.173   1.676  -6.842  0.00  0.00    +0.085 C 
ATOM      6  C   UNL     1       9.441   2.375  -6.324  0.00  0.00    +0.105 C 
ENDROOT
BRANCH   3   7
ATOM      7  C   UNL     1       9.133  -1.089  -6.197  0.00  0.00    -0.012 A 
ATOM      8  C   UNL     1       8.258  -2.007  -6.745  0.00  0.00    +0.115 A 
ATOM      9  N   UNL     1       8.701  -3.142  -7.252  0.00  0.00    -0.263 NA
ATOM     10  C   UNL     1       9.984  -3.445  -7.256  0.00  0.00    +0.111 A 
ATOM     11  C   UNL     1      10.918  -2.575  -6.725  0.00  0.00    +0.020 A 
ATOM     12  C   UNL     1      10.491  -1.371  -6.188  0.00  0.00    +0.008 A 
ENDBRANCH   3   7
TORSDOF 1
ENDMDL
MODEL 9
REMARK VINA RESULT:    -2.475      9.724     11.504
REMARK INTER + INTRA:          -2.874
REMARK INTER:                  -2.654
REMARK INTRA:                  -0.220
REMARK UNBOUND:                -0.254
REMARK  Name = Nicotine.pdb
REMARK  2 active torsions:
REMARK  status: ('A' for Active; 'I' for Inactive)
REMARK    1  A    between atoms: C_3  and  C_6
REMARK    2  A    between atoms: N_4  and  C_12
REMARK                            x       y       z     vdW  Elec       q    Type
REMARK                         _______ _______ _______ _____ _____    ______ ____
ROOT
ATOM      1  C   UNL     1       7.627   4.624   6.244  0.00  0.00    +0.017 C 
ATOM      2  C   UNL     1       8.432   3.437   5.652  0.00  0.00    +0.025 C 
ATOM      3  C   UNL     1       9.529   4.141   4.824  0.00  0.00    +0.088 C 
ATOM      4  N   UNL     1       9.040   5.496   4.513  0.00  0.00    -0.298 NA
ATOM      5  C   UNL     1       7.686   5.651   5.086  0.00  0.00    +0.085 C 
ATOM      6  C   UNL     1       9.954   6.519   5.036  0.00  0.00    +0.105 C 
ENDROOT
BRANCH   3   7
ATOM      7  C   UNL     1       9.778   3.378   3.549  0.00  0.00    -0.012 A 
ATOM      8  C   UNL     1      10.449   3.973   2.498  0.00  0.00    +0.115 A 
ATOM      9  N   UNL     1      10.671   3.313   1.378  0.00  0.00    -0.263 NA
ATOM     10  C   UNL     1      10.266   2.069   1.216  0.00  0.00    +0.111 A 
ATOM     11  C   UNL     1       9.589   1.408   2.223  0.00  0.00    +0.020 A 
ATOM     12  C   UNL     1       9.341   2.068   3.417  0.00  0.00    +0.008 A 
ENDBRANCH   3   7
TORSDOF 1
ENDMDL
MODEL 10
REMARK VINA RESULT:    -2.210      1.456      4.679
REMARK INTER + INTRA:          -2.593
REMARK INTER:                  -2.367
REMARK INTRA:                  -0.226
REMARK UNBOUND:                -0.254
REMARK  Name = Nicotine.pdb
REMARK  2 active torsions:
REMARK  status: ('A' for Active; 'I' for Inactive)
REMARK    1  A    between atoms: C_3  and  C_6
REMARK    2  A    between atoms: N_4  and  C_12
REMARK                            x       y       z     vdW  Elec       q    Type
REMARK                         _______ _______ _______ _____ _____    ______ ____
ROOT
ATOM      1  C   UNL     1       6.106   0.798  -4.670  0.00  0.00    +0.017 C 
ATOM      2  C   UNL     1       7.089   0.361  -5.788  0.00  0.00    +0.025 C 
ATOM      3  C   UNL     1       7.087  -1.178  -5.670  0.00  0.00    +0.088 C 
ATOM      4  N   UNL     1       6.643  -1.511  -4.305  0.00  0.00    -0.298 NA
ATOM      5  C   UNL     1       6.396  -0.252  -3.569  0.00  0.00    +0.085 C 
ATOM      6  C   UNL     1       5.438  -2.350  -4.333  0.00  0.00    +0.105 C 
ENDROOT
BRANCH   3   7
ATOM      7  C   UNL     1       8.477  -1.712  -5.903  0.00  0.00    -0.012 A 
ATOM      8  C   UNL     1       8.702  -2.680  -6.863  0.00  0.00    +0.115 A 
ATOM      9  N   UNL     1       9.915  -3.153  -7.074  0.00  0.00    -0.263 NA
ATOM     10  C   UNL     1      10.954  -2.726  -6.384  0.00  0.00    +0.111 A 
ATOM     11  C   UNL     1      10.806  -1.758  -5.408  0.00  0.00    +0.020 A 
ATOM     12  C   UNL     1       9.547  -1.234  -5.162  0.00  0.00    +0.008 A 
ENDBRANCH   3   7
TORSDOF 1
ENDMDL
