MODEL 1
REMARK VINA RESULT:    -3.636      0.000      0.000
REMARK INTER + INTRA:          -4.038
REMARK INTER:                  -3.849
REMARK INTRA:                  -0.190
REMARK UNBOUND:                -0.190
REMARK  Name = Nicotine.pdb
REMARK  2 active torsions:
REMARK  status: ('A' for Active; 'I' for Inactive)
REMARK    1  A    between atoms: C_3  and  C_6
REMARK    2  A    between atoms: N_4  and  C_12
REMARK                            x       y       z     vdW  Elec       q    Type
REMARK                         _______ _______ _______ _____ _____    ______ ____
ROOT
ATOM      1  C   UNL     1      10.205   5.545  -5.570  0.00  0.00    +0.017 C 
ATOM      2  C   UNL     1      10.867   4.921  -4.314  0.00  0.00    +0.025 C 
ATOM      3  C   UNL     1      10.603   3.411  -4.496  0.00  0.00    +0.088 C 
ATOM      4  N   UNL     1       9.446   3.276  -5.399  0.00  0.00    -0.298 NA
ATOM      5  C   UNL     1       8.971   4.628  -5.761  0.00  0.00    +0.085 C 
ATOM      6  C   UNL     1       9.800   2.504  -6.597  0.00  0.00    +0.105 C 
ENDROOT
BRANCH   3   7
ATOM      7  C   UNL     1      10.290   2.782  -3.163  0.00  0.00    -0.012 A 
ATOM      8  C   UNL     1      10.501   3.484  -1.991  0.00  0.00    +0.115 A 
ATOM      9  N   UNL     1      10.230   2.940  -0.821  0.00  0.00    -0.263 NA
ATOM     10  C   UNL     1       9.752   1.715  -0.720  0.00  0.00    +0.111 A 
ATOM     11  C   UNL     1       9.515   0.953  -1.848  0.00  0.00    +0.020 A 
ATOM     12  C   UNL     1       9.783   1.493  -3.096  0.00  0.00    +0.008 A 
ENDBRANCH   3   7
TORSDOF 1
ENDMDL
MODEL 2
REMARK VINA RESULT:    -3.633      7.820      9.743
REMARK INTER + INTRA:          -4.035
REMARK INTER:                  -3.787
REMARK INTRA:                  -0.249
REMARK UNBOUND:                -0.190
REMARK  Name = Nicotine.pdb
REMARK  2 active torsions:
REMARK  status: ('A' for Active; 'I' for Inactive)
REMARK    1  A    between atoms: C_3  and  C_6
REMARK    2  A    between atoms: N_4  and  C_12
REMARK                            x       y       z     vdW  Elec       q    Type
REMARK                         _______ _______ _______ _____ _____    ______ ____
ROOT
ATOM      1  C   UNL     1       3.931   4.834   3.673  0.00  0.00    +0.017 C 
ATOM      2  C   UNL     1       4.102   3.925   4.919  0.00  0.00    +0.025 C 
ATOM      3  C   UNL     1       5.475   3.262   4.678  0.00  0.00    +0.088 C 
ATOM      4  N   UNL     1       5.745   3.328   3.231  0.00  0.00    -0.298 NA
ATOM      5  C   UNL     1       4.594   3.977   2.567  0.00  0.00    +0.085 C 
ATOM      6  C   UNL     1       6.990   4.058   2.960  0.00  0.00    +0.105 C 
ENDROOT
BRANCH   3   7
ATOM      7  C   UNL     1       5.436   1.825   5.129  0.00  0.00    -0.012 A 
ATOM      8  C   UNL     1       6.592   1.067   5.151  0.00  0.00    +0.115 A 
ATOM      9  N   UNL     1       6.566  -0.191   5.544  0.00  0.00    -0.263 NA
ATOM     10  C   UNL     1       5.448  -0.774   5.929  0.00  0.00    +0.111 A 
ATOM     11  C   UNL     1       4.253  -0.080   5.934  0.00  0.00    +0.020 A 
ATOM     12  C   UNL     1       4.242   1.247   5.533  0.00  0.00    +0.008 A 
ENDBRANCH   3   7
TORSDOF 1
ENDMDL
MODEL 3
REMARK VINA RESULT:    -3.613      7.641      9.814
REMARK INTER + INTRA:          -4.014
REMARK INTER:                  -3.782
REMARK INTRA:                  -0.232
REMARK UNBOUND:                -0.190
REMARK  Name = Nicotine.pdb
REMARK  2 active torsions:
REMARK  status: ('A' for Active; 'I' for Inactive)
REMARK    1  A    between atoms: C_3  and  C_6
REMARK    2  A    between atoms: N_4  and  C_12
REMARK                            x       y       z     vdW  Elec       q    Type
REMARK                         _______ _______ _______ _____ _____    ______ ____
ROOT
ATOM      1  C   UNL     1       6.944   2.963   2.106  0.00  0.00    +0.017 C 
ATOM      2  C   UNL     1       5.461   3.333   2.372  0.00  0.00    +0.025 C 
ATOM      3  C   UNL     1       5.570   4.514   3.359  0.00  0.00    +0.088 C 
ATOM      4  N   UNL     1       6.889   4.419   4.011  0.00  0.00    -0.298 NA
ATOM      5  C   UNL     1       7.585   3.222   3.492  0.00  0.00    +0.085 C 
ATOM      6  C   UNL     1       7.682   5.633   3.777  0.00  0.00    +0.105 C 
ENDROOT
BRANCH   3   7
ATOM      7  C   UNL     1       4.478   4.421   4.393  0.00  0.00    -0.012 A 
ATOM      8  C   UNL     1       3.667   5.510   4.652  0.00  0.00    +0.115 A 
ATOM      9  N   UNL     1       2.708   5.437   5.555  0.00  0.00    -0.263 NA
ATOM     10  C   UNL     1       2.486   4.334   6.242  0.00  0.00    +0.111 A 
ATOM     11  C   UNL     1       3.257   3.205   6.037  0.00  0.00    +0.020 A 
ATOM     12  C   UNL     1       4.271   3.242   5.092  0.00  0.00    +0.008 A 
ENDBRANCH   3   7
TORSDOF 1
ENDMDL
MODEL 4
REMARK VINA RESULT:    -3.576      7.895      9.285
REMARK INTER + INTRA:          -3.975
REMARK INTER:                  -3.768
REMARK INTRA:                  -0.207
REMARK UNBOUND:                -0.190
REMARK  Name = Nicotine.pdb
REMARK  2 active torsions:
REMARK  status: ('A' for Active; 'I' for Inactive)
REMARK    1  A    between atoms: C_3  and  C_6
REMARK    2  A    between atoms: N_4  and  C_12
REMARK                            x       y       z     vdW  Elec       q    Type
REMARK                         _______ _______ _______ _____ _____    ______ ____
ROOT
ATOM      1  C   UNL     1       5.377   4.861   1.743  0.00  0.00    +0.017 C 
ATOM      2  C   UNL     1       5.384   3.354   2.111  0.00  0.00    +0.025 C 
ATOM      3  C   UNL     1       4.716   3.333   3.502  0.00  0.00    +0.088 C 
ATOM      4  N   UNL     1       4.868   4.681   4.080  0.00  0.00    -0.298 NA
ATOM      5  C   UNL     1       5.619   5.521   3.123  0.00  0.00    +0.085 C 
ATOM      6  C   UNL     1       3.560   5.273   4.388  0.00  0.00    +0.105 C 
ENDROOT
BRANCH   3   7
ATOM      7  C   UNL     1       5.396   2.317   4.383  0.00  0.00    -0.012 A 
ATOM      8  C   UNL     1       6.771   2.180   4.359  0.00  0.00    +0.115 A 
ATOM      9  N   UNL     1       7.374   1.293   5.127  0.00  0.00    -0.263 NA
ATOM     10  C   UNL     1       6.697   0.507   5.941  0.00  0.00    +0.111 A 
ATOM     11  C   UNL     1       5.319   0.587   6.019  0.00  0.00    +0.020 A 
ATOM     12  C   UNL     1       4.651   1.512   5.231  0.00  0.00    +0.008 A 
ENDBRANCH   3   7
TORSDOF 1
ENDMDL
MODEL 5
REMARK VINA RESULT:    -3.423      6.105      7.526
REMARK INTER + INTRA:          -3.812
REMARK INTER:                  -3.617
REMARK INTRA:                  -0.195
REMARK UNBOUND:                -0.190
REMARK  Name = Nicotine.pdb
REMARK  2 active torsions:
REMARK  status: ('A' for Active; 'I' for Inactive)
REMARK    1  A    between atoms: C_3  and  C_6
REMARK    2  A    between atoms: N_4  and  C_12
REMARK                            x       y       z     vdW  Elec       q    Type
REMARK                         _______ _______ _______ _____ _____    ______ ____
ROOT
ATOM      1  C   UNL     1       4.331   4.227   2.353  0.00  0.00    +0.017 C 
ATOM      2  C   UNL     1       5.172   3.066   2.947  0.00  0.00    +0.025 C 
ATOM      3  C   UNL     1       6.525   3.741   3.257  0.00  0.00    +0.088 C 
ATOM      4  N   UNL     1       6.621   4.939   2.405  0.00  0.00    -0.298 NA
ATOM      5  C   UNL     1       5.405   5.021   1.568  0.00  0.00    +0.085 C 
ATOM      6  C   UNL     1       6.784   6.152   3.217  0.00  0.00    +0.105 C 
ENDROOT
BRANCH   3   7
ATOM      7  C   UNL     1       7.654   2.794   2.942  0.00  0.00    -0.012 A 
ATOM      8  C   UNL     1       8.316   2.132   3.959  0.00  0.00    +0.115 A 
ATOM      9  N   UNL     1       9.305   1.302   3.692  0.00  0.00    -0.263 NA
ATOM     10  C   UNL     1       9.701   1.070   2.457  0.00  0.00    +0.111 A 
ATOM     11  C   UNL     1       9.086   1.695   1.388  0.00  0.00    +0.020 A 
ATOM     12  C   UNL     1       8.039   2.571   1.629  0.00  0.00    +0.008 A 
ENDBRANCH   3   7
TORSDOF 1
ENDMDL
MODEL 6
REMARK VINA RESULT:    -3.355      5.533      9.187
REMARK INTER + INTRA:          -3.741
REMARK INTER:                  -3.485
REMARK INTRA:                  -0.256
REMARK UNBOUND:                -0.190
REMARK  Name = Nicotine.pdb
REMARK  2 active torsions:
REMARK  status: ('A' for Active; 'I' for Inactive)
REMARK    1  A    between atoms: C_3  and  C_6
REMARK    2  A    between atoms: N_4  and  C_12
REMARK                            x       y       z     vdW  Elec       q    Type
REMARK                         _______ _______ _______ _____ _____    ______ ____
ROOT
ATOM      1  C   UNL     1       9.430  -3.611   5.101  0.00  0.00    +0.017 C 
ATOM      2  C   UNL     1      10.266  -2.813   4.067  0.00  0.00    +0.025 C 
ATOM      3  C   UNL     1       9.474  -1.496   3.921  0.00  0.00    +0.088 C 
ATOM      4  N   UNL     1       8.090  -1.770   4.348  0.00  0.00    -0.298 NA
ATOM      5  C   UNL     1       7.986  -3.196   4.723  0.00  0.00    +0.085 C 
ATOM      6  C   UNL     1       7.701  -0.901   5.466  0.00  0.00    +0.105 C 
ENDROOT
BRANCH   3   7
ATOM      7  C   UNL     1       9.489  -1.044   2.484  0.00  0.00    -0.012 A 
ATOM      8  C   UNL     1       9.257   0.280   2.165  0.00  0.00    +0.115 A 
ATOM      9  N   UNL     1       9.268   0.684   0.910  0.00  0.00    -0.263 NA
ATOM     10  C   UNL     1       9.500  -0.150  -0.084  0.00  0.00    +0.111 A 
ATOM     11  C   UNL     1       9.742  -1.489   0.158  0.00  0.00    +0.020 A 
ATOM     12  C   UNL     1       9.743  -1.950   1.465  0.00  0.00    +0.008 A 
ENDBRANCH   3   7
TORSDOF 1
ENDMDL
MODEL 7
REMARK VINA RESULT:    -3.208      9.407     10.529
REMARK INTER + INTRA:          -3.585
REMARK INTER:                  -3.370
REMARK INTRA:                  -0.215
REMARK UNBOUND:                -0.190
REMARK  Name = Nicotine.pdb
REMARK  2 active torsions:
REMARK  status: ('A' for Active; 'I' for Inactive)
REMARK    1  A    between atoms: C_3  and  C_6
REMARK    2  A    between atoms: N_4  and  C_12
REMARK                            x       y       z     vdW  Elec       q    Type
REMARK                         _______ _______ _______ _____ _____    ______ ____
ROOT
ATOM      1  C   UNL     1       4.037   0.836   5.808  0.00  0.00    +0.017 C 
ATOM      2  C   UNL     1       4.884  -0.450   5.998  0.00  0.00    +0.025 C 
ATOM      3  C   UNL     1       6.331   0.086   6.005  0.00  0.00    +0.088 C 
ATOM      4  N   UNL     1       6.318   1.389   5.315  0.00  0.00    -0.298 NA
ATOM      5  C   UNL     1       4.939   1.668   4.862  0.00  0.00    +0.085 C 
ATOM      6  C   UNL     1       6.811   2.456   6.195  0.00  0.00    +0.105 C 
ENDROOT
BRANCH   3   7
ATOM      7  C   UNL     1       7.236  -0.873   5.275  0.00  0.00    -0.012 A 
ATOM      8  C   UNL     1       8.358  -0.410   4.614  0.00  0.00    +0.115 A 
ATOM      9  N   UNL     1       9.155  -1.242   3.973  0.00  0.00    -0.263 NA
ATOM     10  C   UNL     1       8.918  -2.539   3.936  0.00  0.00    +0.111 A 
ATOM     11  C   UNL     1       7.816  -3.075   4.575  0.00  0.00    +0.020 A 
ATOM     12  C   UNL     1       6.958  -2.231   5.263  0.00  0.00    +0.008 A 
ENDBRANCH   3   7
TORSDOF 1
ENDMDL
MODEL 8
REMARK VINA RESULT:    -3.202      5.861      8.374
REMARK INTER + INTRA:          -3.579
REMARK INTER:                  -3.380
REMARK INTRA:                  -0.199
REMARK UNBOUND:                -0.190
REMARK  Name = Nicotine.pdb
REMARK  2 active torsions:
REMARK  status: ('A' for Active; 'I' for Inactive)
REMARK    1  A    between atoms: C_3  and  C_6
REMARK    2  A    between atoms: N_4  and  C_12
REMARK                            x       y       z     vdW  Elec       q    Type
REMARK                         _______ _______ _______ _____ _____    ______ ____
ROOT
ATOM      1  C   UNL     1       9.503   2.635   4.423  0.00  0.00    +0.017 C 
ATOM      2  C   UNL     1       7.979   2.556   4.700  0.00  0.00    +0.025 C 
ATOM      3  C   UNL     1       7.366   2.603   3.284  0.00  0.00    +0.088 C 
ATOM      4  N   UNL     1       8.365   3.225   2.396  0.00  0.00    -0.298 NA
ATOM      5  C   UNL     1       9.551   3.586   3.201  0.00  0.00    +0.085 C 
ATOM      6  C   UNL     1       8.730   2.321   1.297  0.00  0.00    +0.105 C 
ENDROOT
BRANCH   3   7
ATOM      7  C   UNL     1       6.106   3.428   3.297  0.00  0.00    -0.012 A 
ATOM      8  C   UNL     1       5.635   3.967   4.479  0.00  0.00    +0.115 A 
ATOM      9  N   UNL     1       4.533   4.690   4.500  0.00  0.00    -0.263 NA
ATOM     10  C   UNL     1       3.839   4.927   3.404  0.00  0.00    +0.111 A 
ATOM     11  C   UNL     1       4.249   4.422   2.184  0.00  0.00    +0.020 A 
ATOM     12  C   UNL     1       5.406   3.661   2.123  0.00  0.00    +0.008 A 
ENDBRANCH   3   7
TORSDOF 1
ENDMDL
MODEL 9
REMARK VINA RESULT:    -3.129      8.617     10.563
REMARK INTER + INTRA:          -3.501
REMARK INTER:                  -3.286
REMARK INTRA:                  -0.215
REMARK UNBOUND:                -0.190
REMARK  Name = Nicotine.pdb
REMARK  2 active torsions:
REMARK  status: ('A' for Active; 'I' for Inactive)
REMARK    1  A    between atoms: C_3  and  C_6
REMARK    2  A    between atoms: N_4  and  C_12
REMARK                            x       y       z     vdW  Elec       q    Type
REMARK                         _______ _______ _______ _____ _____    ______ ____
ROOT
ATOM      1  C   UNL     1       5.713   0.308   6.010  0.00  0.00    +0.017 C 
ATOM      2  C   UNL     1       4.603   1.092   5.262  0.00  0.00    +0.025 C 
ATOM      3  C   UNL     1       5.405   2.085   4.394  0.00  0.00    +0.088 C 
ATOM      4  N   UNL     1       6.730   2.242   5.020  0.00  0.00    -0.298 NA
ATOM      5  C   UNL     1       6.773   1.413   6.244  0.00  0.00    +0.085 C 
ATOM      6  C   UNL     1       7.801   1.864   4.089  0.00  0.00    +0.105 C 
ENDROOT
BRANCH   3   7
ATOM      7  C   UNL     1       4.696   3.414   4.350  0.00  0.00    -0.012 A 
ATOM      8  C   UNL     1       3.781   3.752   5.329  0.00  0.00    +0.115 A 
ATOM      9  N   UNL     1       3.157   4.913   5.298  0.00  0.00    -0.263 NA
ATOM     10  C   UNL     1       3.377   5.793   4.341  0.00  0.00    +0.111 A 
ATOM     11  C   UNL     1       4.279   5.526   3.328  0.00  0.00    +0.020 A 
ATOM     12  C   UNL     1       4.959   4.317   3.331  0.00  0.00    +0.008 A 
ENDBRANCH   3   7
TORSDOF 1
ENDMDL
MODEL 10
REMARK VINA RESULT:    -3.103      6.437      8.239
REMARK INTER + INTRA:          -3.474
REMARK INTER:                  -3.221
REMARK INTRA:                  -0.253
REMARK UNBOUND:                -0.190
REMARK  Name = Nicotine.pdb
REMARK  2 active torsions:
REMARK  status: ('A' for Active; 'I' for Inactive)
REMARK    1  A    between atoms: C_3  and  C_6
REMARK    2  A    between atoms: N_4  and  C_12
REMARK                            x       y       z     vdW  Elec       q    Type
REMARK                         _______ _______ _______ _____ _____    ______ ____
ROOT
ATOM      1  C   UNL     1       9.261   1.229   2.109  0.00  0.00    +0.017 C 
ATOM      2  C   UNL     1       8.400   2.428   1.630  0.00  0.00    +0.025 C 
ATOM      3  C   UNL     1       8.265   3.289   2.904  0.00  0.00    +0.088 C 
ATOM      4  N   UNL     1       8.499   2.402   4.058  0.00  0.00    -0.298 NA
ATOM      5  C   UNL     1       8.746   1.033   3.557  0.00  0.00    +0.085 C 
ATOM      6  C   UNL     1       9.627   2.878   4.869  0.00  0.00    +0.105 C 
ENDROOT
BRANCH   3   7
ATOM      7  C   UNL     1       6.880   3.878   2.981  0.00  0.00    -0.012 A 
ATOM      8  C   UNL     1       6.593   4.873   3.896  0.00  0.00    +0.115 A 
ATOM      9  N   UNL     1       5.384   5.394   3.969  0.00  0.00    -0.263 NA
ATOM     10  C   UNL     1       4.407   4.991   3.181  0.00  0.00    +0.111 A 
ATOM     11  C   UNL     1       4.619   4.000   2.241  0.00  0.00    +0.020 A 
ATOM     12  C   UNL     1       5.879   3.433   2.131  0.00  0.00    +0.008 A 
ENDBRANCH   3   7
TORSDOF 1
ENDMDL
