MODEL 1
REMARK VINA RESULT:    -5.338      0.000      0.000
REMARK INTER + INTRA:          -5.901
REMARK INTER:                  -5.650
REMARK INTRA:                  -0.251
REMARK UNBOUND:                -0.251
REMARK  Name = Nicotine.pdb
REMARK  2 active torsions:
REMARK  status: ('A' for Active; 'I' for Inactive)
REMARK    1  A    between atoms: C_3  and  C_6
REMARK    2  A    between atoms: N_4  and  C_12
REMARK                            x       y       z     vdW  Elec       q    Type
REMARK                         _______ _______ _______ _____ _____    ______ ____
ROOT
ATOM      1  C   UNL     1       6.919  -0.052  -3.637  0.00  0.00    +0.017 C 
ATOM      2  C   UNL     1       7.913  -0.436  -2.510  0.00  0.00    +0.025 C 
ATOM      3  C   UNL     1       8.873  -1.419  -3.213  0.00  0.00    +0.088 C 
ATOM      4  N   UNL     1       8.159  -1.965  -4.382  0.00  0.00    -0.298 NA
ATOM      5  C   UNL     1       6.800  -1.385  -4.417  0.00  0.00    +0.085 C 
ATOM      6  C   UNL     1       8.887  -1.678  -5.625  0.00  0.00    +0.105 C 
ENDROOT
BRANCH   3   7
ATOM      7  C   UNL     1       9.245  -2.535  -2.271  0.00  0.00    -0.012 A 
ATOM      8  C   UNL     1      10.529  -3.047  -2.268  0.00  0.00    +0.115 A 
ATOM      9  N   UNL     1      10.863  -4.024  -1.447  0.00  0.00    -0.263 NA
ATOM     10  C   UNL     1       9.996  -4.547  -0.603  0.00  0.00    +0.111 A 
ATOM     11  C   UNL     1       8.694  -4.086  -0.549  0.00  0.00    +0.020 A 
ATOM     12  C   UNL     1       8.307  -3.057  -1.394  0.00  0.00    +0.008 A 
ENDBRANCH   3   7
TORSDOF 1
ENDMDL
MODEL 2
REMARK VINA RESULT:    -5.175      1.413      4.313
REMARK INTER + INTRA:          -5.729
REMARK INTER:                  -5.517
REMARK INTRA:                  -0.212
REMARK UNBOUND:                -0.251
REMARK  Name = Nicotine.pdb
REMARK  2 active torsions:
REMARK  status: ('A' for Active; 'I' for Inactive)
REMARK    1  A    between atoms: C_3  and  C_6
REMARK    2  A    between atoms: N_4  and  C_12
REMARK                            x       y       z     vdW  Elec       q    Type
REMARK                         _______ _______ _______ _____ _____    ______ ____
ROOT
ATOM      1  C   UNL     1       9.930  -4.416  -0.880  0.00  0.00    +0.017 C 
ATOM      2  C   UNL     1       8.565  -3.725  -1.134  0.00  0.00    +0.025 C 
ATOM      3  C   UNL     1       8.567  -3.502  -2.661  0.00  0.00    +0.088 C 
ATOM      4  N   UNL     1       9.973  -3.515  -3.103  0.00  0.00    -0.298 NA
ATOM      5  C   UNL     1      10.837  -3.709  -1.919  0.00  0.00    +0.085 C 
ATOM      6  C   UNL     1      10.202  -4.568  -4.101  0.00  0.00    +0.105 C 
ENDROOT
BRANCH   3   7
ATOM      7  C   UNL     1       7.938  -2.172  -2.987  0.00  0.00    -0.012 A 
ATOM      8  C   UNL     1       8.123  -1.088  -2.149  0.00  0.00    +0.115 A 
ATOM      9  N   UNL     1       7.576   0.080  -2.426  0.00  0.00    -0.263 NA
ATOM     10  C   UNL     1       6.837   0.261  -3.503  0.00  0.00    +0.111 A 
ATOM     11  C   UNL     1       6.609  -0.777  -4.388  0.00  0.00    +0.020 A 
ATOM     12  C   UNL     1       7.172  -2.018  -4.132  0.00  0.00    +0.008 A 
ENDBRANCH   3   7
TORSDOF 1
ENDMDL
MODEL 3
REMARK VINA RESULT:    -4.915      1.525      4.532
REMARK INTER + INTRA:          -5.453
REMARK INTER:                  -5.232
REMARK INTRA:                  -0.222
REMARK UNBOUND:                -0.251
REMARK  Name = Nicotine.pdb
REMARK  2 active torsions:
REMARK  status: ('A' for Active; 'I' for Inactive)
REMARK    1  A    between atoms: C_3  and  C_6
REMARK    2  A    between atoms: N_4  and  C_12
REMARK                            x       y       z     vdW  Elec       q    Type
REMARK                         _______ _______ _______ _____ _____    ______ ____
ROOT
ATOM      1  C   UNL     1       9.126  -3.595  -1.235  0.00  0.00    +0.017 C 
ATOM      2  C   UNL     1       7.984  -3.245  -2.225  0.00  0.00    +0.025 C 
ATOM      3  C   UNL     1       8.646  -3.451  -3.604  0.00  0.00    +0.088 C 
ATOM      4  N   UNL     1      10.103  -3.342  -3.411  0.00  0.00    -0.298 NA
ATOM      5  C   UNL     1      10.368  -3.053  -1.985  0.00  0.00    +0.085 C 
ATOM      6  C   UNL     1      10.785  -4.571  -3.836  0.00  0.00    +0.105 C 
ENDROOT
BRANCH   3   7
ATOM      7  C   UNL     1       8.173  -2.390  -4.563  0.00  0.00    -0.012 A 
ATOM      8  C   UNL     1       8.844  -2.173  -5.752  0.00  0.00    +0.115 A 
ATOM      9  N   UNL     1       8.437  -1.245  -6.597  0.00  0.00    -0.263 NA
ATOM     10  C   UNL     1       7.383  -0.494  -6.346  0.00  0.00    +0.111 A 
ATOM     11  C   UNL     1       6.662  -0.654  -5.177  0.00  0.00    +0.020 A 
ATOM     12  C   UNL     1       7.057  -1.622  -4.268  0.00  0.00    +0.008 A 
ENDBRANCH   3   7
TORSDOF 1
ENDMDL
MODEL 4
REMARK VINA RESULT:    -4.605      2.151      4.120
REMARK INTER + INTRA:          -5.125
REMARK INTER:                  -4.920
REMARK INTRA:                  -0.205
REMARK UNBOUND:                -0.251
REMARK  Name = Nicotine.pdb
REMARK  2 active torsions:
REMARK  status: ('A' for Active; 'I' for Inactive)
REMARK    1  A    between atoms: C_3  and  C_6
REMARK    2  A    between atoms: N_4  and  C_12
REMARK                            x       y       z     vdW  Elec       q    Type
REMARK                         _______ _______ _______ _____ _____    ______ ____
ROOT
ATOM      1  C   UNL     1      10.954  -4.617  -4.271  0.00  0.00    +0.017 C 
ATOM      2  C   UNL     1       9.850  -4.037  -3.348  0.00  0.00    +0.025 C 
ATOM      3  C   UNL     1       8.796  -3.521  -4.351  0.00  0.00    +0.088 C 
ATOM      4  N   UNL     1       9.485  -3.300  -5.635  0.00  0.00    -0.298 NA
ATOM      5  C   UNL     1      10.916  -3.630  -5.464  0.00  0.00    +0.085 C 
ATOM      6  C   UNL     1       8.882  -4.108  -6.703  0.00  0.00    +0.105 C 
ENDROOT
BRANCH   3   7
ATOM      7  C   UNL     1       8.206  -2.227  -3.855  0.00  0.00    -0.012 A 
ATOM      8  C   UNL     1       8.658  -1.658  -2.679  0.00  0.00    +0.115 A 
ATOM      9  N   UNL     1       8.147  -0.525  -2.238  0.00  0.00    -0.263 NA
ATOM     10  C   UNL     1       7.193   0.107  -2.893  0.00  0.00    +0.111 A 
ATOM     11  C   UNL     1       6.691  -0.402  -4.076  0.00  0.00    +0.020 A 
ATOM     12  C   UNL     1       7.207  -1.588  -4.574  0.00  0.00    +0.008 A 
ENDBRANCH   3   7
TORSDOF 1
ENDMDL
MODEL 5
REMARK VINA RESULT:    -4.513      1.805      4.060
REMARK INTER + INTRA:          -5.027
REMARK INTER:                  -4.784
REMARK INTRA:                  -0.243
REMARK UNBOUND:                -0.251
REMARK  Name = Nicotine.pdb
REMARK  2 active torsions:
REMARK  status: ('A' for Active; 'I' for Inactive)
REMARK    1  A    between atoms: C_3  and  C_6
REMARK    2  A    between atoms: N_4  and  C_12
REMARK                            x       y       z     vdW  Elec       q    Type
REMARK                         _______ _______ _______ _____ _____    ______ ____
ROOT
ATOM      1  C   UNL     1       7.541  -0.175  -2.695  0.00  0.00    +0.017 C 
ATOM      2  C   UNL     1       7.332  -0.849  -4.076  0.00  0.00    +0.025 C 
ATOM      3  C   UNL     1       7.841  -2.287  -3.841  0.00  0.00    +0.088 C 
ATOM      4  N   UNL     1       8.755  -2.243  -2.685  0.00  0.00    -0.298 NA
ATOM      5  C   UNL     1       8.852  -0.845  -2.214  0.00  0.00    +0.085 C 
ATOM      6  C   UNL     1       8.289  -3.130  -1.611  0.00  0.00    +0.105 C 
ENDROOT
BRANCH   3   7
ATOM      7  C   UNL     1       8.578  -2.776  -5.061  0.00  0.00    -0.012 A 
ATOM      8  C   UNL     1       9.086  -4.061  -5.102  0.00  0.00    +0.115 A 
ATOM      9  N   UNL     1       9.732  -4.497  -6.166  0.00  0.00    -0.263 NA
ATOM     10  C   UNL     1       9.920  -3.733  -7.224  0.00  0.00    +0.111 A 
ATOM     11  C   UNL     1       9.440  -2.437  -7.255  0.00  0.00    +0.020 A 
ATOM     12  C   UNL     1       8.751  -1.946  -6.157  0.00  0.00    +0.008 A 
ENDBRANCH   3   7
TORSDOF 1
ENDMDL
MODEL 6
REMARK VINA RESULT:    -4.219      2.323      4.348
REMARK INTER + INTRA:          -4.716
REMARK INTER:                  -4.501
REMARK INTRA:                  -0.216
REMARK UNBOUND:                -0.251
REMARK  Name = Nicotine.pdb
REMARK  2 active torsions:
REMARK  status: ('A' for Active; 'I' for Inactive)
REMARK    1  A    between atoms: C_3  and  C_6
REMARK    2  A    between atoms: N_4  and  C_12
REMARK                            x       y       z     vdW  Elec       q    Type
REMARK                         _______ _______ _______ _____ _____    ______ ____
ROOT
ATOM      1  C   UNL     1       9.653  -3.792  -7.207  0.00  0.00    +0.017 C 
ATOM      2  C   UNL     1       9.436  -2.340  -6.704  0.00  0.00    +0.025 C 
ATOM      3  C   UNL     1       9.688  -2.457  -5.186  0.00  0.00    +0.088 C 
ATOM      4  N   UNL     1       9.478  -3.869  -4.816  0.00  0.00    -0.298 NA
ATOM      5  C   UNL     1       9.084  -4.620  -6.027  0.00  0.00    +0.085 C 
ATOM      6  C   UNL     1      10.687  -4.441  -4.210  0.00  0.00    +0.105 C 
ENDROOT
BRANCH   3   7
ATOM      7  C   UNL     1       8.719  -1.580  -4.436  0.00  0.00    -0.012 A 
ATOM      8  C   UNL     1       7.547  -1.162  -5.036  0.00  0.00    +0.115 A 
ATOM      9  N   UNL     1       6.693  -0.393  -4.387  0.00  0.00    -0.263 NA
ATOM     10  C   UNL     1       6.921   0.005  -3.151  0.00  0.00    +0.111 A 
ATOM     11  C   UNL     1       8.072  -0.374  -2.486  0.00  0.00    +0.020 A 
ATOM     12  C   UNL     1       8.990  -1.185  -3.135  0.00  0.00    +0.008 A 
ENDBRANCH   3   7
TORSDOF 1
ENDMDL
MODEL 7
REMARK VINA RESULT:    -4.200      1.834      4.394
REMARK INTER + INTRA:          -4.696
REMARK INTER:                  -4.440
REMARK INTRA:                  -0.256
REMARK UNBOUND:                -0.251
REMARK  Name = Nicotine.pdb
REMARK  2 active torsions:
REMARK  status: ('A' for Active; 'I' for Inactive)
REMARK    1  A    between atoms: C_3  and  C_6
REMARK    2  A    between atoms: N_4  and  C_12
REMARK                            x       y       z     vdW  Elec       q    Type
REMARK                         _______ _______ _______ _____ _____    ______ ____
ROOT
ATOM      1  C   UNL     1       9.624  -3.845  -1.044  0.00  0.00    +0.017 C 
ATOM      2  C   UNL     1      10.332  -3.820  -2.424  0.00  0.00    +0.025 C 
ATOM      3  C   UNL     1       9.632  -2.653  -3.152  0.00  0.00    +0.088 C 
ATOM      4  N   UNL     1       8.323  -2.456  -2.503  0.00  0.00    -0.298 NA
ATOM      5  C   UNL     1       8.174  -3.460  -1.429  0.00  0.00    +0.085 C 
ATOM      6  C   UNL     1       8.199  -1.093  -1.971  0.00  0.00    +0.105 C 
ENDROOT
BRANCH   3   7
ATOM      7  C   UNL     1       9.439  -2.998  -4.606  0.00  0.00    -0.012 A 
ATOM      8  C   UNL     1       9.244  -2.000  -5.541  0.00  0.00    +0.115 A 
ATOM      9  N   UNL     1       9.074  -2.293  -6.816  0.00  0.00    -0.263 NA
ATOM     10  C   UNL     1       9.082  -3.539  -7.247  0.00  0.00    +0.111 A 
ATOM     11  C   UNL     1       9.271  -4.590  -6.370  0.00  0.00    +0.020 A 
ATOM     12  C   UNL     1       9.459  -4.320  -5.023  0.00  0.00    +0.008 A 
ENDBRANCH   3   7
TORSDOF 1
ENDMDL
MODEL 8
REMARK VINA RESULT:    -3.841      2.135      2.639
REMARK INTER + INTRA:          -4.316
REMARK INTER:                  -4.060
REMARK INTRA:                  -0.256
REMARK UNBOUND:                -0.251
REMARK  Name = Nicotine.pdb
REMARK  2 active torsions:
REMARK  status: ('A' for Active; 'I' for Inactive)
REMARK    1  A    between atoms: C_3  and  C_6
REMARK    2  A    between atoms: N_4  and  C_12
REMARK                            x       y       z     vdW  Elec       q    Type
REMARK                         _______ _______ _______ _____ _____    ______ ____
ROOT
ATOM      1  C   UNL     1       7.200  -0.123  -3.274  0.00  0.00    +0.017 C 
ATOM      2  C   UNL     1       8.619  -0.749  -3.207  0.00  0.00    +0.025 C 
ATOM      3  C   UNL     1       8.866  -1.202  -4.662  0.00  0.00    +0.088 C 
ATOM      4  N   UNL     1       7.548  -1.355  -5.303  0.00  0.00    -0.298 NA
ATOM      5  C   UNL     1       6.501  -1.043  -4.306  0.00  0.00    +0.085 C 
ATOM      6  C   UNL     1       7.430  -0.487  -6.481  0.00  0.00    +0.105 C 
ENDROOT
BRANCH   3   7
ATOM      7  C   UNL     1       9.598  -2.519  -4.670  0.00  0.00    -0.012 A 
ATOM      8  C   UNL     1      10.310  -2.916  -5.787  0.00  0.00    +0.115 A 
ATOM      9  N   UNL     1      10.953  -4.067  -5.802  0.00  0.00    -0.263 NA
ATOM     10  C   UNL     1      10.945  -4.880  -4.765  0.00  0.00    +0.111 A 
ATOM     11  C   UNL     1      10.255  -4.550  -3.613  0.00  0.00    +0.020 A 
ATOM     12  C   UNL     1       9.571  -3.346  -3.557  0.00  0.00    +0.008 A 
ENDBRANCH   3   7
TORSDOF 1
ENDMDL
