MODEL 1
REMARK VINA RESULT:    -2.965      0.000      0.000
REMARK INTER + INTRA:          -3.324
REMARK INTER:                  -3.138
REMARK INTRA:                  -0.186
REMARK UNBOUND:                -0.186
REMARK  Name = Nicotine.pdb
REMARK  2 active torsions:
REMARK  status: ('A' for Active; 'I' for Inactive)
REMARK    1  A    between atoms: C_3  and  C_6
REMARK    2  A    between atoms: N_4  and  C_12
REMARK                            x       y       z     vdW  Elec       q    Type
REMARK                         _______ _______ _______ _____ _____    ______ ____
ROOT
ATOM      1  C   UNL     1       9.633   2.038   1.509  0.00  0.00    +0.017 C 
ATOM      2  C   UNL     1      10.493   3.296   1.800  0.00  0.00    +0.025 C 
ATOM      3  C   UNL     1      10.952   3.073   3.257  0.00  0.00    +0.088 C 
ATOM      4  N   UNL     1       9.996   2.138   3.878  0.00  0.00    -0.298 NA
ATOM      5  C   UNL     1       8.958   1.795   2.882  0.00  0.00    +0.085 C 
ATOM      6  C   UNL     1      10.679   0.932   4.363  0.00  0.00    +0.105 C 
ENDROOT
BRANCH   3   7
ATOM      7  C   UNL     1      10.948   4.382   4.002  0.00  0.00    -0.012 A 
ATOM      8  C   UNL     1      10.953   5.580   3.312  0.00  0.00    +0.115 A 
ATOM      9  N   UNL     1      10.950   6.730   3.957  0.00  0.00    -0.263 NA
ATOM     10  C   UNL     1      10.941   6.786   5.274  0.00  0.00    +0.111 A 
ATOM     11  C   UNL     1      10.935   5.630   6.032  0.00  0.00    +0.020 A 
ATOM     12  C   UNL     1      10.933   4.402   5.389  0.00  0.00    +0.008 A 
ENDBRANCH   3   7
TORSDOF 1
ENDMDL
MODEL 2
REMARK VINA RESULT:    -1.869      1.158      4.721
REMARK INTER + INTRA:          -2.164
REMARK INTER:                  -1.978
REMARK INTRA:                  -0.186
REMARK UNBOUND:                -0.186
REMARK  Name = Nicotine.pdb
REMARK  2 active torsions:
REMARK  status: ('A' for Active; 'I' for Inactive)
REMARK    1  A    between atoms: C_3  and  C_6
REMARK    2  A    between atoms: N_4  and  C_12
REMARK                            x       y       z     vdW  Elec       q    Type
REMARK                         _______ _______ _______ _____ _____    ______ ____
ROOT
ATOM      1  C   UNL     1      10.264   6.877   6.115  0.00  0.00    +0.017 C 
ATOM      2  C   UNL     1      10.789   5.419   6.036  0.00  0.00    +0.025 C 
ATOM      3  C   UNL     1      10.953   5.191   4.518  0.00  0.00    +0.088 C 
ATOM      4  N   UNL     1      10.077   6.160   3.834  0.00  0.00    -0.298 NA
ATOM      5  C   UNL     1       9.364   6.954   4.857  0.00  0.00    +0.085 C 
ATOM      6  C   UNL     1      10.851   7.028   2.937  0.00  0.00    +0.105 C 
ENDROOT
BRANCH   3   7
ATOM      7  C   UNL     1      10.542   3.786   4.163  0.00  0.00    -0.012 A 
ATOM      8  C   UNL     1      10.559   2.790   5.121  0.00  0.00    +0.115 A 
ATOM      9  N   UNL     1      10.200   1.557   4.819  0.00  0.00    -0.263 NA
ATOM     10  C   UNL     1       9.815   1.226   3.603  0.00  0.00    +0.111 A 
ATOM     11  C   UNL     1       9.772   2.169   2.593  0.00  0.00    +0.020 A 
ATOM     12  C   UNL     1      10.136   3.477   2.874  0.00  0.00    +0.008 A 
ENDBRANCH   3   7
TORSDOF 1
ENDMDL
