MODEL 1
REMARK VINA RESULT:     7.803      0.000      0.000
REMARK INTER + INTRA:           8.090
REMARK INTER:                   8.259
REMARK INTRA:                  -0.169
REMARK UNBOUND:                -0.169
REMARK  Name = Nicotine.pdb
REMARK  2 active torsions:
REMARK  status: ('A' for Active; 'I' for Inactive)
REMARK    1  A    between atoms: C_3  and  C_6
REMARK    2  A    between atoms: N_4  and  C_12
REMARK                            x       y       z     vdW  Elec       q    Type
REMARK                         _______ _______ _______ _____ _____    ______ ____
ROOT
ATOM      1  C   UNL     1       3.063   2.148  -2.651  0.00  0.00    +0.017 C 
ATOM      2  C   UNL     1       1.779   1.386  -3.071  0.00  0.00    +0.025 C 
ATOM      3  C   UNL     1       0.769   1.775  -1.970  0.00  0.00    +0.088 C 
ATOM      4  N   UNL     1       1.548   2.197  -0.792  0.00  0.00    -0.298 NA
ATOM      5  C   UNL     1       2.987   2.063  -1.106  0.00  0.00    +0.085 C 
ATOM      6  C   UNL     1       1.219   3.576  -0.409  0.00  0.00    +0.105 C 
ENDROOT
BRANCH   3   7
ATOM      7  C   UNL     1      -0.090   0.587  -1.620  0.00  0.00    -0.012 A 
ATOM      8  C   UNL     1       0.438  -0.470  -0.903  0.00  0.00    +0.115 A 
ATOM      9  N   UNL     1      -0.307  -1.513  -0.592  0.00  0.00    -0.263 NA
ATOM     10  C   UNL     1      -1.573  -1.591  -0.948  0.00  0.00    +0.111 A 
ATOM     11  C   UNL     1      -2.171  -0.571  -1.666  0.00  0.00    +0.020 A 
ATOM     12  C   UNL     1      -1.420   0.544  -2.007  0.00  0.00    +0.008 A 
ENDBRANCH   3   7
TORSDOF 1
ENDMDL
MODEL 2
REMARK VINA RESULT:     7.945      1.346      4.544
REMARK INTER + INTRA:           8.241
REMARK INTER:                   8.439
REMARK INTRA:                  -0.198
REMARK UNBOUND:                -0.169
REMARK  Name = Nicotine.pdb
REMARK  2 active torsions:
REMARK  status: ('A' for Active; 'I' for Inactive)
REMARK    1  A    between atoms: C_3  and  C_6
REMARK    2  A    between atoms: N_4  and  C_12
REMARK                            x       y       z     vdW  Elec       q    Type
REMARK                         _______ _______ _______ _____ _____    ______ ____
ROOT
ATOM      1  C   UNL     1      -1.305  -1.168  -1.284  0.00  0.00    +0.017 C 
ATOM      2  C   UNL     1      -0.337  -0.212  -0.538  0.00  0.00    +0.025 C 
ATOM      3  C   UNL     1      -0.544   1.131  -1.269  0.00  0.00    +0.088 C 
ATOM      4  N   UNL     1      -1.088   0.823  -2.604  0.00  0.00    -0.298 NA
ATOM      5  C   UNL     1      -1.202  -0.645  -2.739  0.00  0.00    +0.085 C 
ATOM      6  C   UNL     1      -2.389   1.473  -2.806  0.00  0.00    +0.105 C 
ENDROOT
BRANCH   3   7
ATOM      7  C   UNL     1       0.773   1.850  -1.404  0.00  0.00    -0.012 A 
ATOM      8  C   UNL     1       1.044   2.965  -0.634  0.00  0.00    +0.115 A 
ATOM      9  N   UNL     1       2.195   3.599  -0.746  0.00  0.00    -0.263 NA
ATOM     10  C   UNL     1       3.126   3.201  -1.589  0.00  0.00    +0.111 A 
ATOM     11  C   UNL     1       2.928   2.093  -2.392  0.00  0.00    +0.020 A 
ATOM     12  C   UNL     1       1.732   1.397  -2.298  0.00  0.00    +0.008 A 
ENDBRANCH   3   7
TORSDOF 1
ENDMDL
MODEL 3
REMARK VINA RESULT:     8.617      1.090      4.568
REMARK INTER + INTRA:           8.952
REMARK INTER:                   9.142
REMARK INTRA:                  -0.190
REMARK UNBOUND:                -0.169
REMARK  Name = Nicotine.pdb
REMARK  2 active torsions:
REMARK  status: ('A' for Active; 'I' for Inactive)
REMARK    1  A    between atoms: C_3  and  C_6
REMARK    2  A    between atoms: N_4  and  C_12
REMARK                            x       y       z     vdW  Elec       q    Type
REMARK                         _______ _______ _______ _____ _____    ______ ____
ROOT
ATOM      1  C   UNL     1      -2.471  -0.045  -2.411  0.00  0.00    +0.017 C 
ATOM      2  C   UNL     1      -1.303   0.859  -2.884  0.00  0.00    +0.025 C 
ATOM      3  C   UNL     1      -0.096   0.310  -2.094  0.00  0.00    +0.088 C 
ATOM      4  N   UNL     1      -0.631  -0.391  -0.912  0.00  0.00    -0.298 NA
ATOM      5  C   UNL     1      -2.105  -0.278  -0.924  0.00  0.00    +0.085 C 
ATOM      6  C   UNL     1      -0.211  -1.798  -0.899  0.00  0.00    +0.105 C 
ENDROOT
BRANCH   3   7
ATOM      7  C   UNL     1       0.793   1.446  -1.659  0.00  0.00    -0.012 A 
ATOM      8  C   UNL     1       0.265   2.523  -0.972  0.00  0.00    +0.115 A 
ATOM      9  N   UNL     1       1.036   3.522  -0.588  0.00  0.00    -0.263 NA
ATOM     10  C   UNL     1       2.330   3.535  -0.840  0.00  0.00    +0.111 A 
ATOM     11  C   UNL     1       2.929   2.492  -1.522  0.00  0.00    +0.020 A 
ATOM     12  C   UNL     1       2.151   1.422  -1.938  0.00  0.00    +0.008 A 
ENDBRANCH   3   7
TORSDOF 1
ENDMDL
MODEL 4
REMARK VINA RESULT:     9.980      1.482      2.315
REMARK INTER + INTRA:          10.395
REMARK INTER:                  10.603
REMARK INTRA:                  -0.208
REMARK UNBOUND:                -0.169
REMARK  Name = Nicotine.pdb
REMARK  2 active torsions:
REMARK  status: ('A' for Active; 'I' for Inactive)
REMARK    1  A    between atoms: C_3  and  C_6
REMARK    2  A    between atoms: N_4  and  C_12
REMARK                            x       y       z     vdW  Elec       q    Type
REMARK                         _______ _______ _______ _____ _____    ______ ____
ROOT
ATOM      1  C   UNL     1       2.326   4.092  -0.928  0.00  0.00    +0.017 C 
ATOM      2  C   UNL     1       1.025   3.340  -0.539  0.00  0.00    +0.025 C 
ATOM      3  C   UNL     1       1.444   1.856  -0.623  0.00  0.00    +0.088 C 
ATOM      4  N   UNL     1       2.618   1.783  -1.511  0.00  0.00    -0.298 NA
ATOM      5  C   UNL     1       2.926   3.145  -1.997  0.00  0.00    +0.085 C 
ATOM      6  C   UNL     1       3.771   1.199  -0.814  0.00  0.00    +0.105 C 
ENDROOT
BRANCH   3   7
ATOM      7  C   UNL     1       0.316   1.037  -1.194  0.00  0.00    -0.012 A 
ATOM      8  C   UNL     1      -0.450   1.530  -2.234  0.00  0.00    +0.115 A 
ATOM      9  N   UNL     1      -1.439   0.819  -2.740  0.00  0.00    -0.263 NA
ATOM     10  C   UNL     1      -1.737  -0.379  -2.279  0.00  0.00    +0.111 A 
ATOM     11  C   UNL     1      -1.015  -0.938  -1.241  0.00  0.00    +0.020 A 
ATOM     12  C   UNL     1       0.036  -0.223  -0.688  0.00  0.00    +0.008 A 
ENDBRANCH   3   7
TORSDOF 1
ENDMDL
