MODEL 1
REMARK VINA RESULT:    -1.313      0.000      0.000
REMARK INTER + INTRA:          -1.646
REMARK INTER:                  -1.390
REMARK INTRA:                  -0.256
REMARK UNBOUND:                -0.256
REMARK  Name = Nicotine.pdb
REMARK  2 active torsions:
REMARK  status: ('A' for Active; 'I' for Inactive)
REMARK    1  A    between atoms: C_3  and  C_6
REMARK    2  A    between atoms: N_4  and  C_12
REMARK                            x       y       z     vdW  Elec       q    Type
REMARK                         _______ _______ _______ _____ _____    ______ ____
ROOT
ATOM      1  C   UNL     1      -2.644   2.940  -5.158  0.00  0.00    +0.017 C 
ATOM      2  C   UNL     1      -1.331   3.695  -4.825  0.00  0.00    +0.025 C 
ATOM      3  C   UNL     1      -1.467   5.002  -5.635  0.00  0.00    +0.088 C 
ATOM      4  N   UNL     1      -2.425   4.743  -6.724  0.00  0.00    -0.298 NA
ATOM      5  C   UNL     1      -2.865   3.335  -6.640  0.00  0.00    +0.085 C 
ATOM      6  C   UNL     1      -3.570   5.659  -6.647  0.00  0.00    +0.105 C 
ENDROOT
BRANCH   3   7
ATOM      7  C   UNL     1      -0.129   5.392  -6.208  0.00  0.00    -0.012 A 
ATOM      8  C   UNL     1       0.089   6.679  -6.662  0.00  0.00    +0.115 A 
ATOM      9  N   UNL     1       1.257   7.028  -7.165  0.00  0.00    -0.263 NA
ATOM     10  C   UNL     1       2.256   6.173  -7.256  0.00  0.00    +0.111 A 
ATOM     11  C   UNL     1       2.113   4.868  -6.821  0.00  0.00    +0.020 A 
ATOM     12  C   UNL     1       0.901   4.466  -6.282  0.00  0.00    +0.008 A 
ENDBRANCH   3   7
TORSDOF 1
ENDMDL
MODEL 2
REMARK VINA RESULT:    -0.211      2.138      4.077
REMARK INTER + INTRA:          -0.479
REMARK INTER:                  -0.295
REMARK INTRA:                  -0.184
REMARK UNBOUND:                -0.256
REMARK  Name = Nicotine.pdb
REMARK  2 active torsions:
REMARK  status: ('A' for Active; 'I' for Inactive)
REMARK    1  A    between atoms: C_3  and  C_6
REMARK    2  A    between atoms: N_4  and  C_12
REMARK                            x       y       z     vdW  Elec       q    Type
REMARK                         _______ _______ _______ _____ _____    ______ ____
ROOT
ATOM      1  C   UNL     1      -0.665   2.519  -4.309  0.00  0.00    +0.017 C 
ATOM      2  C   UNL     1      -2.073   2.978  -4.772  0.00  0.00    +0.025 C 
ATOM      3  C   UNL     1      -1.790   3.642  -6.136  0.00  0.00    +0.088 C 
ATOM      4  N   UNL     1      -0.368   4.032  -6.146  0.00  0.00    -0.298 NA
ATOM      5  C   UNL     1       0.230   3.664  -4.845  0.00  0.00    +0.085 C 
ATOM      6  C   UNL     1       0.347   3.390  -7.256  0.00  0.00    +0.105 C 
ENDROOT
BRANCH   3   7
ATOM      7  C   UNL     1      -2.659   4.861  -6.303  0.00  0.00    -0.012 A 
ATOM      8  C   UNL     1      -3.862   4.959  -5.631  0.00  0.00    +0.115 A 
ATOM      9  N   UNL     1      -4.629   6.023  -5.771  0.00  0.00    -0.263 NA
ATOM     10  C   UNL     1      -4.284   7.028  -6.552  0.00  0.00    +0.111 A 
ATOM     11  C   UNL     1      -3.094   7.001  -7.256  0.00  0.00    +0.020 A 
ATOM     12  C   UNL     1      -2.260   5.901  -7.129  0.00  0.00    +0.008 A 
ENDBRANCH   3   7
TORSDOF 1
ENDMDL
MODEL 3
REMARK VINA RESULT:     0.643      2.440      4.050
REMARK INTER + INTRA:           0.424
REMARK INTER:                   0.615
REMARK INTRA:                  -0.190
REMARK UNBOUND:                -0.256
REMARK  Name = Nicotine.pdb
REMARK  2 active torsions:
REMARK  status: ('A' for Active; 'I' for Inactive)
REMARK    1  A    between atoms: C_3  and  C_6
REMARK    2  A    between atoms: N_4  and  C_12
REMARK                            x       y       z     vdW  Elec       q    Type
REMARK                         _______ _______ _______ _____ _____    ______ ____
ROOT
ATOM      1  C   UNL     1      -0.432   2.600  -5.177  0.00  0.00    +0.017 C 
ATOM      2  C   UNL     1      -0.661   4.062  -5.643  0.00  0.00    +0.025 C 
ATOM      3  C   UNL     1      -1.859   4.516  -4.782  0.00  0.00    +0.088 C 
ATOM      4  N   UNL     1      -2.570   3.301  -4.346  0.00  0.00    -0.298 NA
ATOM      5  C   UNL     1      -1.883   2.123  -4.917  0.00  0.00    +0.085 C 
ATOM      6  C   UNL     1      -2.626   3.220  -2.881  0.00  0.00    +0.105 C 
ENDROOT
BRANCH   3   7
ATOM      7  C   UNL     1      -2.779   5.384  -5.602  0.00  0.00    -0.012 A 
ATOM      8  C   UNL     1      -2.263   6.265  -6.534  0.00  0.00    +0.115 A 
ATOM      9  N   UNL     1      -3.061   7.028  -7.255  0.00  0.00    -0.263 NA
ATOM     10  C   UNL     1      -4.372   6.983  -7.119  0.00  0.00    +0.111 A 
ATOM     11  C   UNL     1      -4.960   6.126  -6.208  0.00  0.00    +0.020 A 
ATOM     12  C   UNL     1      -4.153   5.305  -5.435  0.00  0.00    +0.008 A 
ENDBRANCH   3   7
TORSDOF 1
ENDMDL
MODEL 4
REMARK VINA RESULT:     1.656      1.734      4.982
REMARK INTER + INTRA:           1.497
REMARK INTER:                   1.703
REMARK INTRA:                  -0.206
REMARK UNBOUND:                -0.256
REMARK  Name = Nicotine.pdb
REMARK  2 active torsions:
REMARK  status: ('A' for Active; 'I' for Inactive)
REMARK    1  A    between atoms: C_3  and  C_6
REMARK    2  A    between atoms: N_4  and  C_12
REMARK                            x       y       z     vdW  Elec       q    Type
REMARK                         _______ _______ _______ _____ _____    ______ ____
ROOT
ATOM      1  C   UNL     1       4.458   4.305  -6.888  0.00  0.00    +0.017 C 
ATOM      2  C   UNL     1       3.147   3.559  -7.247  0.00  0.00    +0.025 C 
ATOM      3  C   UNL     1       2.095   4.689  -7.255  0.00  0.00    +0.088 C 
ATOM      4  N   UNL     1       2.629   5.788  -6.430  0.00  0.00    -0.298 NA
ATOM      5  C   UNL     1       3.945   5.379  -5.896  0.00  0.00    +0.085 C 
ATOM      6  C   UNL     1       2.739   7.027  -7.211  0.00  0.00    +0.105 C 
ENDROOT
BRANCH   3   7
ATOM      7  C   UNL     1       0.801   4.188  -6.668  0.00  0.00    -0.012 A 
ATOM      8  C   UNL     1       0.807   3.382  -5.546  0.00  0.00    +0.115 A 
ATOM      9  N   UNL     1      -0.322   2.940  -5.026  0.00  0.00    -0.263 NA
ATOM     10  C   UNL     1      -1.492   3.245  -5.551  0.00  0.00    +0.111 A 
ATOM     11  C   UNL     1      -1.577   4.047  -6.673  0.00  0.00    +0.020 A 
ATOM     12  C   UNL     1      -0.412   4.535  -7.244  0.00  0.00    +0.008 A 
ENDBRANCH   3   7
TORSDOF 1
ENDMDL
