MODEL 1
REMARK VINA RESULT:    -3.905      0.000      0.000
REMARK INTER + INTRA:          -4.374
REMARK INTER:                  -4.134
REMARK INTRA:                  -0.240
REMARK UNBOUND:                -0.240
REMARK  Name = Nicotine.pdb
REMARK  2 active torsions:
REMARK  status: ('A' for Active; 'I' for Inactive)
REMARK    1  A    between atoms: C_3  and  C_6
REMARK    2  A    between atoms: N_4  and  C_12
REMARK                            x       y       z     vdW  Elec       q    Type
REMARK                         _______ _______ _______ _____ _____    ______ ____
ROOT
ATOM      1  C   UNL     1       9.455   1.388   2.018  0.00  0.00    +0.017 C 
ATOM      2  C   UNL     1      10.205   0.062   2.314  0.00  0.00    +0.025 C 
ATOM      3  C   UNL     1      10.689  -0.383   0.918  0.00  0.00    +0.088 C 
ATOM      4  N   UNL     1       9.821   0.275  -0.075  0.00  0.00    -0.298 NA
ATOM      5  C   UNL     1       8.811   1.082   0.642  0.00  0.00    +0.085 C 
ATOM      6  C   UNL     1      10.608   1.109  -0.993  0.00  0.00    +0.105 C 
ENDROOT
BRANCH   3   7
ATOM      7  C   UNL     1      10.575  -1.880   0.789  0.00  0.00    -0.012 A 
ATOM      8  C   UNL     1      10.954  -2.512  -0.380  0.00  0.00    +0.115 A 
ATOM      9  N   UNL     1      10.858  -3.821  -0.502  0.00  0.00    -0.263 NA
ATOM     10  C   UNL     1      10.401  -4.576   0.478  0.00  0.00    +0.111 A 
ATOM     11  C   UNL     1      10.003  -4.015   1.677  0.00  0.00    +0.020 A 
ATOM     12  C   UNL     1      10.095  -2.642   1.843  0.00  0.00    +0.008 A 
ENDBRANCH   3   7
TORSDOF 1
ENDMDL
MODEL 2
REMARK VINA RESULT:    -3.066      1.238      1.873
REMARK INTER + INTRA:          -3.485
REMARK INTER:                  -3.294
REMARK INTRA:                  -0.192
REMARK UNBOUND:                -0.240
REMARK  Name = Nicotine.pdb
REMARK  2 active torsions:
REMARK  status: ('A' for Active; 'I' for Inactive)
REMARK    1  A    between atoms: C_3  and  C_6
REMARK    2  A    between atoms: N_4  and  C_12
REMARK                            x       y       z     vdW  Elec       q    Type
REMARK                         _______ _______ _______ _____ _____    ______ ____
ROOT
ATOM      1  C   UNL     1       9.061   2.168   0.629  0.00  0.00    +0.017 C 
ATOM      2  C   UNL     1       8.633   0.677   0.605  0.00  0.00    +0.025 C 
ATOM      3  C   UNL     1       9.540   0.039   1.678  0.00  0.00    +0.088 C 
ATOM      4  N   UNL     1      10.711   0.918   1.840  0.00  0.00    -0.298 NA
ATOM      5  C   UNL     1      10.582   2.053   0.901  0.00  0.00    +0.085 C 
ATOM      6  C   UNL     1      10.828   1.391   3.225  0.00  0.00    +0.105 C 
ENDROOT
BRANCH   3   7
ATOM      7  C   UNL     1       9.982  -1.329   1.228  0.00  0.00    -0.012 A 
ATOM      8  C   UNL     1      10.563  -1.502  -0.014  0.00  0.00    +0.115 A 
ATOM      9  N   UNL     1      10.953  -2.696  -0.416  0.00  0.00    -0.263 NA
ATOM     10  C   UNL     1      10.807  -3.765   0.341  0.00  0.00    +0.111 A 
ATOM     11  C   UNL     1      10.234  -3.669   1.596  0.00  0.00    +0.020 A 
ATOM     12  C   UNL     1       9.817  -2.430   2.055  0.00  0.00    +0.008 A 
ENDBRANCH   3   7
TORSDOF 1
ENDMDL
MODEL 3
REMARK VINA RESULT:    -2.985      2.079      4.768
REMARK INTER + INTRA:          -3.400
REMARK INTER:                  -3.195
REMARK INTRA:                  -0.205
REMARK UNBOUND:                -0.240
REMARK  Name = Nicotine.pdb
REMARK  2 active torsions:
REMARK  status: ('A' for Active; 'I' for Inactive)
REMARK    1  A    between atoms: C_3  and  C_6
REMARK    2  A    between atoms: N_4  and  C_12
REMARK                            x       y       z     vdW  Elec       q    Type
REMARK                         _______ _______ _______ _____ _____    ______ ____
ROOT
ATOM      1  C   UNL     1       9.964  -1.729   1.071  0.00  0.00    +0.017 C 
ATOM      2  C   UNL     1      10.923  -1.016   0.082  0.00  0.00    +0.025 C 
ATOM      3  C   UNL     1      10.882   0.452   0.556  0.00  0.00    +0.088 C 
ATOM      4  N   UNL     1       9.626   0.634   1.307  0.00  0.00    -0.298 NA
ATOM      5  C   UNL     1       8.882  -0.644   1.296  0.00  0.00    +0.085 C 
ATOM      6  C   UNL     1       9.893   1.077   2.681  0.00  0.00    +0.105 C 
ENDROOT
BRANCH   3   7
ATOM      7  C   UNL     1      10.907   1.376  -0.634  0.00  0.00    -0.012 A 
ATOM      8  C   UNL     1      10.909   0.863  -1.917  0.00  0.00    +0.115 A 
ATOM      9  N   UNL     1      10.932   1.664  -2.964  0.00  0.00    -0.263 NA
ATOM     10  C   UNL     1      10.954   2.976  -2.833  0.00  0.00    +0.111 A 
ATOM     11  C   UNL     1      10.952   3.561  -1.581  0.00  0.00    +0.020 A 
ATOM     12  C   UNL     1      10.924   2.751  -0.456  0.00  0.00    +0.008 A 
ENDBRANCH   3   7
TORSDOF 1
ENDMDL
MODEL 4
REMARK VINA RESULT:    -2.926      7.646      9.248
REMARK INTER + INTRA:          -3.337
REMARK INTER:                  -3.081
REMARK INTRA:                  -0.256
REMARK UNBOUND:                -0.240
REMARK  Name = Nicotine.pdb
REMARK  2 active torsions:
REMARK  status: ('A' for Active; 'I' for Inactive)
REMARK    1  A    between atoms: C_3  and  C_6
REMARK    2  A    between atoms: N_4  and  C_12
REMARK                            x       y       z     vdW  Elec       q    Type
REMARK                         _______ _______ _______ _____ _____    ______ ____
ROOT
ATOM      1  C   UNL     1       8.504   7.019  -6.462  0.00  0.00    +0.017 C 
ATOM      2  C   UNL     1       9.326   5.835  -7.037  0.00  0.00    +0.025 C 
ATOM      3  C   UNL     1       8.277   4.709  -7.152  0.00  0.00    +0.088 C 
ATOM      4  N   UNL     1       7.185   5.031  -6.216  0.00  0.00    -0.298 NA
ATOM      5  C   UNL     1       7.522   6.288  -5.513  0.00  0.00    +0.085 C 
ATOM      6  C   UNL     1       5.903   5.151  -6.923  0.00  0.00    +0.105 C 
ENDROOT
BRANCH   3   7
ATOM      7  C   UNL     1       8.900   3.389  -6.779  0.00  0.00    -0.012 A 
ATOM      8  C   UNL     1       8.368   2.205  -7.256  0.00  0.00    +0.115 A 
ATOM      9  N   UNL     1       8.907   1.045  -6.935  0.00  0.00    -0.263 NA
ATOM     10  C   UNL     1       9.966   0.966  -6.153  0.00  0.00    +0.111 A 
ATOM     11  C   UNL     1      10.553   2.107  -5.639  0.00  0.00    +0.020 A 
ATOM     12  C   UNL     1      10.017   3.345  -5.959  0.00  0.00    +0.008 A 
ENDBRANCH   3   7
TORSDOF 1
ENDMDL
MODEL 5
REMARK VINA RESULT:    -2.183      8.803      9.690
REMARK INTER + INTRA:          -2.551
REMARK INTER:                  -2.334
REMARK INTRA:                  -0.217
REMARK UNBOUND:                -0.240
REMARK  Name = Nicotine.pdb
REMARK  2 active torsions:
REMARK  status: ('A' for Active; 'I' for Inactive)
REMARK    1  A    between atoms: C_3  and  C_6
REMARK    2  A    between atoms: N_4  and  C_12
REMARK                            x       y       z     vdW  Elec       q    Type
REMARK                         _______ _______ _______ _____ _____    ______ ____
ROOT
ATOM      1  C   UNL     1       6.101   6.384  -7.094  0.00  0.00    +0.017 C 
ATOM      2  C   UNL     1       6.510   4.894  -7.238  0.00  0.00    +0.025 C 
ATOM      3  C   UNL     1       7.488   4.687  -6.062  0.00  0.00    +0.088 C 
ATOM      4  N   UNL     1       8.010   6.014  -5.690  0.00  0.00    -0.298 NA
ATOM      5  C   UNL     1       7.421   7.023  -6.595  0.00  0.00    +0.085 C 
ATOM      6  C   UNL     1       7.708   6.325  -4.286  0.00  0.00    +0.105 C 
ENDROOT
BRANCH   3   7
ATOM      7  C   UNL     1       8.620   3.790  -6.489  0.00  0.00    -0.012 A 
ATOM      8  C   UNL     1       9.911   4.280  -6.562  0.00  0.00    +0.115 A 
ATOM      9  N   UNL     1      10.908   3.501  -6.935  0.00  0.00    -0.263 NA
ATOM     10  C   UNL     1      10.718   2.236  -7.250  0.00  0.00    +0.111 A 
ATOM     11  C   UNL     1       9.455   1.675  -7.199  0.00  0.00    +0.020 A 
ATOM     12  C   UNL     1       8.383   2.462  -6.807  0.00  0.00    +0.008 A 
ENDBRANCH   3   7
TORSDOF 1
ENDMDL
MODEL 6
REMARK VINA RESULT:    -1.982      6.285      8.840
REMARK INTER + INTRA:          -2.338
REMARK INTER:                  -2.125
REMARK INTRA:                  -0.214
REMARK UNBOUND:                -0.240
REMARK  Name = Nicotine.pdb
REMARK  2 active torsions:
REMARK  status: ('A' for Active; 'I' for Inactive)
REMARK    1  A    between atoms: C_3  and  C_6
REMARK    2  A    between atoms: N_4  and  C_12
REMARK                            x       y       z     vdW  Elec       q    Type
REMARK                         _______ _______ _______ _____ _____    ______ ____
ROOT
ATOM      1  C   UNL     1       6.982   6.383  -6.107  0.00  0.00    +0.017 C 
ATOM      2  C   UNL     1       7.635   6.205  -4.712  0.00  0.00    +0.025 C 
ATOM      3  C   UNL     1       9.139   6.099  -5.044  0.00  0.00    +0.088 C 
ATOM      4  N   UNL     1       9.247   5.673  -6.451  0.00  0.00    -0.298 NA
ATOM      5  C   UNL     1       7.884   5.487  -6.992  0.00  0.00    +0.085 C 
ATOM      6  C   UNL     1       9.999   6.655  -7.242  0.00  0.00    +0.105 C 
ENDROOT
BRANCH   3   7
ATOM      7  C   UNL     1       9.792   5.080  -4.146  0.00  0.00    -0.012 A 
ATOM      8  C   UNL     1       9.861   5.291  -2.782  0.00  0.00    +0.115 A 
ATOM      9  N   UNL     1      10.430   4.404  -1.990  0.00  0.00    -0.263 NA
ATOM     10  C   UNL     1      10.954   3.290  -2.461  0.00  0.00    +0.111 A 
ATOM     11  C   UNL     1      10.922   3.010  -3.814  0.00  0.00    +0.020 A 
ATOM     12  C   UNL     1      10.327   3.916  -4.677  0.00  0.00    +0.008 A 
ENDBRANCH   3   7
TORSDOF 1
ENDMDL
