MODEL 1
REMARK VINA RESULT:    -4.028      0.000      0.000
REMARK INTER + INTRA:          -4.477
REMARK INTER:                  -4.263
REMARK INTRA:                  -0.214
REMARK UNBOUND:                -0.214
REMARK  Name = Nicotine.pdb
REMARK  2 active torsions:
REMARK  status: ('A' for Active; 'I' for Inactive)
REMARK    1  A    between atoms: C_3  and  C_6
REMARK    2  A    between atoms: N_4  and  C_12
REMARK                            x       y       z     vdW  Elec       q    Type
REMARK                         _______ _______ _______ _____ _____    ______ ____
ROOT
ATOM      1  C   UNL     1      -2.767  -1.931  -1.670  0.00  0.00    +0.017 C 
ATOM      2  C   UNL     1      -2.607  -2.926  -0.491  0.00  0.00    +0.025 C 
ATOM      3  C   UNL     1      -1.718  -2.148   0.502  0.00  0.00    +0.088 C 
ATOM      4  N   UNL     1      -0.995  -1.122  -0.270  0.00  0.00    -0.298 NA
ATOM      5  C   UNL     1      -1.377  -1.247  -1.693  0.00  0.00    +0.085 C 
ATOM      6  C   UNL     1      -1.289   0.224   0.238  0.00  0.00    +0.105 C 
ENDROOT
BRANCH   3   7
ATOM      7  C   UNL     1      -0.736  -3.086   1.155  0.00  0.00    -0.012 A 
ATOM      8  C   UNL     1      -1.185  -4.154   1.910  0.00  0.00    +0.115 A 
ATOM      9  N   UNL     1      -0.333  -4.980   2.485  0.00  0.00    -0.263 NA
ATOM     10  C   UNL     1       0.971  -4.824   2.365  0.00  0.00    +0.111 A 
ATOM     11  C   UNL     1       1.494  -3.780   1.626  0.00  0.00    +0.020 A 
ATOM     12  C   UNL     1       0.628  -2.894   1.003  0.00  0.00    +0.008 A 
ENDBRANCH   3   7
TORSDOF 1
ENDMDL
MODEL 2
REMARK VINA RESULT:    -4.027      2.156      4.523
REMARK INTER + INTRA:          -4.476
REMARK INTER:                  -4.246
REMARK INTRA:                  -0.230
REMARK UNBOUND:                -0.214
REMARK  Name = Nicotine.pdb
REMARK  2 active torsions:
REMARK  status: ('A' for Active; 'I' for Inactive)
REMARK    1  A    between atoms: C_3  and  C_6
REMARK    2  A    between atoms: N_4  and  C_12
REMARK                            x       y       z     vdW  Elec       q    Type
REMARK                         _______ _______ _______ _____ _____    ______ ____
ROOT
ATOM      1  C   UNL     1       1.242  -3.489   1.826  0.00  0.00    +0.017 C 
ATOM      2  C   UNL     1      -0.021  -3.029   1.051  0.00  0.00    +0.025 C 
ATOM      3  C   UNL     1      -1.170  -3.711   1.825  0.00  0.00    +0.088 C 
ATOM      4  N   UNL     1      -0.590  -4.860   2.545  0.00  0.00    -0.298 NA
ATOM      5  C   UNL     1       0.853  -4.932   2.232  0.00  0.00    +0.085 C 
ATOM      6  C   UNL     1      -0.810  -4.740   3.992  0.00  0.00    +0.105 C 
ENDROOT
BRANCH   3   7
ATOM      7  C   UNL     1      -2.225  -4.188   0.860  0.00  0.00    -0.012 A 
ATOM      8  C   UNL     1      -3.283  -4.958   1.306  0.00  0.00    +0.115 A 
ATOM      9  N   UNL     1      -4.210  -5.379   0.469  0.00  0.00    -0.263 NA
ATOM     10  C   UNL     1      -4.168  -5.088  -0.816  0.00  0.00    +0.111 A 
ATOM     11  C   UNL     1      -3.140  -4.322  -1.335  0.00  0.00    +0.020 A 
ATOM     12  C   UNL     1      -2.150  -3.857  -0.484  0.00  0.00    +0.008 A 
ENDBRANCH   3   7
TORSDOF 1
ENDMDL
MODEL 3
REMARK VINA RESULT:    -3.904      1.807      2.797
REMARK INTER + INTRA:          -4.346
REMARK INTER:                  -4.103
REMARK INTRA:                  -0.243
REMARK UNBOUND:                -0.214
REMARK  Name = Nicotine.pdb
REMARK  2 active torsions:
REMARK  status: ('A' for Active; 'I' for Inactive)
REMARK    1  A    between atoms: C_3  and  C_6
REMARK    2  A    between atoms: N_4  and  C_12
REMARK                            x       y       z     vdW  Elec       q    Type
REMARK                         _______ _______ _______ _____ _____    ______ ____
ROOT
ATOM      1  C   UNL     1      -4.089  -5.285   0.094  0.00  0.00    +0.017 C 
ATOM      2  C   UNL     1      -3.139  -4.763   1.204  0.00  0.00    +0.025 C 
ATOM      3  C   UNL     1      -2.487  -3.527   0.550  0.00  0.00    +0.088 C 
ATOM      4  N   UNL     1      -2.601  -3.693  -0.910  0.00  0.00    -0.298 NA
ATOM      5  C   UNL     1      -3.270  -4.983  -1.186  0.00  0.00    +0.085 C 
ATOM      6  C   UNL     1      -3.342  -2.577  -1.512  0.00  0.00    +0.105 C 
ENDROOT
BRANCH   3   7
ATOM      7  C   UNL     1      -1.035  -3.444   0.945  0.00  0.00    -0.012 A 
ATOM      8  C   UNL     1      -0.255  -2.384   0.523  0.00  0.00    +0.115 A 
ATOM      9  N   UNL     1       1.016  -2.304   0.865  0.00  0.00    -0.263 NA
ATOM     10  C   UNL     1       1.591  -3.222   1.616  0.00  0.00    +0.111 A 
ATOM     11  C   UNL     1       0.874  -4.311   2.076  0.00  0.00    +0.020 A 
ATOM     12  C   UNL     1      -0.466  -4.426   1.742  0.00  0.00    +0.008 A 
ENDBRANCH   3   7
TORSDOF 1
ENDMDL
MODEL 4
REMARK VINA RESULT:    -3.870      1.749      4.924
REMARK INTER + INTRA:          -4.309
REMARK INTER:                  -4.057
REMARK INTRA:                  -0.253
REMARK UNBOUND:                -0.214
REMARK  Name = Nicotine.pdb
REMARK  2 active torsions:
REMARK  status: ('A' for Active; 'I' for Inactive)
REMARK    1  A    between atoms: C_3  and  C_6
REMARK    2  A    between atoms: N_4  and  C_12
REMARK                            x       y       z     vdW  Elec       q    Type
REMARK                         _______ _______ _______ _____ _____    ______ ____
ROOT
ATOM      1  C   UNL     1       0.890  -5.757   3.897  0.00  0.00    +0.017 C 
ATOM      2  C   UNL     1       0.975  -5.094   2.497  0.00  0.00    +0.025 C 
ATOM      3  C   UNL     1       1.062  -3.590   2.829  0.00  0.00    +0.088 C 
ATOM      4  N   UNL     1       0.499  -3.407   4.179  0.00  0.00    -0.298 NA
ATOM      5  C   UNL     1       0.046  -4.722   4.682  0.00  0.00    +0.085 C 
ATOM      6  C   UNL     1       1.486  -2.807   5.086  0.00  0.00    +0.105 C 
ENDROOT
BRANCH   3   7
ATOM      7  C   UNL     1       0.264  -2.796   1.828  0.00  0.00    -0.012 A 
ATOM      8  C   UNL     1       0.382  -1.420   1.772  0.00  0.00    +0.115 A 
ATOM      9  N   UNL     1      -0.313  -0.718   0.898  0.00  0.00    -0.263 NA
ATOM     10  C   UNL     1      -1.142  -1.293   0.050  0.00  0.00    +0.111 A 
ATOM     11  C   UNL     1      -1.312  -2.665   0.046  0.00  0.00    +0.020 A 
ATOM     12  C   UNL     1      -0.594  -3.436   0.947  0.00  0.00    +0.008 A 
ENDBRANCH   3   7
TORSDOF 1
ENDMDL
MODEL 5
REMARK VINA RESULT:    -3.819      1.263      1.976
REMARK INTER + INTRA:          -4.256
REMARK INTER:                  -4.081
REMARK INTRA:                  -0.175
REMARK UNBOUND:                -0.214
REMARK  Name = Nicotine.pdb
REMARK  2 active torsions:
REMARK  status: ('A' for Active; 'I' for Inactive)
REMARK    1  A    between atoms: C_3  and  C_6
REMARK    2  A    between atoms: N_4  and  C_12
REMARK                            x       y       z     vdW  Elec       q    Type
REMARK                         _______ _______ _______ _____ _____    ______ ____
ROOT
ATOM      1  C   UNL     1      -3.313  -1.050   0.096  0.00  0.00    +0.017 C 
ATOM      2  C   UNL     1      -1.885  -1.218   0.679  0.00  0.00    +0.025 C 
ATOM      3  C   UNL     1      -1.369  -2.491  -0.025  0.00  0.00    +0.088 C 
ATOM      4  N   UNL     1      -2.550  -3.253  -0.469  0.00  0.00    -0.298 NA
ATOM      5  C   UNL     1      -3.766  -2.525  -0.050  0.00  0.00    +0.085 C 
ATOM      6  C   UNL     1      -2.531  -3.455  -1.924  0.00  0.00    +0.105 C 
ENDROOT
BRANCH   3   7
ATOM      7  C   UNL     1      -0.556  -3.316   0.938  0.00  0.00    -0.012 A 
ATOM      8  C   UNL     1      -1.172  -4.246   1.754  0.00  0.00    +0.115 A 
ATOM      9  N   UNL     1      -0.468  -4.973   2.599  0.00  0.00    -0.263 NA
ATOM     10  C   UNL     1       0.840  -4.844   2.702  0.00  0.00    +0.111 A 
ATOM     11  C   UNL     1       1.525  -3.934   1.918  0.00  0.00    +0.020 A 
ATOM     12  C   UNL     1       0.819  -3.156   1.014  0.00  0.00    +0.008 A 
ENDBRANCH   3   7
TORSDOF 1
ENDMDL
MODEL 6
REMARK VINA RESULT:    -3.729      1.868      3.209
REMARK INTER + INTRA:          -4.160
REMARK INTER:                  -3.904
REMARK INTRA:                  -0.256
REMARK UNBOUND:                -0.214
REMARK  Name = Nicotine.pdb
REMARK  2 active torsions:
REMARK  status: ('A' for Active; 'I' for Inactive)
REMARK    1  A    between atoms: C_3  and  C_6
REMARK    2  A    between atoms: N_4  and  C_12
REMARK                            x       y       z     vdW  Elec       q    Type
REMARK                         _______ _______ _______ _____ _____    ______ ____
ROOT
ATOM      1  C   UNL     1       0.308   0.196   2.285  0.00  0.00    +0.017 C 
ATOM      2  C   UNL     1       1.262  -0.967   2.667  0.00  0.00    +0.025 C 
ATOM      3  C   UNL     1       0.714  -2.150   1.842  0.00  0.00    +0.088 C 
ATOM      4  N   UNL     1      -0.692  -1.846   1.522  0.00  0.00    -0.298 NA
ATOM      5  C   UNL     1      -1.043  -0.546   2.131  0.00  0.00    +0.085 C 
ATOM      6  C   UNL     1      -0.909  -1.823   0.069  0.00  0.00    +0.105 C 
ENDROOT
BRANCH   3   7
ATOM      7  C   UNL     1       0.795  -3.420   2.649  0.00  0.00    -0.012 A 
ATOM      8  C   UNL     1       0.711  -4.651   2.027  0.00  0.00    +0.115 A 
ATOM      9  N   UNL     1       0.781  -5.767   2.727  0.00  0.00    -0.263 NA
ATOM     10  C   UNL     1       0.932  -5.755   4.036  0.00  0.00    +0.111 A 
ATOM     11  C   UNL     1       1.024  -4.561   4.728  0.00  0.00    +0.020 A 
ATOM     12  C   UNL     1       0.960  -3.368   4.025  0.00  0.00    +0.008 A 
ENDBRANCH   3   7
TORSDOF 1
ENDMDL
MODEL 7
REMARK VINA RESULT:    -3.579      1.277      4.499
REMARK INTER + INTRA:          -4.002
REMARK INTER:                  -3.804
REMARK INTRA:                  -0.199
REMARK UNBOUND:                -0.214
REMARK  Name = Nicotine.pdb
REMARK  2 active torsions:
REMARK  status: ('A' for Active; 'I' for Inactive)
REMARK    1  A    between atoms: C_3  and  C_6
REMARK    2  A    between atoms: N_4  and  C_12
REMARK                            x       y       z     vdW  Elec       q    Type
REMARK                         _______ _______ _______ _____ _____    ______ ____
ROOT
ATOM      1  C   UNL     1       1.176  -4.286   2.294  0.00  0.00    +0.017 C 
ATOM      2  C   UNL     1       1.017  -3.457   0.992  0.00  0.00    +0.025 C 
ATOM      3  C   UNL     1      -0.220  -2.582   1.286  0.00  0.00    +0.088 C 
ATOM      4  N   UNL     1      -0.990  -3.256   2.347  0.00  0.00    -0.298 NA
ATOM      5  C   UNL     1      -0.301  -4.515   2.701  0.00  0.00    +0.085 C 
ATOM      6  C   UNL     1      -1.139  -2.389   3.523  0.00  0.00    +0.105 C 
ENDROOT
BRANCH   3   7
ATOM      7  C   UNL     1      -1.062  -2.450   0.044  0.00  0.00    -0.012 A 
ATOM      8  C   UNL     1      -1.113  -1.251  -0.642  0.00  0.00    +0.115 A 
ATOM      9  N   UNL     1      -1.848  -1.127  -1.730  0.00  0.00    -0.263 NA
ATOM     10  C   UNL     1      -2.558  -2.131  -2.205  0.00  0.00    +0.111 A 
ATOM     11  C   UNL     1      -2.556  -3.361  -1.573  0.00  0.00    +0.020 A 
ATOM     12  C   UNL     1      -1.791  -3.530  -0.429  0.00  0.00    +0.008 A 
ENDBRANCH   3   7
TORSDOF 1
ENDMDL
MODEL 8
REMARK VINA RESULT:    -3.455      3.050      4.065
REMARK INTER + INTRA:          -3.871
REMARK INTER:                  -3.639
REMARK INTRA:                  -0.231
REMARK UNBOUND:                -0.214
REMARK  Name = Nicotine.pdb
REMARK  2 active torsions:
REMARK  status: ('A' for Active; 'I' for Inactive)
REMARK    1  A    between atoms: C_3  and  C_6
REMARK    2  A    between atoms: N_4  and  C_12
REMARK                            x       y       z     vdW  Elec       q    Type
REMARK                         _______ _______ _______ _____ _____    ______ ____
ROOT
ATOM      1  C   UNL     1       0.957   1.932   1.867  0.00  0.00    +0.017 C 
ATOM      2  C   UNL     1       0.118   0.631   1.778  0.00  0.00    +0.025 C 
ATOM      3  C   UNL     1       0.671  -0.219   2.942  0.00  0.00    +0.088 C 
ATOM      4  N   UNL     1       2.022   0.285   3.248  0.00  0.00    -0.298 NA
ATOM      5  C   UNL     1       2.337   1.386   2.312  0.00  0.00    +0.085 C 
ATOM      6  C   UNL     1       2.114   0.737   4.642  0.00  0.00    +0.105 C 
ENDROOT
BRANCH   3   7
ATOM      7  C   UNL     1       0.743  -1.667   2.532  0.00  0.00    -0.012 A 
ATOM      8  C   UNL     1       1.338  -2.600   3.360  0.00  0.00    +0.115 A 
ATOM      9  N   UNL     1       1.405  -3.869   3.008  0.00  0.00    -0.263 NA
ATOM     10  C   UNL     1       0.913  -4.297   1.862  0.00  0.00    +0.111 A 
ATOM     11  C   UNL     1       0.304  -3.422   0.982  0.00  0.00    +0.020 A 
ATOM     12  C   UNL     1       0.210  -2.081   1.321  0.00  0.00    +0.008 A 
ENDBRANCH   3   7
TORSDOF 1
ENDMDL
MODEL 9
REMARK VINA RESULT:    -3.060      2.499      3.686
REMARK INTER + INTRA:          -3.453
REMARK INTER:                  -3.238
REMARK INTRA:                  -0.215
REMARK UNBOUND:                -0.214
REMARK  Name = Nicotine.pdb
REMARK  2 active torsions:
REMARK  status: ('A' for Active; 'I' for Inactive)
REMARK    1  A    between atoms: C_3  and  C_6
REMARK    2  A    between atoms: N_4  and  C_12
REMARK                            x       y       z     vdW  Elec       q    Type
REMARK                         _______ _______ _______ _____ _____    ______ ____
ROOT
ATOM      1  C   UNL     1      -0.798   2.469   2.066  0.00  0.00    +0.017 C 
ATOM      2  C   UNL     1      -1.046   1.008   2.523  0.00  0.00    +0.025 C 
ATOM      3  C   UNL     1       0.358   0.373   2.433  0.00  0.00    +0.088 C 
ATOM      4  N   UNL     1       1.147   1.187   1.491  0.00  0.00    -0.298 NA
ATOM      5  C   UNL     1       0.289   2.277   0.978  0.00  0.00    +0.085 C 
ATOM      6  C   UNL     1       2.350   1.725   2.138  0.00  0.00    +0.105 C 
ENDROOT
BRANCH   3   7
ATOM      7  C   UNL     1       0.250  -1.041   1.924  0.00  0.00    -0.012 A 
ATOM      8  C   UNL     1      -0.855  -1.439   1.195  0.00  0.00    +0.115 A 
ATOM      9  N   UNL     1      -0.957  -2.674   0.746  0.00  0.00    -0.263 NA
ATOM     10  C   UNL     1      -0.020  -3.574   0.971  0.00  0.00    +0.111 A 
ATOM     11  C   UNL     1       1.113  -3.249   1.693  0.00  0.00    +0.020 A 
ATOM     12  C   UNL     1       1.259  -1.958   2.177  0.00  0.00    +0.008 A 
ENDBRANCH   3   7
TORSDOF 1
ENDMDL
MODEL 10
REMARK VINA RESULT:    -2.959      1.631      2.429
REMARK INTER + INTRA:          -3.345
REMARK INTER:                  -3.150
REMARK INTRA:                  -0.196
REMARK UNBOUND:                -0.214
REMARK  Name = Nicotine.pdb
REMARK  2 active torsions:
REMARK  status: ('A' for Active; 'I' for Inactive)
REMARK    1  A    between atoms: C_3  and  C_6
REMARK    2  A    between atoms: N_4  and  C_12
REMARK                            x       y       z     vdW  Elec       q    Type
REMARK                         _______ _______ _______ _____ _____    ______ ____
ROOT
ATOM      1  C   UNL     1      -3.286  -0.702  -1.873  0.00  0.00    +0.017 C 
ATOM      2  C   UNL     1      -2.020  -1.587  -1.723  0.00  0.00    +0.025 C 
ATOM      3  C   UNL     1      -2.334  -2.433  -0.471  0.00  0.00    +0.088 C 
ATOM      4  N   UNL     1      -3.351  -1.703   0.306  0.00  0.00    -0.298 NA
ATOM      5  C   UNL     1      -3.659  -0.437  -0.393  0.00  0.00    +0.085 C 
ATOM      6  C   UNL     1      -4.562  -2.515   0.485  0.00  0.00    +0.105 C 
ENDROOT
BRANCH   3   7
ATOM      7  C   UNL     1      -1.086  -2.611   0.353  0.00  0.00    -0.012 A 
ATOM      8  C   UNL     1      -0.294  -1.523   0.667  0.00  0.00    +0.115 A 
ATOM      9  N   UNL     1       0.800  -1.670   1.388  0.00  0.00    -0.263 NA
ATOM     10  C   UNL     1       1.182  -2.850   1.836  0.00  0.00    +0.111 A 
ATOM     11  C   UNL     1       0.440  -3.984   1.563  0.00  0.00    +0.020 A 
ATOM     12  C   UNL     1      -0.719  -3.867   0.812  0.00  0.00    +0.008 A 
ENDBRANCH   3   7
TORSDOF 1
ENDMDL
