MODEL 1
REMARK VINA RESULT:    -6.032      0.000      0.000
REMARK INTER + INTRA:          -6.639
REMARK INTER:                  -6.385
REMARK INTRA:                  -0.254
REMARK UNBOUND:                -0.254
REMARK  Name = Nicotine.pdb
REMARK  2 active torsions:
REMARK  status: ('A' for Active; 'I' for Inactive)
REMARK    1  A    between atoms: C_3  and  C_6
REMARK    2  A    between atoms: N_4  and  C_12
REMARK                            x       y       z     vdW  Elec       q    Type
REMARK                         _______ _______ _______ _____ _____    ______ ____
ROOT
ATOM      1  C   UNL     1       8.071  -3.034   5.189  0.00  0.00    +0.017 C 
ATOM      2  C   UNL     1       8.170  -1.686   4.427  0.00  0.00    +0.025 C 
ATOM      3  C   UNL     1       6.848  -1.640   3.631  0.00  0.00    +0.088 C 
ATOM      4  N   UNL     1       6.369  -3.027   3.499  0.00  0.00    -0.298 NA
ATOM      5  C   UNL     1       7.344  -3.927   4.152  0.00  0.00    +0.085 C 
ATOM      6  C   UNL     1       5.032  -3.182   4.088  0.00  0.00    +0.105 C 
ENDROOT
BRANCH   3   7
ATOM      7  C   UNL     1       7.091  -1.048   2.267  0.00  0.00    -0.012 A 
ATOM      8  C   UNL     1       6.098  -0.328   1.630  0.00  0.00    +0.115 A 
ATOM      9  N   UNL     1       6.303   0.194   0.436  0.00  0.00    -0.263 NA
ATOM     10  C   UNL     1       7.452   0.052  -0.194  0.00  0.00    +0.111 A 
ATOM     11  C   UNL     1       8.492  -0.654   0.381  0.00  0.00    +0.020 A 
ATOM     12  C   UNL     1       8.316  -1.213   1.638  0.00  0.00    +0.008 A 
ENDBRANCH   3   7
TORSDOF 1
ENDMDL
MODEL 2
REMARK VINA RESULT:    -5.617      1.762      2.413
REMARK INTER + INTRA:          -6.200
REMARK INTER:                  -5.987
REMARK INTRA:                  -0.213
REMARK UNBOUND:                -0.254
REMARK  Name = Nicotine.pdb
REMARK  2 active torsions:
REMARK  status: ('A' for Active; 'I' for Inactive)
REMARK    1  A    between atoms: C_3  and  C_6
REMARK    2  A    between atoms: N_4  and  C_12
REMARK                            x       y       z     vdW  Elec       q    Type
REMARK                         _______ _______ _______ _____ _____    ______ ____
ROOT
ATOM      1  C   UNL     1       4.236  -0.118   5.504  0.00  0.00    +0.017 C 
ATOM      2  C   UNL     1       4.600   0.239   4.039  0.00  0.00    +0.025 C 
ATOM      3  C   UNL     1       5.093  -1.107   3.466  0.00  0.00    +0.088 C 
ATOM      4  N   UNL     1       5.513  -1.940   4.607  0.00  0.00    -0.298 NA
ATOM      5  C   UNL     1       5.326  -1.164   5.851  0.00  0.00    +0.085 C 
ATOM      6  C   UNL     1       4.753  -3.196   4.650  0.00  0.00    +0.105 C 
ENDROOT
BRANCH   3   7
ATOM      7  C   UNL     1       6.261  -0.874   2.543  0.00  0.00    -0.012 A 
ATOM      8  C   UNL     1       6.120  -0.070   1.427  0.00  0.00    +0.115 A 
ATOM      9  N   UNL     1       7.137   0.139   0.614  0.00  0.00    -0.263 NA
ATOM     10  C   UNL     1       8.319  -0.404   0.828  0.00  0.00    +0.111 A 
ATOM     11  C   UNL     1       8.535  -1.219   1.924  0.00  0.00    +0.020 A 
ATOM     12  C   UNL     1       7.491  -1.457   2.804  0.00  0.00    +0.008 A 
ENDBRANCH   3   7
TORSDOF 1
ENDMDL
MODEL 3
REMARK VINA RESULT:    -5.563      1.481      4.375
REMARK INTER + INTRA:          -6.143
REMARK INTER:                  -5.888
REMARK INTRA:                  -0.255
REMARK UNBOUND:                -0.254
REMARK  Name = Nicotine.pdb
REMARK  2 active torsions:
REMARK  status: ('A' for Active; 'I' for Inactive)
REMARK    1  A    between atoms: C_3  and  C_6
REMARK    2  A    between atoms: N_4  and  C_12
REMARK                            x       y       z     vdW  Elec       q    Type
REMARK                         _______ _______ _______ _____ _____    ______ ____
ROOT
ATOM      1  C   UNL     1       8.705  -0.839   0.060  0.00  0.00    +0.017 C 
ATOM      2  C   UNL     1       8.800  -1.799   1.275  0.00  0.00    +0.025 C 
ATOM      3  C   UNL     1       7.510  -1.487   2.064  0.00  0.00    +0.088 C 
ATOM      4  N   UNL     1       7.073  -0.136   1.670  0.00  0.00    -0.298 NA
ATOM      5  C   UNL     1       8.043   0.408   0.697  0.00  0.00    +0.085 C 
ATOM      6  C   UNL     1       5.718  -0.165   1.104  0.00  0.00    +0.105 C 
ENDROOT
BRANCH   3   7
ATOM      7  C   UNL     1       7.793  -1.525   3.544  0.00  0.00    -0.012 A 
ATOM      8  C   UNL     1       6.796  -1.865   4.438  0.00  0.00    +0.115 A 
ATOM      9  N   UNL     1       7.035  -1.900   5.734  0.00  0.00    -0.263 NA
ATOM     10  C   UNL     1       8.224  -1.615   6.228  0.00  0.00    +0.111 A 
ATOM     11  C   UNL     1       9.271  -1.268   5.395  0.00  0.00    +0.020 A 
ATOM     12  C   UNL     1       9.058  -1.225   4.025  0.00  0.00    +0.008 A 
ENDBRANCH   3   7
TORSDOF 1
ENDMDL
MODEL 4
REMARK VINA RESULT:    -5.542      2.323      5.208
REMARK INTER + INTRA:          -6.121
REMARK INTER:                  -5.909
REMARK INTRA:                  -0.212
REMARK UNBOUND:                -0.254
REMARK  Name = Nicotine.pdb
REMARK  2 active torsions:
REMARK  status: ('A' for Active; 'I' for Inactive)
REMARK    1  A    between atoms: C_3  and  C_6
REMARK    2  A    between atoms: N_4  and  C_12
REMARK                            x       y       z     vdW  Elec       q    Type
REMARK                         _______ _______ _______ _____ _____    ______ ____
ROOT
ATOM      1  C   UNL     1       7.270  -1.439   2.808  0.00  0.00    +0.017 C 
ATOM      2  C   UNL     1       5.964  -1.162   3.599  0.00  0.00    +0.025 C 
ATOM      3  C   UNL     1       6.202  -1.903   4.932  0.00  0.00    +0.088 C 
ATOM      4  N   UNL     1       7.223  -2.936   4.681  0.00  0.00    -0.298 NA
ATOM      5  C   UNL     1       7.606  -2.884   3.254  0.00  0.00    +0.085 C 
ATOM      6  C   UNL     1       8.393  -2.743   5.548  0.00  0.00    +0.105 C 
ENDROOT
BRANCH   3   7
ATOM      7  C   UNL     1       4.922  -2.547   5.396  0.00  0.00    -0.012 A 
ATOM      8  C   UNL     1       4.792  -3.923   5.398  0.00  0.00    +0.115 A 
ATOM      9  N   UNL     1       3.675  -4.495   5.803  0.00  0.00    -0.263 NA
ATOM     10  C   UNL     1       2.644  -3.786   6.218  0.00  0.00    +0.111 A 
ATOM     11  C   UNL     1       2.700  -2.405   6.244  0.00  0.00    +0.020 A 
ATOM     12  C   UNL     1       3.860  -1.768   5.831  0.00  0.00    +0.008 A 
ENDBRANCH   3   7
TORSDOF 1
ENDMDL
MODEL 5
REMARK VINA RESULT:    -5.160      1.467      2.372
REMARK INTER + INTRA:          -5.716
REMARK INTER:                  -5.490
REMARK INTRA:                  -0.226
REMARK UNBOUND:                -0.254
REMARK  Name = Nicotine.pdb
REMARK  2 active torsions:
REMARK  status: ('A' for Active; 'I' for Inactive)
REMARK    1  A    between atoms: C_3  and  C_6
REMARK    2  A    between atoms: N_4  and  C_12
REMARK                            x       y       z     vdW  Elec       q    Type
REMARK                         _______ _______ _______ _____ _____    ______ ____
ROOT
ATOM      1  C   UNL     1       5.846  -3.412   5.112  0.00  0.00    +0.017 C 
ATOM      2  C   UNL     1       6.356  -3.318   3.650  0.00  0.00    +0.025 C 
ATOM      3  C   UNL     1       7.553  -2.350   3.761  0.00  0.00    +0.088 C 
ATOM      4  N   UNL     1       7.359  -1.555   4.988  0.00  0.00    -0.298 NA
ATOM      5  C   UNL     1       6.090  -1.970   5.622  0.00  0.00    +0.085 C 
ATOM      6  C   UNL     1       8.489  -1.726   5.910  0.00  0.00    +0.105 C 
ENDROOT
BRANCH   3   7
ATOM      7  C   UNL     1       7.591  -1.440   2.561  0.00  0.00    -0.012 A 
ATOM      8  C   UNL     1       8.737  -1.339   1.796  0.00  0.00    +0.115 A 
ATOM      9  N   UNL     1       8.779  -0.546   0.743  0.00  0.00    -0.263 NA
ATOM     10  C   UNL     1       7.739   0.178   0.380  0.00  0.00    +0.111 A 
ATOM     11  C   UNL     1       6.557   0.128   1.096  0.00  0.00    +0.020 A 
ATOM     12  C   UNL     1       6.474  -0.699   2.205  0.00  0.00    +0.008 A 
ENDBRANCH   3   7
TORSDOF 1
ENDMDL
MODEL 6
REMARK VINA RESULT:    -5.141      6.627      8.163
REMARK INTER + INTRA:          -5.696
REMARK INTER:                  -5.471
REMARK INTRA:                  -0.224
REMARK UNBOUND:                -0.254
REMARK  Name = Nicotine.pdb
REMARK  2 active torsions:
REMARK  status: ('A' for Active; 'I' for Inactive)
REMARK    1  A    between atoms: C_3  and  C_6
REMARK    2  A    between atoms: N_4  and  C_12
REMARK                            x       y       z     vdW  Elec       q    Type
REMARK                         _______ _______ _______ _____ _____    ______ ____
ROOT
ATOM      1  C   UNL     1       5.205  -4.623  -5.636  0.00  0.00    +0.017 C 
ATOM      2  C   UNL     1       4.186  -3.458  -5.742  0.00  0.00    +0.025 C 
ATOM      3  C   UNL     1       4.735  -2.424  -4.736  0.00  0.00    +0.088 C 
ATOM      4  N   UNL     1       5.582  -3.155  -3.777  0.00  0.00    -0.298 NA
ATOM      5  C   UNL     1       5.561  -4.591  -4.129  0.00  0.00    +0.085 C 
ATOM      6  C   UNL     1       6.954  -2.631  -3.780  0.00  0.00    +0.105 C 
ENDROOT
BRANCH   3   7
ATOM      7  C   UNL     1       3.593  -1.759  -4.011  0.00  0.00    -0.012 A 
ATOM      8  C   UNL     1       3.537  -1.777  -2.630  0.00  0.00    +0.115 A 
ATOM      9  N   UNL     1       2.542  -1.197  -1.988  0.00  0.00    -0.263 NA
ATOM     10  C   UNL     1       1.568  -0.582  -2.629  0.00  0.00    +0.111 A 
ATOM     11  C   UNL     1       1.557  -0.522  -4.010  0.00  0.00    +0.020 A 
ATOM     12  C   UNL     1       2.590  -1.116  -4.719  0.00  0.00    +0.008 A 
ENDBRANCH   3   7
TORSDOF 1
ENDMDL
MODEL 7
REMARK VINA RESULT:    -4.965      1.811      4.479
REMARK INTER + INTRA:          -5.509
REMARK INTER:                  -5.319
REMARK INTRA:                  -0.190
REMARK UNBOUND:                -0.254
REMARK  Name = Nicotine.pdb
REMARK  2 active torsions:
REMARK  status: ('A' for Active; 'I' for Inactive)
REMARK    1  A    between atoms: C_3  and  C_6
REMARK    2  A    between atoms: N_4  and  C_12
REMARK                            x       y       z     vdW  Elec       q    Type
REMARK                         _______ _______ _______ _____ _____    ______ ____
ROOT
ATOM      1  C   UNL     1       8.901  -0.546   0.917  0.00  0.00    +0.017 C 
ATOM      2  C   UNL     1       8.246  -1.259   2.129  0.00  0.00    +0.025 C 
ATOM      3  C   UNL     1       6.737  -1.053   1.879  0.00  0.00    +0.088 C 
ATOM      4  N   UNL     1       6.597   0.115   0.991  0.00  0.00    -0.298 NA
ATOM      5  C   UNL     1       7.944   0.653   0.704  0.00  0.00    +0.085 C 
ATOM      6  C   UNL     1       5.898  -0.246  -0.249  0.00  0.00    +0.105 C 
ENDROOT
BRANCH   3   7
ATOM      7  C   UNL     1       6.031  -0.795   3.185  0.00  0.00    -0.012 A 
ATOM      8  C   UNL     1       6.428  -1.449   4.336  0.00  0.00    +0.115 A 
ATOM      9  N   UNL     1       5.816  -1.228   5.483  0.00  0.00    -0.263 NA
ATOM     10  C   UNL     1       4.809  -0.383   5.579  0.00  0.00    +0.111 A 
ATOM     11  C   UNL     1       4.357   0.309   4.471  0.00  0.00    +0.020 A 
ATOM     12  C   UNL     1       4.979   0.106   3.249  0.00  0.00    +0.008 A 
ENDBRANCH   3   7
TORSDOF 1
ENDMDL
MODEL 8
REMARK VINA RESULT:    -4.894      6.667      7.722
REMARK INTER + INTRA:          -5.434
REMARK INTER:                  -5.262
REMARK INTRA:                  -0.172
REMARK UNBOUND:                -0.254
REMARK  Name = Nicotine.pdb
REMARK  2 active torsions:
REMARK  status: ('A' for Active; 'I' for Inactive)
REMARK    1  A    between atoms: C_3  and  C_6
REMARK    2  A    between atoms: N_4  and  C_12
REMARK                            x       y       z     vdW  Elec       q    Type
REMARK                         _______ _______ _______ _____ _____    ______ ____
ROOT
ATOM      1  C   UNL     1       7.467  -2.437  -4.210  0.00  0.00    +0.017 C 
ATOM      2  C   UNL     1       6.386  -1.661  -3.413  0.00  0.00    +0.025 C 
ATOM      3  C   UNL     1       5.199  -2.648  -3.389  0.00  0.00    +0.088 C 
ATOM      4  N   UNL     1       5.380  -3.577  -4.518  0.00  0.00    -0.298 NA
ATOM      5  C   UNL     1       6.606  -3.195  -5.250  0.00  0.00    +0.085 C 
ATOM      6  C   UNL     1       5.457  -4.967  -4.050  0.00  0.00    +0.105 C 
ENDROOT
BRANCH   3   7
ATOM      7  C   UNL     1       3.903  -1.895  -3.545  0.00  0.00    -0.012 A 
ATOM      8  C   UNL     1       3.423  -1.584  -4.803  0.00  0.00    +0.115 A 
ATOM      9  N   UNL     1       2.289  -0.925  -4.949  0.00  0.00    -0.263 NA
ATOM     10  C   UNL     1       1.574  -0.538  -3.912  0.00  0.00    +0.111 A 
ATOM     11  C   UNL     1       1.991  -0.814  -2.622  0.00  0.00    +0.020 A 
ATOM     12  C   UNL     1       3.175  -1.509  -2.430  0.00  0.00    +0.008 A 
ENDBRANCH   3   7
TORSDOF 1
ENDMDL
MODEL 9
REMARK VINA RESULT:    -4.718      1.274      4.661
REMARK INTER + INTRA:          -5.248
REMARK INTER:                  -5.026
REMARK INTRA:                  -0.222
REMARK UNBOUND:                -0.254
REMARK  Name = Nicotine.pdb
REMARK  2 active torsions:
REMARK  status: ('A' for Active; 'I' for Inactive)
REMARK    1  A    between atoms: C_3  and  C_6
REMARK    2  A    between atoms: N_4  and  C_12
REMARK                            x       y       z     vdW  Elec       q    Type
REMARK                         _______ _______ _______ _____ _____    ______ ____
ROOT
ATOM      1  C   UNL     1       6.407   0.976   0.633  0.00  0.00    +0.017 C 
ATOM      2  C   UNL     1       6.042   0.457   2.049  0.00  0.00    +0.025 C 
ATOM      3  C   UNL     1       7.151  -0.577   2.337  0.00  0.00    +0.088 C 
ATOM      4  N   UNL     1       7.695  -1.007   1.036  0.00  0.00    -0.298 NA
ATOM      5  C   UNL     1       6.957  -0.307  -0.038  0.00  0.00    +0.085 C 
ATOM      6  C   UNL     1       9.135  -0.734   0.950  0.00  0.00    +0.105 C 
ENDROOT
BRANCH   3   7
ATOM      7  C   UNL     1       6.572  -1.760   3.068  0.00  0.00    -0.012 A 
ATOM      8  C   UNL     1       7.297  -2.930   3.190  0.00  0.00    +0.115 A 
ATOM      9  N   UNL     1       6.798  -3.970   3.829  0.00  0.00    -0.263 NA
ATOM     10  C   UNL     1       5.597  -3.938   4.373  0.00  0.00    +0.111 A 
ATOM     11  C   UNL     1       4.814  -2.802   4.292  0.00  0.00    +0.020 A 
ATOM     12  C   UNL     1       5.307  -1.687   3.632  0.00  0.00    +0.008 A 
ENDBRANCH   3   7
TORSDOF 1
ENDMDL
MODEL 10
REMARK VINA RESULT:    -4.605      6.390      8.126
REMARK INTER + INTRA:          -5.129
REMARK INTER:                  -4.919
REMARK INTRA:                  -0.209
REMARK UNBOUND:                -0.254
REMARK  Name = Nicotine.pdb
REMARK  2 active torsions:
REMARK  status: ('A' for Active; 'I' for Inactive)
REMARK    1  A    between atoms: C_3  and  C_6
REMARK    2  A    between atoms: N_4  and  C_12
REMARK                            x       y       z     vdW  Elec       q    Type
REMARK                         _______ _______ _______ _____ _____    ______ ____
ROOT
ATOM      1  C   UNL     1       9.809  -3.536  -5.568  0.00  0.00    +0.017 C 
ATOM      2  C   UNL     1       9.001  -3.243  -4.277  0.00  0.00    +0.025 C 
ATOM      3  C   UNL     1       7.635  -3.901  -4.564  0.00  0.00    +0.088 C 
ATOM      4  N   UNL     1       7.503  -4.013  -6.028  0.00  0.00    -0.298 NA
ATOM      5  C   UNL     1       8.710  -3.432  -6.655  0.00  0.00    +0.085 C 
ATOM      6  C   UNL     1       7.319  -5.411  -6.436  0.00  0.00    +0.105 C 
ENDROOT
BRANCH   3   7
ATOM      7  C   UNL     1       6.526  -3.043  -4.013  0.00  0.00    -0.012 A 
ATOM      8  C   UNL     1       6.803  -1.796  -3.485  0.00  0.00    +0.115 A 
ATOM      9  N   UNL     1       5.838  -1.039  -3.000  0.00  0.00    -0.263 NA
ATOM     10  C   UNL     1       4.581  -1.436  -2.998  0.00  0.00    +0.111 A 
ATOM     11  C   UNL     1       4.227  -2.670  -3.509  0.00  0.00    +0.020 A 
ATOM     12  C   UNL     1       5.214  -3.492  -4.032  0.00  0.00    +0.008 A 
ENDBRANCH   3   7
TORSDOF 1
ENDMDL
