MODEL 1
REMARK VINA RESULT:    -3.341      0.000      0.000
REMARK INTER + INTRA:          -3.728
REMARK INTER:                  -3.537
REMARK INTRA:                  -0.191
REMARK UNBOUND:                -0.191
REMARK  Name = Nicotine.pdb
REMARK  2 active torsions:
REMARK  status: ('A' for Active; 'I' for Inactive)
REMARK    1  A    between atoms: C_3  and  C_6
REMARK    2  A    between atoms: N_4  and  C_12
REMARK                            x       y       z     vdW  Elec       q    Type
REMARK                         _______ _______ _______ _____ _____    ______ ____
ROOT
ATOM      1  C   UNL     1      -1.800  -0.869  -0.895  0.00  0.00    +0.017 C 
ATOM      2  C   UNL     1      -1.648   0.673  -0.979  0.00  0.00    +0.025 C 
ATOM      3  C   UNL     1      -3.100   1.155  -1.179  0.00  0.00    +0.088 C 
ATOM      4  N   UNL     1      -3.865   0.022  -1.730  0.00  0.00    -0.298 NA
ATOM      5  C   UNL     1      -2.949  -1.125  -1.903  0.00  0.00    +0.085 C 
ATOM      6  C   UNL     1      -4.991  -0.330  -0.855  0.00  0.00    +0.105 C 
ENDROOT
BRANCH   3   7
ATOM      7  C   UNL     1      -3.128   2.312  -2.144  0.00  0.00    -0.012 A 
ATOM      8  C   UNL     1      -2.514   2.209  -3.377  0.00  0.00    +0.115 A 
ATOM      9  N   UNL     1      -2.534   3.217  -4.227  0.00  0.00    -0.263 NA
ATOM     10  C   UNL     1      -3.134   4.355  -3.940  0.00  0.00    +0.111 A 
ATOM     11  C   UNL     1      -3.771   4.531  -2.725  0.00  0.00    +0.020 A 
ATOM     12  C   UNL     1      -3.775   3.492  -1.808  0.00  0.00    +0.008 A 
ENDBRANCH   3   7
TORSDOF 1
ENDMDL
MODEL 2
REMARK VINA RESULT:    -3.335      1.769      2.118
REMARK INTER + INTRA:          -3.721
REMARK INTER:                  -3.538
REMARK INTRA:                  -0.183
REMARK UNBOUND:                -0.191
REMARK  Name = Nicotine.pdb
REMARK  2 active torsions:
REMARK  status: ('A' for Active; 'I' for Inactive)
REMARK    1  A    between atoms: C_3  and  C_6
REMARK    2  A    between atoms: N_4  and  C_12
REMARK                            x       y       z     vdW  Elec       q    Type
REMARK                         _______ _______ _______ _____ _____    ______ ____
ROOT
ATOM      1  C   UNL     1      -3.643  -1.984  -0.504  0.00  0.00    +0.017 C 
ATOM      2  C   UNL     1      -2.391  -1.141  -0.864  0.00  0.00    +0.025 C 
ATOM      3  C   UNL     1      -2.930   0.305  -0.848  0.00  0.00    +0.088 C 
ATOM      4  N   UNL     1      -4.388   0.230  -1.047  0.00  0.00    -0.298 NA
ATOM      5  C   UNL     1      -4.769  -1.189  -1.211  0.00  0.00    +0.085 C 
ATOM      6  C   UNL     1      -5.106   0.843   0.078  0.00  0.00    +0.105 C 
ENDROOT
BRANCH   3   7
ATOM      7  C   UNL     1      -2.299   1.100  -1.962  0.00  0.00    -0.012 A 
ATOM      8  C   UNL     1      -2.939   1.227  -3.180  0.00  0.00    +0.115 A 
ATOM      9  N   UNL     1      -2.394   1.921  -4.160  0.00  0.00    -0.263 NA
ATOM     10  C   UNL     1      -1.226   2.517  -4.021  0.00  0.00    +0.111 A 
ATOM     11  C   UNL     1      -0.527   2.434  -2.831  0.00  0.00    +0.020 A 
ATOM     12  C   UNL     1      -1.071   1.718  -1.776  0.00  0.00    +0.008 A 
ENDBRANCH   3   7
TORSDOF 1
ENDMDL
MODEL 3
REMARK VINA RESULT:    -3.323      1.295      4.783
REMARK INTER + INTRA:          -3.709
REMARK INTER:                  -3.486
REMARK INTRA:                  -0.223
REMARK UNBOUND:                -0.191
REMARK  Name = Nicotine.pdb
REMARK  2 active torsions:
REMARK  status: ('A' for Active; 'I' for Inactive)
REMARK    1  A    between atoms: C_3  and  C_6
REMARK    2  A    between atoms: N_4  and  C_12
REMARK                            x       y       z     vdW  Elec       q    Type
REMARK                         _______ _______ _______ _____ _____    ______ ____
ROOT
ATOM      1  C   UNL     1      -4.410   5.715  -4.048  0.00  0.00    +0.017 C 
ATOM      2  C   UNL     1      -4.415   4.849  -2.761  0.00  0.00    +0.025 C 
ATOM      3  C   UNL     1      -3.056   4.120  -2.828  0.00  0.00    +0.088 C 
ATOM      4  N   UNL     1      -2.631   4.117  -4.239  0.00  0.00    -0.298 NA
ATOM      5  C   UNL     1      -3.673   4.787  -5.046  0.00  0.00    +0.085 C 
ATOM      6  C   UNL     1      -1.332   4.783  -4.400  0.00  0.00    +0.105 C 
ENDROOT
BRANCH   3   7
ATOM      7  C   UNL     1      -3.209   2.704  -2.335  0.00  0.00    -0.012 A 
ATOM      8  C   UNL     1      -2.903   1.639  -3.161  0.00  0.00    +0.115 A 
ATOM      9  N   UNL     1      -3.034   0.397  -2.737  0.00  0.00    -0.263 NA
ATOM     10  C   UNL     1      -3.459   0.122  -1.520  0.00  0.00    +0.111 A 
ATOM     11  C   UNL     1      -3.783   1.135  -0.637  0.00  0.00    +0.020 A 
ATOM     12  C   UNL     1      -3.653   2.453  -1.046  0.00  0.00    +0.008 A 
ENDBRANCH   3   7
TORSDOF 1
ENDMDL
MODEL 4
REMARK VINA RESULT:    -3.286      3.271      5.147
REMARK INTER + INTRA:          -3.670
REMARK INTER:                  -3.416
REMARK INTRA:                  -0.254
REMARK UNBOUND:                -0.191
REMARK  Name = Nicotine.pdb
REMARK  2 active torsions:
REMARK  status: ('A' for Active; 'I' for Inactive)
REMARK    1  A    between atoms: C_3  and  C_6
REMARK    2  A    between atoms: N_4  and  C_12
REMARK                            x       y       z     vdW  Elec       q    Type
REMARK                         _______ _______ _______ _____ _____    ______ ____
ROOT
ATOM      1  C   UNL     1      -5.171  -3.574   2.980  0.00  0.00    +0.017 C 
ATOM      2  C   UNL     1      -4.951  -3.482   1.447  0.00  0.00    +0.025 C 
ATOM      3  C   UNL     1      -3.617  -2.713   1.334  0.00  0.00    +0.088 C 
ATOM      4  N   UNL     1      -3.437  -1.963   2.590  0.00  0.00    -0.298 NA
ATOM      5  C   UNL     1      -4.606  -2.213   3.460  0.00  0.00    +0.085 C 
ATOM      6  C   UNL     1      -2.189  -2.350   3.260  0.00  0.00    +0.105 C 
ENDROOT
BRANCH   3   7
ATOM      7  C   UNL     1      -3.673  -1.758   0.169  0.00  0.00    -0.012 A 
ATOM      8  C   UNL     1      -2.520  -1.156  -0.297  0.00  0.00    +0.115 A 
ATOM      9  N   UNL     1      -2.560  -0.319  -1.315  0.00  0.00    -0.263 NA
ATOM     10  C   UNL     1      -3.691  -0.025  -1.926  0.00  0.00    +0.111 A 
ATOM     11  C   UNL     1      -4.884  -0.590  -1.517  0.00  0.00    +0.020 A 
ATOM     12  C   UNL     1      -4.880  -1.478  -0.452  0.00  0.00    +0.008 A 
ENDBRANCH   3   7
TORSDOF 1
ENDMDL
MODEL 5
REMARK VINA RESULT:    -3.236      1.668      2.554
REMARK INTER + INTRA:          -3.616
REMARK INTER:                  -3.392
REMARK INTRA:                  -0.224
REMARK UNBOUND:                -0.191
REMARK  Name = Nicotine.pdb
REMARK  2 active torsions:
REMARK  status: ('A' for Active; 'I' for Inactive)
REMARK    1  A    between atoms: C_3  and  C_6
REMARK    2  A    between atoms: N_4  and  C_12
REMARK                            x       y       z     vdW  Elec       q    Type
REMARK                         _______ _______ _______ _____ _____    ______ ____
ROOT
ATOM      1  C   UNL     1      -3.223   0.076  -1.911  0.00  0.00    +0.017 C 
ATOM      2  C   UNL     1      -2.913   1.106  -3.029  0.00  0.00    +0.025 C 
ATOM      3  C   UNL     1      -2.690   2.415  -2.243  0.00  0.00    +0.088 C 
ATOM      4  N   UNL     1      -3.370   2.266  -0.944  0.00  0.00    -0.298 NA
ATOM      5  C   UNL     1      -4.021   0.939  -0.903  0.00  0.00    +0.085 C 
ATOM      6  C   UNL     1      -2.423   2.422   0.168  0.00  0.00    +0.105 C 
ENDROOT
BRANCH   3   7
ATOM      7  C   UNL     1      -3.279   3.576  -3.001  0.00  0.00    -0.012 A 
ATOM      8  C   UNL     1      -4.235   4.383  -2.413  0.00  0.00    +0.115 A 
ATOM      9  N   UNL     1      -4.756   5.401  -3.070  0.00  0.00    -0.263 NA
ATOM     10  C   UNL     1      -4.392   5.689  -4.304  0.00  0.00    +0.111 A 
ATOM     11  C   UNL     1      -3.441   4.927  -4.957  0.00  0.00    +0.020 A 
ATOM     12  C   UNL     1      -2.867   3.852  -4.296  0.00  0.00    +0.008 A 
ENDBRANCH   3   7
TORSDOF 1
ENDMDL
MODEL 6
REMARK VINA RESULT:    -3.182      1.495      2.439
REMARK INTER + INTRA:          -3.559
REMARK INTER:                  -3.350
REMARK INTRA:                  -0.209
REMARK UNBOUND:                -0.191
REMARK  Name = Nicotine.pdb
REMARK  2 active torsions:
REMARK  status: ('A' for Active; 'I' for Inactive)
REMARK    1  A    between atoms: C_3  and  C_6
REMARK    2  A    between atoms: N_4  and  C_12
REMARK                            x       y       z     vdW  Elec       q    Type
REMARK                         _______ _______ _______ _____ _____    ______ ____
ROOT
ATOM      1  C   UNL     1      -5.171  -1.947  -0.182  0.00  0.00    +0.017 C 
ATOM      2  C   UNL     1      -4.629  -1.225  -1.444  0.00  0.00    +0.025 C 
ATOM      3  C   UNL     1      -3.402  -0.459  -0.906  0.00  0.00    +0.088 C 
ATOM      4  N   UNL     1      -3.593  -0.294   0.546  0.00  0.00    -0.298 NA
ATOM      5  C   UNL     1      -4.888  -0.898   0.923  0.00  0.00    +0.085 C 
ATOM      6  C   UNL     1      -2.487  -0.905   1.296  0.00  0.00    +0.105 C 
ENDROOT
BRANCH   3   7
ATOM      7  C   UNL     1      -3.310   0.891  -1.569  0.00  0.00    -0.012 A 
ATOM      8  C   UNL     1      -2.922   0.995  -2.892  0.00  0.00    +0.115 A 
ATOM      9  N   UNL     1      -2.839   2.172  -3.480  0.00  0.00    -0.263 NA
ATOM     10  C   UNL     1      -3.119   3.289  -2.838  0.00  0.00    +0.111 A 
ATOM     11  C   UNL     1      -3.514   3.264  -1.513  0.00  0.00    +0.020 A 
ATOM     12  C   UNL     1      -3.618   2.044  -0.863  0.00  0.00    +0.008 A 
ENDBRANCH   3   7
TORSDOF 1
ENDMDL
MODEL 7
REMARK VINA RESULT:    -3.148      1.913      4.617
REMARK INTER + INTRA:          -3.524
REMARK INTER:                  -3.303
REMARK INTRA:                  -0.221
REMARK UNBOUND:                -0.191
REMARK  Name = Nicotine.pdb
REMARK  2 active torsions:
REMARK  status: ('A' for Active; 'I' for Inactive)
REMARK    1  A    between atoms: C_3  and  C_6
REMARK    2  A    between atoms: N_4  and  C_12
REMARK                            x       y       z     vdW  Elec       q    Type
REMARK                         _______ _______ _______ _____ _____    ______ ____
ROOT
ATOM      1  C   UNL     1      -1.811   2.270  -3.727  0.00  0.00    +0.017 C 
ATOM      2  C   UNL     1      -2.945   1.287  -3.337  0.00  0.00    +0.025 C 
ATOM      3  C   UNL     1      -3.171   1.593  -1.841  0.00  0.00    +0.088 C 
ATOM      4  N   UNL     1      -1.938   2.220  -1.332  0.00  0.00    -0.298 NA
ATOM      5  C   UNL     1      -0.956   2.290  -2.436  0.00  0.00    +0.085 C 
ATOM      6  C   UNL     1      -2.212   3.555  -0.785  0.00  0.00    +0.105 C 
ENDROOT
BRANCH   3   7
ATOM      7  C   UNL     1      -3.445   0.316  -1.091  0.00  0.00    -0.012 A 
ATOM      8  C   UNL     1      -2.590  -0.105  -0.091  0.00  0.00    +0.115 A 
ATOM      9  N   UNL     1      -2.822  -1.223   0.570  0.00  0.00    -0.263 NA
ATOM     10  C   UNL     1      -3.870  -1.978   0.307  0.00  0.00    +0.111 A 
ATOM     11  C   UNL     1      -4.770  -1.621  -0.680  0.00  0.00    +0.020 A 
ATOM     12  C   UNL     1      -4.561  -0.450  -1.392  0.00  0.00    +0.008 A 
ENDBRANCH   3   7
TORSDOF 1
ENDMDL
MODEL 8
REMARK VINA RESULT:    -3.098      1.518      4.558
REMARK INTER + INTRA:          -3.470
REMARK INTER:                  -3.256
REMARK INTRA:                  -0.214
REMARK UNBOUND:                -0.191
REMARK  Name = Nicotine.pdb
REMARK  2 active torsions:
REMARK  status: ('A' for Active; 'I' for Inactive)
REMARK    1  A    between atoms: C_3  and  C_6
REMARK    2  A    between atoms: N_4  and  C_12
REMARK                            x       y       z     vdW  Elec       q    Type
REMARK                         _______ _______ _______ _____ _____    ______ ____
ROOT
ATOM      1  C   UNL     1      -2.230   3.926  -1.457  0.00  0.00    +0.017 C 
ATOM      2  C   UNL     1      -2.005   2.604  -0.676  0.00  0.00    +0.025 C 
ATOM      3  C   UNL     1      -2.145   1.526  -1.772  0.00  0.00    +0.088 C 
ATOM      4  N   UNL     1      -2.929   2.119  -2.870  0.00  0.00    -0.298 NA
ATOM      5  C   UNL     1      -3.300   3.500  -2.493  0.00  0.00    +0.085 C 
ATOM      6  C   UNL     1      -2.172   2.102  -4.128  0.00  0.00    +0.105 C 
ENDROOT
BRANCH   3   7
ATOM      7  C   UNL     1      -2.863   0.323  -1.219  0.00  0.00    -0.012 A 
ATOM      8  C   UNL     1      -2.340  -0.371  -0.145  0.00  0.00    +0.115 A 
ATOM      9  N   UNL     1      -2.962  -1.426   0.346  0.00  0.00    -0.263 NA
ATOM     10  C   UNL     1      -4.099  -1.858  -0.163  0.00  0.00    +0.111 A 
ATOM     11  C   UNL     1      -4.684  -1.214  -1.238  0.00  0.00    +0.020 A 
ATOM     12  C   UNL     1      -4.061  -0.099  -1.777  0.00  0.00    +0.008 A 
ENDBRANCH   3   7
TORSDOF 1
ENDMDL
MODEL 9
REMARK VINA RESULT:    -2.998      1.763      2.478
REMARK INTER + INTRA:          -3.365
REMARK INTER:                  -3.167
REMARK INTRA:                  -0.199
REMARK UNBOUND:                -0.191
REMARK  Name = Nicotine.pdb
REMARK  2 active torsions:
REMARK  status: ('A' for Active; 'I' for Inactive)
REMARK    1  A    between atoms: C_3  and  C_6
REMARK    2  A    between atoms: N_4  and  C_12
REMARK                            x       y       z     vdW  Elec       q    Type
REMARK                         _______ _______ _______ _____ _____    ______ ____
ROOT
ATOM      1  C   UNL     1      -1.273   2.401  -0.678  0.00  0.00    +0.017 C 
ATOM      2  C   UNL     1      -2.263   3.565  -0.951  0.00  0.00    +0.025 C 
ATOM      3  C   UNL     1      -3.203   2.976  -2.024  0.00  0.00    +0.088 C 
ATOM      4  N   UNL     1      -2.478   1.876  -2.684  0.00  0.00    -0.298 NA
ATOM      5  C   UNL     1      -1.129   1.776  -2.088  0.00  0.00    +0.085 C 
ATOM      6  C   UNL     1      -3.208   0.608  -2.552  0.00  0.00    +0.105 C 
ENDROOT
BRANCH   3   7
ATOM      7  C   UNL     1      -3.557   4.037  -3.033  0.00  0.00    -0.012 A 
ATOM      8  C   UNL     1      -2.956   4.047  -4.278  0.00  0.00    +0.115 A 
ATOM      9  N   UNL     1      -3.261   4.972  -5.167  0.00  0.00    -0.263 NA
ATOM     10  C   UNL     1      -4.142   5.917  -4.909  0.00  0.00    +0.111 A 
ATOM     11  C   UNL     1      -4.785   5.971  -3.686  0.00  0.00    +0.020 A 
ATOM     12  C   UNL     1      -4.495   5.012  -2.728  0.00  0.00    +0.008 A 
ENDBRANCH   3   7
TORSDOF 1
ENDMDL
MODEL 10
REMARK VINA RESULT:    -2.924      3.079      4.566
REMARK INTER + INTRA:          -3.286
REMARK INTER:                  -3.084
REMARK INTRA:                  -0.203
REMARK UNBOUND:                -0.191
REMARK  Name = Nicotine.pdb
REMARK  2 active torsions:
REMARK  status: ('A' for Active; 'I' for Inactive)
REMARK    1  A    between atoms: C_3  and  C_6
REMARK    2  A    between atoms: N_4  and  C_12
REMARK                            x       y       z     vdW  Elec       q    Type
REMARK                         _______ _______ _______ _____ _____    ______ ____
ROOT
ATOM      1  C   UNL     1      -3.042  -1.230   3.797  0.00  0.00    +0.017 C 
ATOM      2  C   UNL     1      -3.524  -0.280   2.669  0.00  0.00    +0.025 C 
ATOM      3  C   UNL     1      -4.125  -1.251   1.631  0.00  0.00    +0.088 C 
ATOM      4  N   UNL     1      -3.522  -2.574   1.869  0.00  0.00    -0.298 NA
ATOM      5  C   UNL     1      -2.561  -2.459   2.987  0.00  0.00    +0.085 C 
ATOM      6  C   UNL     1      -4.553  -3.578   2.162  0.00  0.00    +0.105 C 
ENDROOT
BRANCH   3   7
ATOM      7  C   UNL     1      -3.796  -0.780   0.238  0.00  0.00    -0.012 A 
ATOM      8  C   UNL     1      -3.994   0.541  -0.118  0.00  0.00    +0.115 A 
ATOM      9  N   UNL     1      -3.709   0.962  -1.335  0.00  0.00    -0.263 NA
ATOM     10  C   UNL     1      -3.228   0.148  -2.255  0.00  0.00    +0.111 A 
ATOM     11  C   UNL     1      -3.004  -1.186  -1.972  0.00  0.00    +0.020 A 
ATOM     12  C   UNL     1      -3.287  -1.663  -0.701  0.00  0.00    +0.008 A 
ENDBRANCH   3   7
TORSDOF 1
ENDMDL
