MODEL 1
REMARK VINA RESULT:    -2.864      0.000      0.000
REMARK INTER + INTRA:          -3.248
REMARK INTER:                  -3.031
REMARK INTRA:                  -0.217
REMARK UNBOUND:                -0.217
REMARK  Name = Nicotine.pdb
REMARK  2 active torsions:
REMARK  status: ('A' for Active; 'I' for Inactive)
REMARK    1  A    between atoms: C_3  and  C_6
REMARK    2  A    between atoms: N_4  and  C_12
REMARK                            x       y       z     vdW  Elec       q    Type
REMARK                         _______ _______ _______ _____ _____    ______ ____
ROOT
ATOM      1  C   UNL     1      -3.541  -0.514  -6.926  0.00  0.00    +0.017 C 
ATOM      2  C   UNL     1      -3.661  -0.222  -5.407  0.00  0.00    +0.025 C 
ATOM      3  C   UNL     1      -2.441  -0.958  -4.814  0.00  0.00    +0.088 C 
ATOM      4  N   UNL     1      -2.049  -2.001  -5.779  0.00  0.00    -0.298 NA
ATOM      5  C   UNL     1      -2.984  -1.959  -6.923  0.00  0.00    +0.085 C 
ATOM      6  C   UNL     1      -0.662  -1.814  -6.223  0.00  0.00    +0.105 C 
ENDROOT
BRANCH   3   7
ATOM      7  C   UNL     1      -2.813  -1.589  -3.497  0.00  0.00    -0.012 A 
ATOM      8  C   UNL     1      -2.302  -2.824  -3.145  0.00  0.00    +0.115 A 
ATOM      9  N   UNL     1      -2.623  -3.384  -1.994  0.00  0.00    -0.263 NA
ATOM     10  C   UNL     1      -3.436  -2.795  -1.140  0.00  0.00    +0.111 A 
ATOM     11  C   UNL     1      -3.986  -1.558  -1.424  0.00  0.00    +0.020 A 
ATOM     12  C   UNL     1      -3.668  -0.937  -2.621  0.00  0.00    +0.008 A 
ENDBRANCH   3   7
TORSDOF 1
ENDMDL
MODEL 2
REMARK VINA RESULT:    -2.748      1.889      3.533
REMARK INTER + INTRA:          -3.125
REMARK INTER:                  -2.875
REMARK INTRA:                  -0.250
REMARK UNBOUND:                -0.217
REMARK  Name = Nicotine.pdb
REMARK  2 active torsions:
REMARK  status: ('A' for Active; 'I' for Inactive)
REMARK    1  A    between atoms: C_3  and  C_6
REMARK    2  A    between atoms: N_4  and  C_12
REMARK                            x       y       z     vdW  Elec       q    Type
REMARK                         _______ _______ _______ _____ _____    ______ ____
ROOT
ATOM      1  C   UNL     1      -0.474  -3.099  -3.617  0.00  0.00    +0.017 C 
ATOM      2  C   UNL     1      -1.992  -2.780  -3.606  0.00  0.00    +0.025 C 
ATOM      3  C   UNL     1      -2.197  -2.024  -4.936  0.00  0.00    +0.088 C 
ATOM      4  N   UNL     1      -0.888  -1.476  -5.334  0.00  0.00    -0.298 NA
ATOM      5  C   UNL     1       0.107  -1.836  -4.301  0.00  0.00    +0.085 C 
ATOM      6  C   UNL     1      -0.484  -1.980  -6.653  0.00  0.00    +0.105 C 
ENDROOT
BRANCH   3   7
ATOM      7  C   UNL     1      -3.185  -0.903  -4.742  0.00  0.00    -0.012 A 
ATOM      8  C   UNL     1      -3.657  -0.191  -5.828  0.00  0.00    +0.115 A 
ATOM      9  N   UNL     1      -4.523   0.791  -5.667  0.00  0.00    -0.263 NA
ATOM     10  C   UNL     1      -4.969   1.132  -4.475  0.00  0.00    +0.111 A 
ATOM     11  C   UNL     1      -4.543   0.465  -3.341  0.00  0.00    +0.020 A 
ATOM     12  C   UNL     1      -3.637  -0.577  -3.472  0.00  0.00    +0.008 A 
ENDBRANCH   3   7
TORSDOF 1
ENDMDL
MODEL 3
REMARK VINA RESULT:    -2.743      1.951      3.015
REMARK INTER + INTRA:          -3.120
REMARK INTER:                  -2.915
REMARK INTRA:                  -0.205
REMARK UNBOUND:                -0.217
REMARK  Name = Nicotine.pdb
REMARK  2 active torsions:
REMARK  status: ('A' for Active; 'I' for Inactive)
REMARK    1  A    between atoms: C_3  and  C_6
REMARK    2  A    between atoms: N_4  and  C_12
REMARK                            x       y       z     vdW  Elec       q    Type
REMARK                         _______ _______ _______ _____ _____    ______ ____
ROOT
ATOM      1  C   UNL     1      -1.791  -3.411  -6.821  0.00  0.00    +0.017 C 
ATOM      2  C   UNL     1      -2.717  -2.168  -6.878  0.00  0.00    +0.025 C 
ATOM      3  C   UNL     1      -2.069  -1.205  -5.860  0.00  0.00    +0.088 C 
ATOM      4  N   UNL     1      -1.263  -2.024  -4.937  0.00  0.00    -0.298 NA
ATOM      5  C   UNL     1      -1.404  -3.445  -5.321  0.00  0.00    +0.085 C 
ATOM      6  C   UNL     1       0.146  -1.609  -4.958  0.00  0.00    +0.105 C 
ENDROOT
BRANCH   3   7
ATOM      7  C   UNL     1      -3.140  -0.472  -5.095  0.00  0.00    -0.012 A 
ATOM      8  C   UNL     1      -3.397  -0.788  -3.774  0.00  0.00    +0.115 A 
ATOM      9  N   UNL     1      -4.332  -0.150  -3.098  0.00  0.00    -0.263 NA
ATOM     10  C   UNL     1      -5.055   0.806  -3.647  0.00  0.00    +0.111 A 
ATOM     11  C   UNL     1      -4.854   1.177  -4.963  0.00  0.00    +0.020 A 
ATOM     12  C   UNL     1      -3.876   0.533  -5.704  0.00  0.00    +0.008 A 
ENDBRANCH   3   7
TORSDOF 1
ENDMDL
MODEL 4
REMARK VINA RESULT:    -2.743      2.428      4.518
REMARK INTER + INTRA:          -3.120
REMARK INTER:                  -2.903
REMARK INTRA:                  -0.217
REMARK UNBOUND:                -0.217
REMARK  Name = Nicotine.pdb
REMARK  2 active torsions:
REMARK  status: ('A' for Active; 'I' for Inactive)
REMARK    1  A    between atoms: C_3  and  C_6
REMARK    2  A    between atoms: N_4  and  C_12
REMARK                            x       y       z     vdW  Elec       q    Type
REMARK                         _______ _______ _______ _____ _____    ______ ____
ROOT
ATOM      1  C   UNL     1      -2.307  -2.010  -3.990  0.00  0.00    +0.017 C 
ATOM      2  C   UNL     1      -3.334  -0.852  -3.881  0.00  0.00    +0.025 C 
ATOM      3  C   UNL     1      -3.612  -0.495  -5.357  0.00  0.00    +0.088 C 
ATOM      4  N   UNL     1      -2.461  -0.969  -6.146  0.00  0.00    -0.298 NA
ATOM      5  C   UNL     1      -1.478  -1.577  -5.225  0.00  0.00    +0.085 C 
ATOM      6  C   UNL     1      -2.886  -1.930  -7.173  0.00  0.00    +0.105 C 
ENDROOT
BRANCH   3   7
ATOM      7  C   UNL     1      -3.757   0.997  -5.505  0.00  0.00    -0.012 A 
ATOM      8  C   UNL     1      -2.833   1.720  -6.236  0.00  0.00    +0.115 A 
ATOM      9  N   UNL     1      -2.953   3.027  -6.371  0.00  0.00    -0.263 NA
ATOM     10  C   UNL     1      -3.948   3.692  -5.819  0.00  0.00    +0.111 A 
ATOM     11  C   UNL     1      -4.910   3.037  -5.074  0.00  0.00    +0.020 A 
ATOM     12  C   UNL     1      -4.821   1.662  -4.915  0.00  0.00    +0.008 A 
ENDBRANCH   3   7
TORSDOF 1
ENDMDL
MODEL 5
REMARK VINA RESULT:    -2.715      2.509      3.907
REMARK INTER + INTRA:          -3.091
REMARK INTER:                  -2.850
REMARK INTRA:                  -0.241
REMARK UNBOUND:                -0.217
REMARK  Name = Nicotine.pdb
REMARK  2 active torsions:
REMARK  status: ('A' for Active; 'I' for Inactive)
REMARK    1  A    between atoms: C_3  and  C_6
REMARK    2  A    between atoms: N_4  and  C_12
REMARK                            x       y       z     vdW  Elec       q    Type
REMARK                         _______ _______ _______ _____ _____    ______ ____
ROOT
ATOM      1  C   UNL     1      -4.812   2.830  -4.974  0.00  0.00    +0.017 C 
ATOM      2  C   UNL     1      -4.734   1.304  -5.246  0.00  0.00    +0.025 C 
ATOM      3  C   UNL     1      -4.672   0.702  -3.826  0.00  0.00    +0.088 C 
ATOM      4  N   UNL     1      -4.178   1.758  -2.924  0.00  0.00    -0.298 NA
ATOM      5  C   UNL     1      -3.909   2.972  -3.724  0.00  0.00    +0.085 C 
ATOM      6  C   UNL     1      -5.147   2.034  -1.856  0.00  0.00    +0.105 C 
ENDROOT
BRANCH   3   7
ATOM      7  C   UNL     1      -3.729  -0.473  -3.808  0.00  0.00    -0.012 A 
ATOM      8  C   UNL     1      -3.522  -1.186  -2.642  0.00  0.00    +0.115 A 
ATOM      9  N   UNL     1      -2.698  -2.215  -2.618  0.00  0.00    -0.263 NA
ATOM     10  C   UNL     1      -2.042  -2.603  -3.693  0.00  0.00    +0.111 A 
ATOM     11  C   UNL     1      -2.198  -1.939  -4.896  0.00  0.00    +0.020 A 
ATOM     12  C   UNL     1      -3.061  -0.856  -4.961  0.00  0.00    +0.008 A 
ENDBRANCH   3   7
TORSDOF 1
ENDMDL
MODEL 6
REMARK VINA RESULT:    -2.662      2.625      4.713
REMARK INTER + INTRA:          -3.034
REMARK INTER:                  -2.814
REMARK INTRA:                  -0.220
REMARK UNBOUND:                -0.217
REMARK  Name = Nicotine.pdb
REMARK  2 active torsions:
REMARK  status: ('A' for Active; 'I' for Inactive)
REMARK    1  A    between atoms: C_3  and  C_6
REMARK    2  A    between atoms: N_4  and  C_12
REMARK                            x       y       z     vdW  Elec       q    Type
REMARK                         _______ _______ _______ _____ _____    ______ ____
ROOT
ATOM      1  C   UNL     1      -4.633   3.731  -4.297  0.00  0.00    +0.017 C 
ATOM      2  C   UNL     1      -4.769   2.627  -5.379  0.00  0.00    +0.025 C 
ATOM      3  C   UNL     1      -4.837   1.330  -4.545  0.00  0.00    +0.088 C 
ATOM      4  N   UNL     1      -4.222   1.619  -3.237  0.00  0.00    -0.298 NA
ATOM      5  C   UNL     1      -3.756   3.022  -3.235  0.00  0.00    +0.085 C 
ATOM      6  C   UNL     1      -5.171   1.377  -2.143  0.00  0.00    +0.105 C 
ENDROOT
BRANCH   3   7
ATOM      7  C   UNL     1      -4.075   0.233  -5.241  0.00  0.00    -0.012 A 
ATOM      8  C   UNL     1      -3.200  -0.569  -4.532  0.00  0.00    +0.115 A 
ATOM      9  N   UNL     1      -2.529  -1.532  -5.134  0.00  0.00    -0.263 NA
ATOM     10  C   UNL     1      -2.663  -1.768  -6.424  0.00  0.00    +0.111 A 
ATOM     11  C   UNL     1      -3.520  -1.008  -7.198  0.00  0.00    +0.020 A 
ATOM     12  C   UNL     1      -4.246   0.010  -6.599  0.00  0.00    +0.008 A 
ENDBRANCH   3   7
TORSDOF 1
ENDMDL
MODEL 7
REMARK VINA RESULT:    -2.640      1.247      4.380
REMARK INTER + INTRA:          -3.011
REMARK INTER:                  -2.797
REMARK INTRA:                  -0.214
REMARK UNBOUND:                -0.217
REMARK  Name = Nicotine.pdb
REMARK  2 active torsions:
REMARK  status: ('A' for Active; 'I' for Inactive)
REMARK    1  A    between atoms: C_3  and  C_6
REMARK    2  A    between atoms: N_4  and  C_12
REMARK                            x       y       z     vdW  Elec       q    Type
REMARK                         _______ _______ _______ _____ _____    ______ ____
ROOT
ATOM      1  C   UNL     1      -0.985  -2.987  -2.010  0.00  0.00    +0.017 C 
ATOM      2  C   UNL     1      -1.018  -1.828  -3.041  0.00  0.00    +0.025 C 
ATOM      3  C   UNL     1      -2.439  -1.250  -2.869  0.00  0.00    +0.088 C 
ATOM      4  N   UNL     1      -3.271  -2.308  -2.270  0.00  0.00    -0.298 NA
ATOM      5  C   UNL     1      -2.439  -3.517  -2.089  0.00  0.00    +0.085 C 
ATOM      6  C   UNL     1      -3.845  -1.867  -0.992  0.00  0.00    +0.105 C 
ENDROOT
BRANCH   3   7
ATOM      7  C   UNL     1      -2.998  -0.854  -4.211  0.00  0.00    -0.012 A 
ATOM      8  C   UNL     1      -2.584  -1.503  -5.359  0.00  0.00    +0.115 A 
ATOM      9  N   UNL     1      -3.068  -1.163  -6.538  0.00  0.00    -0.263 NA
ATOM     10  C   UNL     1      -3.958  -0.199  -6.670  0.00  0.00    +0.111 A 
ATOM     11  C   UNL     1      -4.420   0.494  -5.566  0.00  0.00    +0.020 A 
ATOM     12  C   UNL     1      -3.937   0.160  -4.310  0.00  0.00    +0.008 A 
ENDBRANCH   3   7
TORSDOF 1
ENDMDL
MODEL 8
REMARK VINA RESULT:    -2.591      1.465      1.832
REMARK INTER + INTRA:          -2.959
REMARK INTER:                  -2.739
REMARK INTRA:                  -0.219
REMARK UNBOUND:                -0.217
REMARK  Name = Nicotine.pdb
REMARK  2 active torsions:
REMARK  status: ('A' for Active; 'I' for Inactive)
REMARK    1  A    between atoms: C_3  and  C_6
REMARK    2  A    between atoms: N_4  and  C_12
REMARK                            x       y       z     vdW  Elec       q    Type
REMARK                         _______ _______ _______ _____ _____    ______ ____
ROOT
ATOM      1  C   UNL     1      -2.096  -1.774  -5.941  0.00  0.00    +0.017 C 
ATOM      2  C   UNL     1      -2.891  -1.007  -4.851  0.00  0.00    +0.025 C 
ATOM      3  C   UNL     1      -2.168  -1.408  -3.547  0.00  0.00    +0.088 C 
ATOM      4  N   UNL     1      -1.466  -2.677  -3.809  0.00  0.00    -0.298 NA
ATOM      5  C   UNL     1      -1.743  -3.089  -5.202  0.00  0.00    +0.085 C 
ATOM      6  C   UNL     1      -0.023  -2.539  -3.577  0.00  0.00    +0.105 C 
ENDROOT
BRANCH   3   7
ATOM      7  C   UNL     1      -3.174  -1.595  -2.441  0.00  0.00    -0.012 A 
ATOM      8  C   UNL     1      -3.093  -2.690  -1.601  0.00  0.00    +0.115 A 
ATOM      9  N   UNL     1      -3.969  -2.861  -0.630  0.00  0.00    -0.263 NA
ATOM     10  C   UNL     1      -4.949  -2.004  -0.421  0.00  0.00    +0.111 A 
ATOM     11  C   UNL     1      -5.093  -0.886  -1.221  0.00  0.00    +0.020 A 
ATOM     12  C   UNL     1      -4.188  -0.669  -2.248  0.00  0.00    +0.008 A 
ENDBRANCH   3   7
TORSDOF 1
ENDMDL
MODEL 9
REMARK VINA RESULT:    -2.586      1.739      4.077
REMARK INTER + INTRA:          -2.954
REMARK INTER:                  -2.699
REMARK INTRA:                  -0.255
REMARK UNBOUND:                -0.217
REMARK  Name = Nicotine.pdb
REMARK  2 active torsions:
REMARK  status: ('A' for Active; 'I' for Inactive)
REMARK    1  A    between atoms: C_3  and  C_6
REMARK    2  A    between atoms: N_4  and  C_12
REMARK                            x       y       z     vdW  Elec       q    Type
REMARK                         _______ _______ _______ _____ _____    ______ ____
ROOT
ATOM      1  C   UNL     1      -1.792  -2.291  -1.036  0.00  0.00    +0.017 C 
ATOM      2  C   UNL     1      -3.025  -2.123  -1.963  0.00  0.00    +0.025 C 
ATOM      3  C   UNL     1      -2.399  -2.118  -3.374  0.00  0.00    +0.088 C 
ATOM      4  N   UNL     1      -0.985  -1.730  -3.224  0.00  0.00    -0.298 NA
ATOM      5  C   UNL     1      -0.717  -1.472  -1.793  0.00  0.00    +0.085 C 
ATOM      6  C   UNL     1      -0.094  -2.773  -3.747  0.00  0.00    +0.105 C 
ENDROOT
BRANCH   3   7
ATOM      7  C   UNL     1      -3.115  -1.122  -4.248  0.00  0.00    -0.012 A 
ATOM      8  C   UNL     1      -2.941  -1.142  -5.619  0.00  0.00    +0.115 A 
ATOM      9  N   UNL     1      -3.564  -0.274  -6.392  0.00  0.00    -0.263 NA
ATOM     10  C   UNL     1      -4.371   0.642  -5.894  0.00  0.00    +0.111 A 
ATOM     11  C   UNL     1      -4.595   0.723  -4.532  0.00  0.00    +0.020 A 
ATOM     12  C   UNL     1      -3.962  -0.176  -3.689  0.00  0.00    +0.008 A 
ENDBRANCH   3   7
TORSDOF 1
ENDMDL
MODEL 10
REMARK VINA RESULT:    -2.552      1.643      2.631
REMARK INTER + INTRA:          -2.918
REMARK INTER:                  -2.665
REMARK INTRA:                  -0.253
REMARK UNBOUND:                -0.217
REMARK  Name = Nicotine.pdb
REMARK  2 active torsions:
REMARK  status: ('A' for Active; 'I' for Inactive)
REMARK    1  A    between atoms: C_3  and  C_6
REMARK    2  A    between atoms: N_4  and  C_12
REMARK                            x       y       z     vdW  Elec       q    Type
REMARK                         _______ _______ _______ _____ _____    ______ ____
ROOT
ATOM      1  C   UNL     1      -3.211   0.713  -6.947  0.00  0.00    +0.017 C 
ATOM      2  C   UNL     1      -3.708  -0.526  -6.156  0.00  0.00    +0.025 C 
ATOM      3  C   UNL     1      -3.707  -0.029  -4.695  0.00  0.00    +0.088 C 
ATOM      4  N   UNL     1      -2.775   1.111  -4.622  0.00  0.00    -0.298 NA
ATOM      5  C   UNL     1      -2.184   1.322  -5.960  0.00  0.00    +0.085 C 
ATOM      6  C   UNL     1      -3.460   2.322  -4.151  0.00  0.00    +0.105 C 
ENDROOT
BRANCH   3   7
ATOM      7  C   UNL     1      -3.244  -1.131  -3.778  0.00  0.00    -0.012 A 
ATOM      8  C   UNL     1      -3.776  -1.254  -2.508  0.00  0.00    +0.115 A 
ATOM      9  N   UNL     1      -3.377  -2.216  -1.699  0.00  0.00    -0.263 NA
ATOM     10  C   UNL     1      -2.462  -3.092  -2.064  0.00  0.00    +0.111 A 
ATOM     11  C   UNL     1      -1.885  -3.033  -3.319  0.00  0.00    +0.020 A 
ATOM     12  C   UNL     1      -2.284  -2.038  -4.199  0.00  0.00    +0.008 A 
ENDBRANCH   3   7
TORSDOF 1
ENDMDL
