MODEL 1
REMARK VINA RESULT:    -0.852      0.000      0.000
REMARK INTER + INTRA:          -1.115
REMARK INTER:                  -0.901
REMARK INTRA:                  -0.214
REMARK UNBOUND:                -0.214
REMARK  Name = Nicotine.pdb
REMARK  2 active torsions:
REMARK  status: ('A' for Active; 'I' for Inactive)
REMARK    1  A    between atoms: C_3  and  C_6
REMARK    2  A    between atoms: N_4  and  C_12
REMARK                            x       y       z     vdW  Elec       q    Type
REMARK                         _______ _______ _______ _____ _____    ______ ____
ROOT
ATOM      1  C   UNL     1       5.357   3.828  -4.861  0.00  0.00    +0.017 C 
ATOM      2  C   UNL     1       6.578   4.670  -4.404  0.00  0.00    +0.025 C 
ATOM      3  C   UNL     1       6.750   5.685  -5.554  0.00  0.00    +0.088 C 
ATOM      4  N   UNL     1       6.108   5.106  -6.747  0.00  0.00    -0.298 NA
ATOM      5  C   UNL     1       5.572   3.774  -6.394  0.00  0.00    +0.085 C 
ATOM      6  C   UNL     1       5.045   5.984  -7.253  0.00  0.00    +0.105 C 
ENDROOT
BRANCH   3   7
ATOM      7  C   UNL     1       8.215   5.915  -5.819  0.00  0.00    -0.012 A 
ATOM      8  C   UNL     1       9.015   6.503  -4.857  0.00  0.00    +0.115 A 
ATOM      9  N   UNL     1      10.299   6.708  -5.081  0.00  0.00    -0.263 NA
ATOM     10  C   UNL     1      10.867   6.366  -6.221  0.00  0.00    +0.111 A 
ATOM     11  C   UNL     1      10.130   5.773  -7.229  0.00  0.00    +0.020 A 
ATOM     12  C   UNL     1       8.779   5.537  -7.028  0.00  0.00    +0.008 A 
ENDBRANCH   3   7
TORSDOF 1
ENDMDL
MODEL 2
REMARK VINA RESULT:    -0.817      1.486      4.320
REMARK INTER + INTRA:          -1.079
REMARK INTER:                  -0.866
REMARK INTRA:                  -0.213
REMARK UNBOUND:                -0.214
REMARK  Name = Nicotine.pdb
REMARK  2 active torsions:
REMARK  status: ('A' for Active; 'I' for Inactive)
REMARK    1  A    between atoms: C_3  and  C_6
REMARK    2  A    between atoms: N_4  and  C_12
REMARK                            x       y       z     vdW  Elec       q    Type
REMARK                         _______ _______ _______ _____ _____    ______ ____
ROOT
ATOM      1  C   UNL     1      10.400   4.286  -4.414  0.00  0.00    +0.017 C 
ATOM      2  C   UNL     1       9.007   3.898  -4.976  0.00  0.00    +0.025 C 
ATOM      3  C   UNL     1       8.935   4.686  -6.301  0.00  0.00    +0.088 C 
ATOM      4  N   UNL     1       9.883   5.810  -6.192  0.00  0.00    -0.298 NA
ATOM      5  C   UNL     1      10.515   5.766  -4.857  0.00  0.00    +0.085 C 
ATOM      6  C   UNL     1      10.894   5.751  -7.256  0.00  0.00    +0.105 C 
ENDROOT
BRANCH   3   7
ATOM      7  C   UNL     1       7.538   5.210  -6.510  0.00  0.00    -0.012 A 
ATOM      8  C   UNL     1       6.468   4.338  -6.582  0.00  0.00    +0.115 A 
ATOM      9  N   UNL     1       5.242   4.789  -6.765  0.00  0.00    -0.263 NA
ATOM     10  C   UNL     1       4.988   6.076  -6.887  0.00  0.00    +0.111 A 
ATOM     11  C   UNL     1       6.008   7.008  -6.825  0.00  0.00    +0.020 A 
ATOM     12  C   UNL     1       7.309   6.572  -6.628  0.00  0.00    +0.008 A 
ENDBRANCH   3   7
TORSDOF 1
ENDMDL
MODEL 3
REMARK VINA RESULT:    -0.812      1.513      2.359
REMARK INTER + INTRA:          -1.073
REMARK INTER:                  -0.822
REMARK INTRA:                  -0.251
REMARK UNBOUND:                -0.214
REMARK  Name = Nicotine.pdb
REMARK  2 active torsions:
REMARK  status: ('A' for Active; 'I' for Inactive)
REMARK    1  A    between atoms: C_3  and  C_6
REMARK    2  A    between atoms: N_4  and  C_12
REMARK                            x       y       z     vdW  Elec       q    Type
REMARK                         _______ _______ _______ _____ _____    ______ ____
ROOT
ATOM      1  C   UNL     1       4.938   6.301  -5.518  0.00  0.00    +0.017 C 
ATOM      2  C   UNL     1       6.076   6.316  -6.573  0.00  0.00    +0.025 C 
ATOM      3  C   UNL     1       6.769   4.953  -6.356  0.00  0.00    +0.088 C 
ATOM      4  N   UNL     1       6.446   4.513  -4.986  0.00  0.00    -0.298 NA
ATOM      5  C   UNL     1       5.611   5.549  -4.342  0.00  0.00    +0.085 C 
ATOM      6  C   UNL     1       5.760   3.215  -4.998  0.00  0.00    +0.105 C 
ENDROOT
BRANCH   3   7
ATOM      7  C   UNL     1       8.260   5.106  -6.509  0.00  0.00    -0.012 A 
ATOM      8  C   UNL     1       9.007   4.105  -7.101  0.00  0.00    +0.115 A 
ATOM      9  N   UNL     1      10.313   4.231  -7.239  0.00  0.00    -0.263 NA
ATOM     10  C   UNL     1      10.954   5.305  -6.823  0.00  0.00    +0.111 A 
ATOM     11  C   UNL     1      10.272   6.347  -6.222  0.00  0.00    +0.020 A 
ATOM     12  C   UNL     1       8.898   6.253  -6.065  0.00  0.00    +0.008 A 
ENDBRANCH   3   7
TORSDOF 1
ENDMDL
MODEL 4
REMARK VINA RESULT:    -0.715      1.458      4.505
REMARK INTER + INTRA:          -0.971
REMARK INTER:                  -0.725
REMARK INTRA:                  -0.246
REMARK UNBOUND:                -0.214
REMARK  Name = Nicotine.pdb
REMARK  2 active torsions:
REMARK  status: ('A' for Active; 'I' for Inactive)
REMARK    1  A    between atoms: C_3  and  C_6
REMARK    2  A    between atoms: N_4  and  C_12
REMARK                            x       y       z     vdW  Elec       q    Type
REMARK                         _______ _______ _______ _____ _____    ______ ____
ROOT
ATOM      1  C   UNL     1      10.123   5.469  -7.255  0.00  0.00    +0.017 C 
ATOM      2  C   UNL     1       8.618   5.845  -7.235  0.00  0.00    +0.025 C 
ATOM      3  C   UNL     1       8.361   6.173  -5.749  0.00  0.00    +0.088 C 
ATOM      4  N   UNL     1       9.410   5.496  -4.965  0.00  0.00    -0.298 NA
ATOM      5  C   UNL     1      10.283   4.747  -5.894  0.00  0.00    +0.085 C 
ATOM      6  C   UNL     1      10.185   6.463  -4.176  0.00  0.00    +0.105 C 
ENDROOT
BRANCH   3   7
ATOM      7  C   UNL     1       7.004   5.665  -5.338  0.00  0.00    -0.012 A 
ATOM      8  C   UNL     1       6.182   6.435  -4.537  0.00  0.00    +0.115 A 
ATOM      9  N   UNL     1       4.992   5.997  -4.173  0.00  0.00    -0.263 NA
ATOM     10  C   UNL     1       4.541   4.819  -4.554  0.00  0.00    +0.111 A 
ATOM     11  C   UNL     1       5.306   3.994  -5.358  0.00  0.00    +0.020 A 
ATOM     12  C   UNL     1       6.560   4.422  -5.764  0.00  0.00    +0.008 A 
ENDBRANCH   3   7
TORSDOF 1
ENDMDL
MODEL 5
REMARK VINA RESULT:    -0.704      2.899      4.170
REMARK INTER + INTRA:          -0.959
REMARK INTER:                  -0.706
REMARK INTRA:                  -0.253
REMARK UNBOUND:                -0.214
REMARK  Name = Nicotine.pdb
REMARK  2 active torsions:
REMARK  status: ('A' for Active; 'I' for Inactive)
REMARK    1  A    between atoms: C_3  and  C_6
REMARK    2  A    between atoms: N_4  and  C_12
REMARK                            x       y       z     vdW  Elec       q    Type
REMARK                         _______ _______ _______ _____ _____    ______ ____
ROOT
ATOM      1  C   UNL     1       8.986   6.651  -6.115  0.00  0.00    +0.017 C 
ATOM      2  C   UNL     1       9.392   5.555  -7.136  0.00  0.00    +0.025 C 
ATOM      3  C   UNL     1       8.293   4.487  -6.954  0.00  0.00    +0.088 C 
ATOM      4  N   UNL     1       7.712   4.682  -5.613  0.00  0.00    -0.298 NA
ATOM      5  C   UNL     1       8.418   5.800  -4.952  0.00  0.00    +0.085 C 
ATOM      6  C   UNL     1       6.270   4.944  -5.697  0.00  0.00    +0.105 C 
ENDROOT
BRANCH   3   7
ATOM      7  C   UNL     1       8.894   3.110  -7.059  0.00  0.00    -0.012 A 
ATOM      8  C   UNL     1       8.080   1.998  -7.163  0.00  0.00    +0.115 A 
ATOM      9  N   UNL     1       8.598   0.788  -7.256  0.00  0.00    -0.263 NA
ATOM     10  C   UNL     1       9.901   0.591  -7.253  0.00  0.00    +0.111 A 
ATOM     11  C   UNL     1      10.778   1.655  -7.152  0.00  0.00    +0.020 A 
ATOM     12  C   UNL     1      10.270   2.941  -7.058  0.00  0.00    +0.008 A 
ENDBRANCH   3   7
TORSDOF 1
ENDMDL
MODEL 6
REMARK VINA RESULT:    -0.693      2.372      4.058
REMARK INTER + INTRA:          -0.948
REMARK INTER:                  -0.726
REMARK INTRA:                  -0.222
REMARK UNBOUND:                -0.214
REMARK  Name = Nicotine.pdb
REMARK  2 active torsions:
REMARK  status: ('A' for Active; 'I' for Inactive)
REMARK    1  A    between atoms: C_3  and  C_6
REMARK    2  A    between atoms: N_4  and  C_12
REMARK                            x       y       z     vdW  Elec       q    Type
REMARK                         _______ _______ _______ _____ _____    ______ ____
ROOT
ATOM      1  C   UNL     1       7.947   5.887  -7.149  0.00  0.00    +0.017 C 
ATOM      2  C   UNL     1       8.127   6.802  -5.910  0.00  0.00    +0.025 C 
ATOM      3  C   UNL     1       9.445   6.292  -5.289  0.00  0.00    +0.088 C 
ATOM      4  N   UNL     1       9.645   4.910  -5.763  0.00  0.00    -0.298 NA
ATOM      5  C   UNL     1       8.502   4.538  -6.625  0.00  0.00    +0.085 C 
ATOM      6  C   UNL     1      10.915   4.781  -6.488  0.00  0.00    +0.105 C 
ENDROOT
BRANCH   3   7
ATOM      7  C   UNL     1       9.344   6.309  -3.785  0.00  0.00    -0.012 A 
ATOM      8  C   UNL     1      10.259   5.617  -3.015  0.00  0.00    +0.115 A 
ATOM      9  N   UNL     1      10.178   5.627  -1.699  0.00  0.00    -0.263 NA
ATOM     10  C   UNL     1       9.229   6.291  -1.068  0.00  0.00    +0.111 A 
ATOM     11  C   UNL     1       8.279   7.007  -1.772  0.00  0.00    +0.020 A 
ATOM     12  C   UNL     1       8.335   7.024  -3.157  0.00  0.00    +0.008 A 
ENDBRANCH   3   7
TORSDOF 1
ENDMDL
MODEL 7
REMARK VINA RESULT:    -0.668      1.433      1.854
REMARK INTER + INTRA:          -0.921
REMARK INTER:                  -0.698
REMARK INTRA:                  -0.223
REMARK UNBOUND:                -0.214
REMARK  Name = Nicotine.pdb
REMARK  2 active torsions:
REMARK  status: ('A' for Active; 'I' for Inactive)
REMARK    1  A    between atoms: C_3  and  C_6
REMARK    2  A    between atoms: N_4  and  C_12
REMARK                            x       y       z     vdW  Elec       q    Type
REMARK                         _______ _______ _______ _____ _____    ______ ____
ROOT
ATOM      1  C   UNL     1       6.214   3.209  -3.747  0.00  0.00    +0.017 C 
ATOM      2  C   UNL     1       7.128   4.455  -3.876  0.00  0.00    +0.025 C 
ATOM      3  C   UNL     1       7.096   4.755  -5.390  0.00  0.00    +0.088 C 
ATOM      4  N   UNL     1       6.715   3.506  -6.074  0.00  0.00    -0.298 NA
ATOM      5  C   UNL     1       6.537   2.448  -5.058  0.00  0.00    +0.085 C 
ATOM      6  C   UNL     1       5.491   3.690  -6.864  0.00  0.00    +0.105 C 
ENDROOT
BRANCH   3   7
ATOM      7  C   UNL     1       8.458   5.201  -5.853  0.00  0.00    -0.012 A 
ATOM      8  C   UNL     1       9.122   4.503  -6.844  0.00  0.00    +0.115 A 
ATOM      9  N   UNL     1      10.315   4.887  -7.256  0.00  0.00    -0.263 NA
ATOM     10  C   UNL     1      10.919   5.941  -6.744  0.00  0.00    +0.111 A 
ATOM     11  C   UNL     1      10.317   6.688  -5.749  0.00  0.00    +0.020 A 
ATOM     12  C   UNL     1       9.060   6.318  -5.295  0.00  0.00    +0.008 A 
ENDBRANCH   3   7
TORSDOF 1
ENDMDL
MODEL 8
REMARK VINA RESULT:    -0.658      2.490      3.926
REMARK INTER + INTRA:          -0.911
REMARK INTER:                  -0.700
REMARK INTRA:                  -0.211
REMARK UNBOUND:                -0.214
REMARK  Name = Nicotine.pdb
REMARK  2 active torsions:
REMARK  status: ('A' for Active; 'I' for Inactive)
REMARK    1  A    between atoms: C_3  and  C_6
REMARK    2  A    between atoms: N_4  and  C_12
REMARK                            x       y       z     vdW  Elec       q    Type
REMARK                         _______ _______ _______ _____ _____    ______ ____
ROOT
ATOM      1  C   UNL     1       8.725   1.497  -4.933  0.00  0.00    +0.017 C 
ATOM      2  C   UNL     1       7.560   2.320  -5.541  0.00  0.00    +0.025 C 
ATOM      3  C   UNL     1       8.270   3.211  -6.582  0.00  0.00    +0.088 C 
ATOM      4  N   UNL     1       9.686   3.304  -6.184  0.00  0.00    -0.298 NA
ATOM      5  C   UNL     1       9.876   2.534  -4.936  0.00  0.00    +0.085 C 
ATOM      6  C   UNL     1      10.566   2.806  -7.249  0.00  0.00    +0.105 C 
ENDROOT
BRANCH   3   7
ATOM      7  C   UNL     1       7.648   4.584  -6.592  0.00  0.00    -0.012 A 
ATOM      8  C   UNL     1       6.374   4.771  -7.094  0.00  0.00    +0.115 A 
ATOM      9  N   UNL     1       5.823   5.968  -7.106  0.00  0.00    -0.263 NA
ATOM     10  C   UNL     1       6.457   7.028  -6.644  0.00  0.00    +0.111 A 
ATOM     11  C   UNL     1       7.734   6.918  -6.126  0.00  0.00    +0.020 A 
ATOM     12  C   UNL     1       8.344   5.674  -6.092  0.00  0.00    +0.008 A 
ENDBRANCH   3   7
TORSDOF 1
ENDMDL
MODEL 9
REMARK VINA RESULT:    -0.614      1.629      2.487
REMARK INTER + INTRA:          -0.864
REMARK INTER:                  -0.622
REMARK INTRA:                  -0.241
REMARK UNBOUND:                -0.214
REMARK  Name = Nicotine.pdb
REMARK  2 active torsions:
REMARK  status: ('A' for Active; 'I' for Inactive)
REMARK    1  A    between atoms: C_3  and  C_6
REMARK    2  A    between atoms: N_4  and  C_12
REMARK                            x       y       z     vdW  Elec       q    Type
REMARK                         _______ _______ _______ _____ _____    ______ ____
ROOT
ATOM      1  C   UNL     1       3.755   5.301  -6.581  0.00  0.00    +0.017 C 
ATOM      2  C   UNL     1       5.287   5.211  -6.808  0.00  0.00    +0.025 C 
ATOM      3  C   UNL     1       5.819   4.798  -5.419  0.00  0.00    +0.088 C 
ATOM      4  N   UNL     1       4.804   5.192  -4.426  0.00  0.00    -0.298 NA
ATOM      5  C   UNL     1       3.684   5.850  -5.134  0.00  0.00    +0.085 C 
ATOM      6  C   UNL     1       4.334   4.029  -3.663  0.00  0.00    +0.105 C 
ENDROOT
BRANCH   3   7
ATOM      7  C   UNL     1       7.118   5.508  -5.136  0.00  0.00    -0.012 A 
ATOM      8  C   UNL     1       7.796   5.280  -3.953  0.00  0.00    +0.115 A 
ATOM      9  N   UNL     1       8.933   5.897  -3.698  0.00  0.00    -0.263 NA
ATOM     10  C   UNL     1       9.465   6.750  -4.550  0.00  0.00    +0.111 A 
ATOM     11  C   UNL     1       8.845   7.028  -5.754  0.00  0.00    +0.020 A 
ATOM     12  C   UNL     1       7.650   6.394  -6.060  0.00  0.00    +0.008 A 
ENDBRANCH   3   7
TORSDOF 1
ENDMDL
