MODEL 1
REMARK VINA RESULT:    -4.639      0.000      0.000
REMARK INTER + INTRA:          -5.125
REMARK INTER:                  -4.910
REMARK INTRA:                  -0.215
REMARK UNBOUND:                -0.215
REMARK  Name = Nicotine.pdb
REMARK  2 active torsions:
REMARK  status: ('A' for Active; 'I' for Inactive)
REMARK    1  A    between atoms: C_3  and  C_6
REMARK    2  A    between atoms: N_4  and  C_12
REMARK                            x       y       z     vdW  Elec       q    Type
REMARK                         _______ _______ _______ _____ _____    ______ ____
ROOT
ATOM      1  C   UNL     1       3.064   4.627   5.270  0.00  0.00    +0.017 C 
ATOM      2  C   UNL     1       2.670   3.481   4.301  0.00  0.00    +0.025 C 
ATOM      3  C   UNL     1       1.741   4.186   3.290  0.00  0.00    +0.088 C 
ATOM      4  N   UNL     1       1.216   5.396   3.948  0.00  0.00    -0.298 NA
ATOM      5  C   UNL     1       1.756   5.455   5.323  0.00  0.00    +0.085 C 
ATOM      6  C   UNL     1       1.568   6.604   3.191  0.00  0.00    +0.105 C 
ENDROOT
BRANCH   3   7
ATOM      7  C   UNL     1       0.604   3.272   2.913  0.00  0.00    -0.012 A 
ATOM      8  C   UNL     1       0.170   2.298   3.793  0.00  0.00    +0.115 A 
ATOM      9  N   UNL     1      -0.824   1.493   3.471  0.00  0.00    -0.263 NA
ATOM     10  C   UNL     1      -1.440   1.582   2.309  0.00  0.00    +0.111 A 
ATOM     11  C   UNL     1      -1.061   2.532   1.378  0.00  0.00    +0.020 A 
ATOM     12  C   UNL     1      -0.023   3.399   1.683  0.00  0.00    +0.008 A 
ENDBRANCH   3   7
TORSDOF 1
ENDMDL
MODEL 2
REMARK VINA RESULT:    -4.634      1.331      4.487
REMARK INTER + INTRA:          -5.119
REMARK INTER:                  -4.900
REMARK INTRA:                  -0.219
REMARK UNBOUND:                -0.215
REMARK  Name = Nicotine.pdb
REMARK  2 active torsions:
REMARK  status: ('A' for Active; 'I' for Inactive)
REMARK    1  A    between atoms: C_3  and  C_6
REMARK    2  A    between atoms: N_4  and  C_12
REMARK                            x       y       z     vdW  Elec       q    Type
REMARK                         _______ _______ _______ _____ _____    ______ ____
ROOT
ATOM      1  C   UNL     1      -1.340   2.127   1.711  0.00  0.00    +0.017 C 
ATOM      2  C   UNL     1      -0.259   3.236   1.616  0.00  0.00    +0.025 C 
ATOM      3  C   UNL     1       0.457   3.140   2.980  0.00  0.00    +0.088 C 
ATOM      4  N   UNL     1      -0.476   2.491   3.919  0.00  0.00    -0.298 NA
ATOM      5  C   UNL     1      -1.739   2.206   3.205  0.00  0.00    +0.085 C 
ATOM      6  C   UNL     1       0.104   1.262   4.474  0.00  0.00    +0.105 C 
ENDROOT
BRANCH   3   7
ATOM      7  C   UNL     1       0.806   4.520   3.474  0.00  0.00    -0.012 A 
ATOM      8  C   UNL     1       0.537   4.884   4.780  0.00  0.00    +0.115 A 
ATOM      9  N   UNL     1       0.839   6.090   5.220  0.00  0.00    -0.263 NA
ATOM     10  C   UNL     1       1.405   6.990   4.441  0.00  0.00    +0.111 A 
ATOM     11  C   UNL     1       1.705   6.698   3.124  0.00  0.00    +0.020 A 
ATOM     12  C   UNL     1       1.406   5.439   2.627  0.00  0.00    +0.008 A 
ENDBRANCH   3   7
TORSDOF 1
ENDMDL
MODEL 3
REMARK VINA RESULT:    -4.465      8.832     10.549
REMARK INTER + INTRA:          -4.941
REMARK INTER:                  -4.737
REMARK INTRA:                  -0.204
REMARK UNBOUND:                -0.215
REMARK  Name = Nicotine.pdb
REMARK  2 active torsions:
REMARK  status: ('A' for Active; 'I' for Inactive)
REMARK    1  A    between atoms: C_3  and  C_6
REMARK    2  A    between atoms: N_4  and  C_12
REMARK                            x       y       z     vdW  Elec       q    Type
REMARK                         _______ _______ _______ _____ _____    ______ ____
ROOT
ATOM      1  C   UNL     1       2.598  -5.615  -3.548  0.00  0.00    +0.017 C 
ATOM      2  C   UNL     1       3.950  -4.874  -3.378  0.00  0.00    +0.025 C 
ATOM      3  C   UNL     1       4.092  -4.756  -1.846  0.00  0.00    +0.088 C 
ATOM      4  N   UNL     1       2.739  -4.870  -1.272  0.00  0.00    -0.298 NA
ATOM      5  C   UNL     1       1.770  -5.027  -2.378  0.00  0.00    +0.085 C 
ATOM      6  C   UNL     1       2.657  -5.999  -0.336  0.00  0.00    +0.105 C 
ENDROOT
BRANCH   3   7
ATOM      7  C   UNL     1       4.691  -3.421  -1.487  0.00  0.00    -0.012 A 
ATOM      8  C   UNL     1       5.957  -3.348  -0.937  0.00  0.00    +0.115 A 
ATOM      9  N   UNL     1       6.489  -2.184  -0.621  0.00  0.00    -0.263 NA
ATOM     10  C   UNL     1       5.842  -1.051  -0.813  0.00  0.00    +0.111 A 
ATOM     11  C   UNL     1       4.572  -1.045  -1.359  0.00  0.00    +0.020 A 
ATOM     12  C   UNL     1       3.983  -2.250  -1.709  0.00  0.00    +0.008 A 
ENDBRANCH   3   7
TORSDOF 1
ENDMDL
MODEL 4
REMARK VINA RESULT:    -4.423      1.446      2.296
REMARK INTER + INTRA:          -4.896
REMARK INTER:                  -4.681
REMARK INTRA:                  -0.215
REMARK UNBOUND:                -0.215
REMARK  Name = Nicotine.pdb
REMARK  2 active torsions:
REMARK  status: ('A' for Active; 'I' for Inactive)
REMARK    1  A    between atoms: C_3  and  C_6
REMARK    2  A    between atoms: N_4  and  C_12
REMARK                            x       y       z     vdW  Elec       q    Type
REMARK                         _______ _______ _______ _____ _____    ______ ____
ROOT
ATOM      1  C   UNL     1       2.042   4.418   2.044  0.00  0.00    +0.017 C 
ATOM      2  C   UNL     1       0.606   3.888   1.789  0.00  0.00    +0.025 C 
ATOM      3  C   UNL     1      -0.128   4.228   3.103  0.00  0.00    +0.088 C 
ATOM      4  N   UNL     1       0.898   4.373   4.151  0.00  0.00    -0.298 NA
ATOM      5  C   UNL     1       2.224   4.114   3.552  0.00  0.00    +0.085 C 
ATOM      6  C   UNL     1       0.846   5.709   4.758  0.00  0.00    +0.105 C 
ENDROOT
BRANCH   3   7
ATOM      7  C   UNL     1      -1.078   3.115   3.463  0.00  0.00    -0.012 A 
ATOM      8  C   UNL     1      -1.384   2.858   4.786  0.00  0.00    +0.115 A 
ATOM      9  N   UNL     1      -2.214   1.886   5.110  0.00  0.00    -0.263 NA
ATOM     10  C   UNL     1      -2.781   1.125   4.194  0.00  0.00    +0.111 A 
ATOM     11  C   UNL     1      -2.522   1.323   2.851  0.00  0.00    +0.020 A 
ATOM     12  C   UNL     1      -1.659   2.339   2.472  0.00  0.00    +0.008 A 
ENDBRANCH   3   7
TORSDOF 1
ENDMDL
MODEL 5
REMARK VINA RESULT:    -4.379      8.446      9.359
REMARK INTER + INTRA:          -4.849
REMARK INTER:                  -4.615
REMARK INTRA:                  -0.234
REMARK UNBOUND:                -0.215
REMARK  Name = Nicotine.pdb
REMARK  2 active torsions:
REMARK  status: ('A' for Active; 'I' for Inactive)
REMARK    1  A    between atoms: C_3  and  C_6
REMARK    2  A    between atoms: N_4  and  C_12
REMARK                            x       y       z     vdW  Elec       q    Type
REMARK                         _______ _______ _______ _____ _____    ______ ____
ROOT
ATOM      1  C   UNL     1       5.466  -0.684  -0.919  0.00  0.00    +0.017 C 
ATOM      2  C   UNL     1       4.214  -1.287  -1.608  0.00  0.00    +0.025 C 
ATOM      3  C   UNL     1       3.923  -2.544  -0.761  0.00  0.00    +0.088 C 
ATOM      4  N   UNL     1       5.178  -2.913  -0.082  0.00  0.00    -0.298 NA
ATOM      5  C   UNL     1       6.232  -1.960  -0.490  0.00  0.00    +0.085 C 
ATOM      6  C   UNL     1       5.007  -2.918   1.376  0.00  0.00    +0.105 C 
ENDROOT
BRANCH   3   7
ATOM      7  C   UNL     1       3.471  -3.670  -1.654  0.00  0.00    -0.012 A 
ATOM      8  C   UNL     1       2.329  -4.388  -1.351  0.00  0.00    +0.115 A 
ATOM      9  N   UNL     1       1.927  -5.375  -2.127  0.00  0.00    -0.263 NA
ATOM     10  C   UNL     1       2.590  -5.716  -3.214  0.00  0.00    +0.111 A 
ATOM     11  C   UNL     1       3.740  -5.044  -3.582  0.00  0.00    +0.020 A 
ATOM     12  C   UNL     1       4.191  -3.997  -2.793  0.00  0.00    +0.008 A 
ENDBRANCH   3   7
TORSDOF 1
ENDMDL
MODEL 6
REMARK VINA RESULT:    -4.159      8.996      9.971
REMARK INTER + INTRA:          -4.616
REMARK INTER:                  -4.439
REMARK INTRA:                  -0.178
REMARK UNBOUND:                -0.215
REMARK  Name = Nicotine.pdb
REMARK  2 active torsions:
REMARK  status: ('A' for Active; 'I' for Inactive)
REMARK    1  A    between atoms: C_3  and  C_6
REMARK    2  A    between atoms: N_4  and  C_12
REMARK                            x       y       z     vdW  Elec       q    Type
REMARK                         _______ _______ _______ _____ _____    ______ ____
ROOT
ATOM      1  C   UNL     1       5.440  -3.820   0.234  0.00  0.00    +0.017 C 
ATOM      2  C   UNL     1       5.080  -4.779  -0.932  0.00  0.00    +0.025 C 
ATOM      3  C   UNL     1       4.250  -3.882  -1.875  0.00  0.00    +0.088 C 
ATOM      4  N   UNL     1       3.718  -2.771  -1.065  0.00  0.00    -0.298 NA
ATOM      5  C   UNL     1       4.159  -2.955   0.334  0.00  0.00    +0.085 C 
ATOM      6  C   UNL     1       4.163  -1.474  -1.592  0.00  0.00    +0.105 C 
ENDROOT
BRANCH   3   7
ATOM      7  C   UNL     1       3.115  -4.674  -2.469  0.00  0.00    -0.012 A 
ATOM      8  C   UNL     1       1.893  -4.736  -1.825  0.00  0.00    +0.115 A 
ATOM      9  N   UNL     1       0.894  -5.427  -2.339  0.00  0.00    -0.263 NA
ATOM     10  C   UNL     1       1.017  -6.083  -3.476  0.00  0.00    +0.111 A 
ATOM     11  C   UNL     1       2.209  -6.067  -4.177  0.00  0.00    +0.020 A 
ATOM     12  C   UNL     1       3.280  -5.346  -3.671  0.00  0.00    +0.008 A 
ENDBRANCH   3   7
TORSDOF 1
ENDMDL
MODEL 7
REMARK VINA RESULT:    -4.091      7.098      8.622
REMARK INTER + INTRA:          -4.545
REMARK INTER:                  -4.343
REMARK INTRA:                  -0.202
REMARK UNBOUND:                -0.215
REMARK  Name = Nicotine.pdb
REMARK  2 active torsions:
REMARK  status: ('A' for Active; 'I' for Inactive)
REMARK    1  A    between atoms: C_3  and  C_6
REMARK    2  A    between atoms: N_4  and  C_12
REMARK                            x       y       z     vdW  Elec       q    Type
REMARK                         _______ _______ _______ _____ _____    ______ ____
ROOT
ATOM      1  C   UNL     1       3.580  -2.821  -1.102  0.00  0.00    +0.017 C 
ATOM      2  C   UNL     1       4.219  -1.485  -1.566  0.00  0.00    +0.025 C 
ATOM      3  C   UNL     1       5.562  -1.461  -0.805  0.00  0.00    +0.088 C 
ATOM      4  N   UNL     1       5.418  -2.346   0.365  0.00  0.00    -0.298 NA
ATOM      5  C   UNL     1       4.045  -2.894   0.374  0.00  0.00    +0.085 C 
ATOM      6  C   UNL     1       6.415  -3.424   0.335  0.00  0.00    +0.105 C 
ENDROOT
BRANCH   3   7
ATOM      7  C   UNL     1       5.869  -0.057  -0.351  0.00  0.00    -0.012 A 
ATOM      8  C   UNL     1       6.405   0.861  -1.234  0.00  0.00    +0.115 A 
ATOM      9  N   UNL     1       6.676   2.092  -0.846  0.00  0.00    -0.263 NA
ATOM     10  C   UNL     1       6.450   2.495   0.389  0.00  0.00    +0.111 A 
ATOM     11  C   UNL     1       5.915   1.632   1.328  0.00  0.00    +0.020 A 
ATOM     12  C   UNL     1       5.612   0.332   0.954  0.00  0.00    +0.008 A 
ENDBRANCH   3   7
TORSDOF 1
ENDMDL
MODEL 8
REMARK VINA RESULT:    -3.952      6.792      7.242
REMARK INTER + INTRA:          -4.397
REMARK INTER:                  -4.183
REMARK INTRA:                  -0.214
REMARK UNBOUND:                -0.215
REMARK  Name = Nicotine.pdb
REMARK  2 active torsions:
REMARK  status: ('A' for Active; 'I' for Inactive)
REMARK    1  A    between atoms: C_3  and  C_6
REMARK    2  A    between atoms: N_4  and  C_12
REMARK                            x       y       z     vdW  Elec       q    Type
REMARK                         _______ _______ _______ _____ _____    ______ ____
ROOT
ATOM      1  C   UNL     1       6.359   2.398   1.425  0.00  0.00    +0.017 C 
ATOM      2  C   UNL     1       5.800   0.975   1.693  0.00  0.00    +0.025 C 
ATOM      3  C   UNL     1       6.430   0.136   0.560  0.00  0.00    +0.088 C 
ATOM      4  N   UNL     1       6.793   1.067  -0.523  0.00  0.00    -0.298 NA
ATOM      5  C   UNL     1       6.395   2.434  -0.123  0.00  0.00    +0.085 C 
ATOM      6  C   UNL     1       8.231   1.002  -0.815  0.00  0.00    +0.105 C 
ENDROOT
BRANCH   3   7
ATOM      7  C   UNL     1       5.433  -0.875   0.057  0.00  0.00    -0.012 A 
ATOM      8  C   UNL     1       4.984  -1.886   0.885  0.00  0.00    +0.115 A 
ATOM      9  N   UNL     1       4.112  -2.776   0.452  0.00  0.00    -0.263 NA
ATOM     10  C   UNL     1       3.636  -2.738  -0.777  0.00  0.00    +0.111 A 
ATOM     11  C   UNL     1       4.038  -1.755  -1.662  0.00  0.00    +0.020 A 
ATOM     12  C   UNL     1       4.950  -0.800  -1.241  0.00  0.00    +0.008 A 
ENDBRANCH   3   7
TORSDOF 1
ENDMDL
MODEL 9
REMARK VINA RESULT:    -3.936      2.241      3.619
REMARK INTER + INTRA:          -4.381
REMARK INTER:                  -4.175
REMARK INTRA:                  -0.206
REMARK UNBOUND:                -0.215
REMARK  Name = Nicotine.pdb
REMARK  2 active torsions:
REMARK  status: ('A' for Active; 'I' for Inactive)
REMARK    1  A    between atoms: C_3  and  C_6
REMARK    2  A    between atoms: N_4  and  C_12
REMARK                            x       y       z     vdW  Elec       q    Type
REMARK                         _______ _______ _______ _____ _____    ______ ____
ROOT
ATOM      1  C   UNL     1       0.132   3.597   1.402  0.00  0.00    +0.017 C 
ATOM      2  C   UNL     1      -0.867   2.486   1.819  0.00  0.00    +0.025 C 
ATOM      3  C   UNL     1      -1.275   2.904   3.247  0.00  0.00    +0.088 C 
ATOM      4  N   UNL     1      -0.206   3.774   3.770  0.00  0.00    -0.298 NA
ATOM      5  C   UNL     1       0.851   3.891   2.742  0.00  0.00    +0.085 C 
ATOM      6  C   UNL     1      -0.733   5.095   4.136  0.00  0.00    +0.105 C 
ENDROOT
BRANCH   3   7
ATOM      7  C   UNL     1      -1.416   1.683   4.119  0.00  0.00    -0.012 A 
ATOM      8  C   UNL     1      -2.651   1.326   4.627  0.00  0.00    +0.115 A 
ATOM      9  N   UNL     1      -2.783   0.259   5.391  0.00  0.00    -0.263 NA
ATOM     10  C   UNL     1      -1.753  -0.505   5.698  0.00  0.00    +0.111 A 
ATOM     11  C   UNL     1      -0.488  -0.211   5.225  0.00  0.00    +0.020 A 
ATOM     12  C   UNL     1      -0.311   0.900   4.416  0.00  0.00    +0.008 A 
ENDBRANCH   3   7
TORSDOF 1
ENDMDL
MODEL 10
REMARK VINA RESULT:    -3.698      8.489      9.999
REMARK INTER + INTRA:          -4.129
REMARK INTER:                  -3.957
REMARK INTRA:                  -0.172
REMARK UNBOUND:                -0.215
REMARK  Name = Nicotine.pdb
REMARK  2 active torsions:
REMARK  status: ('A' for Active; 'I' for Inactive)
REMARK    1  A    between atoms: C_3  and  C_6
REMARK    2  A    between atoms: N_4  and  C_12
REMARK                            x       y       z     vdW  Elec       q    Type
REMARK                         _______ _______ _______ _____ _____    ______ ____
ROOT
ATOM      1  C   UNL     1       2.771  -5.077  -0.613  0.00  0.00    +0.017 C 
ATOM      2  C   UNL     1       3.033  -3.562  -0.403  0.00  0.00    +0.025 C 
ATOM      3  C   UNL     1       3.947  -3.200  -1.593  0.00  0.00    +0.088 C 
ATOM      4  N   UNL     1       4.588  -4.447  -2.047  0.00  0.00    -0.298 NA
ATOM      5  C   UNL     1       4.132  -5.554  -1.179  0.00  0.00    +0.085 C 
ATOM      6  C   UNL     1       4.274  -4.718  -3.456  0.00  0.00    +0.105 C 
ENDROOT
BRANCH   3   7
ATOM      7  C   UNL     1       4.997  -2.214  -1.151  0.00  0.00    -0.012 A 
ATOM      8  C   UNL     1       6.168  -2.656  -0.563  0.00  0.00    +0.115 A 
ATOM      9  N   UNL     1       7.092  -1.799  -0.173  0.00  0.00    -0.263 NA
ATOM     10  C   UNL     1       6.940  -0.499  -0.326  0.00  0.00    +0.111 A 
ATOM     11  C   UNL     1       5.796   0.017  -0.905  0.00  0.00    +0.020 A 
ATOM     12  C   UNL     1       4.805  -0.853  -1.332  0.00  0.00    +0.008 A 
ENDBRANCH   3   7
TORSDOF 1
ENDMDL
