MODEL 1
REMARK VINA RESULT:    -3.371      0.000      0.000
REMARK INTER + INTRA:          -3.781
REMARK INTER:                  -3.568
REMARK INTRA:                  -0.213
REMARK UNBOUND:                -0.213
REMARK  Name = Nicotine.pdb
REMARK  2 active torsions:
REMARK  status: ('A' for Active; 'I' for Inactive)
REMARK    1  A    between atoms: C_3  and  C_6
REMARK    2  A    between atoms: N_4  and  C_12
REMARK                            x       y       z     vdW  Elec       q    Type
REMARK                         _______ _______ _______ _____ _____    ______ ____
ROOT
ATOM      1  C   UNL     1      -2.936  -2.813  -1.629  0.00  0.00    +0.017 C 
ATOM      2  C   UNL     1      -2.833  -2.618  -3.165  0.00  0.00    +0.025 C 
ATOM      3  C   UNL     1      -3.258  -3.995  -3.719  0.00  0.00    +0.088 C 
ATOM      4  N   UNL     1      -3.042  -4.983  -2.646  0.00  0.00    -0.298 NA
ATOM      5  C   UNL     1      -2.481  -4.285  -1.469  0.00  0.00    +0.085 C 
ATOM      6  C   UNL     1      -4.292  -5.672  -2.304  0.00  0.00    +0.105 C 
ENDROOT
BRANCH   3   7
ATOM      7  C   UNL     1      -2.417  -4.346  -4.919  0.00  0.00    -0.012 A 
ATOM      8  C   UNL     1      -1.095  -3.949  -4.987  0.00  0.00    +0.115 A 
ATOM      9  N   UNL     1      -0.353  -4.253  -6.033  0.00  0.00    -0.263 NA
ATOM     10  C   UNL     1      -0.835  -4.941  -7.049  0.00  0.00    +0.111 A 
ATOM     11  C   UNL     1      -2.148  -5.372  -7.052  0.00  0.00    +0.020 A 
ATOM     12  C   UNL     1      -2.958  -5.077  -5.966  0.00  0.00    +0.008 A 
ENDBRANCH   3   7
TORSDOF 1
ENDMDL
MODEL 2
REMARK VINA RESULT:    -3.080      1.148      1.584
REMARK INTER + INTRA:          -3.473
REMARK INTER:                  -3.267
REMARK INTRA:                  -0.206
REMARK UNBOUND:                -0.213
REMARK  Name = Nicotine.pdb
REMARK  2 active torsions:
REMARK  status: ('A' for Active; 'I' for Inactive)
REMARK    1  A    between atoms: C_3  and  C_6
REMARK    2  A    between atoms: N_4  and  C_12
REMARK                            x       y       z     vdW  Elec       q    Type
REMARK                         _______ _______ _______ _____ _____    ______ ____
ROOT
ATOM      1  C   UNL     1      -3.449  -4.064  -1.119  0.00  0.00    +0.017 C 
ATOM      2  C   UNL     1      -2.236  -3.826  -2.056  0.00  0.00    +0.025 C 
ATOM      3  C   UNL     1      -2.881  -3.185  -3.303  0.00  0.00    +0.088 C 
ATOM      4  N   UNL     1      -4.304  -3.569  -3.304  0.00  0.00    -0.298 NA
ATOM      5  C   UNL     1      -4.560  -4.434  -2.133  0.00  0.00    +0.085 C 
ATOM      6  C   UNL     1      -5.170  -2.383  -3.282  0.00  0.00    +0.105 C 
ENDROOT
BRANCH   3   7
ATOM      7  C   UNL     1      -2.209  -3.700  -4.549  0.00  0.00    -0.012 A 
ATOM      8  C   UNL     1      -0.832  -3.668  -4.665  0.00  0.00    +0.115 A 
ATOM      9  N   UNL     1      -0.236  -4.117  -5.752  0.00  0.00    -0.263 NA
ATOM     10  C   UNL     1      -0.921  -4.609  -6.765  0.00  0.00    +0.111 A 
ATOM     11  C   UNL     1      -2.301  -4.674  -6.722  0.00  0.00    +0.020 A 
ATOM     12  C   UNL     1      -2.963  -4.216  -5.592  0.00  0.00    +0.008 A 
ENDBRANCH   3   7
TORSDOF 1
ENDMDL
MODEL 3
REMARK VINA RESULT:    -2.908      1.956      2.520
REMARK INTER + INTRA:          -3.291
REMARK INTER:                  -3.086
REMARK INTRA:                  -0.205
REMARK UNBOUND:                -0.213
REMARK  Name = Nicotine.pdb
REMARK  2 active torsions:
REMARK  status: ('A' for Active; 'I' for Inactive)
REMARK    1  A    between atoms: C_3  and  C_6
REMARK    2  A    between atoms: N_4  and  C_12
REMARK                            x       y       z     vdW  Elec       q    Type
REMARK                         _______ _______ _______ _____ _____    ______ ____
ROOT
ATOM      1  C   UNL     1      -3.716   0.241  -4.240  0.00  0.00    +0.017 C 
ATOM      2  C   UNL     1      -3.589  -0.763  -5.416  0.00  0.00    +0.025 C 
ATOM      3  C   UNL     1      -3.510  -2.128  -4.700  0.00  0.00    +0.088 C 
ATOM      4  N   UNL     1      -3.050  -1.874  -3.323  0.00  0.00    -0.298 NA
ATOM      5  C   UNL     1      -2.819  -0.422  -3.164  0.00  0.00    +0.085 C 
ATOM      6  C   UNL     1      -4.029  -2.361  -2.342  0.00  0.00    +0.105 C 
ENDROOT
BRANCH   3   7
ATOM      7  C   UNL     1      -2.530  -3.024  -5.411  0.00  0.00    -0.012 A 
ATOM      8  C   UNL     1      -1.295  -3.294  -4.851  0.00  0.00    +0.115 A 
ATOM      9  N   UNL     1      -0.431  -4.078  -5.467  0.00  0.00    -0.263 NA
ATOM     10  C   UNL     1      -0.706  -4.631  -6.632  0.00  0.00    +0.111 A 
ATOM     11  C   UNL     1      -1.920  -4.407  -7.253  0.00  0.00    +0.020 A 
ATOM     12  C   UNL     1      -2.856  -3.593  -6.633  0.00  0.00    +0.008 A 
ENDBRANCH   3   7
TORSDOF 1
ENDMDL
MODEL 4
REMARK VINA RESULT:    -2.600      1.547      4.460
REMARK INTER + INTRA:          -2.965
REMARK INTER:                  -2.759
REMARK INTRA:                  -0.207
REMARK UNBOUND:                -0.213
REMARK  Name = Nicotine.pdb
REMARK  2 active torsions:
REMARK  status: ('A' for Active; 'I' for Inactive)
REMARK    1  A    between atoms: C_3  and  C_6
REMARK    2  A    between atoms: N_4  and  C_12
REMARK                            x       y       z     vdW  Elec       q    Type
REMARK                         _______ _______ _______ _____ _____    ______ ____
ROOT
ATOM      1  C   UNL     1      -2.610  -1.652  -5.799  0.00  0.00    +0.017 C 
ATOM      2  C   UNL     1      -2.490  -1.825  -4.261  0.00  0.00    +0.025 C 
ATOM      3  C   UNL     1      -1.876  -3.233  -4.117  0.00  0.00    +0.088 C 
ATOM      4  N   UNL     1      -2.176  -3.970  -5.358  0.00  0.00    -0.298 NA
ATOM      5  C   UNL     1      -2.965  -3.091  -6.248  0.00  0.00    +0.085 C 
ATOM      6  C   UNL     1      -0.942  -4.416  -6.018  0.00  0.00    +0.105 C 
ENDROOT
BRANCH   3   7
ATOM      7  C   UNL     1      -2.491  -3.942  -2.938  0.00  0.00    -0.012 A 
ATOM      8  C   UNL     1      -3.373  -4.988  -3.133  0.00  0.00    +0.115 A 
ATOM      9  N   UNL     1      -3.916  -5.614  -2.107  0.00  0.00    -0.263 NA
ATOM     10  C   UNL     1      -3.643  -5.271  -0.864  0.00  0.00    +0.111 A 
ATOM     11  C   UNL     1      -2.769  -4.235  -0.590  0.00  0.00    +0.020 A 
ATOM     12  C   UNL     1      -2.175  -3.558  -1.644  0.00  0.00    +0.008 A 
ENDBRANCH   3   7
TORSDOF 1
ENDMDL
MODEL 5
REMARK VINA RESULT:    -2.430     10.484     11.631
REMARK INTER + INTRA:          -2.785
REMARK INTER:                  -2.571
REMARK INTRA:                  -0.214
REMARK UNBOUND:                -0.213
REMARK  Name = Nicotine.pdb
REMARK  2 active torsions:
REMARK  status: ('A' for Active; 'I' for Inactive)
REMARK    1  A    between atoms: C_3  and  C_6
REMARK    2  A    between atoms: N_4  and  C_12
REMARK                            x       y       z     vdW  Elec       q    Type
REMARK                         _______ _______ _______ _____ _____    ______ ____
ROOT
ATOM      1  C   UNL     1       8.406   3.928  -2.327  0.00  0.00    +0.017 C 
ATOM      2  C   UNL     1       7.819   3.686  -3.743  0.00  0.00    +0.025 C 
ATOM      3  C   UNL     1       6.992   2.396  -3.560  0.00  0.00    +0.088 C 
ATOM      4  N   UNL     1       7.531   1.695  -2.380  0.00  0.00    -0.298 NA
ATOM      5  C   UNL     1       8.664   2.479  -1.844  0.00  0.00    +0.085 C 
ATOM      6  C   UNL     1       6.492   1.505  -1.360  0.00  0.00    +0.105 C 
ENDROOT
BRANCH   3   7
ATOM      7  C   UNL     1       7.126   1.523  -4.781  0.00  0.00    -0.012 A 
ATOM      8  C   UNL     1       8.287   1.544  -5.531  0.00  0.00    +0.115 A 
ATOM      9  N   UNL     1       8.412   0.784  -6.601  0.00  0.00    -0.263 NA
ATOM     10  C   UNL     1       7.445  -0.020  -6.998  0.00  0.00    +0.111 A 
ATOM     11  C   UNL     1       6.256  -0.094  -6.298  0.00  0.00    +0.020 A 
ATOM     12  C   UNL     1       6.089   0.686  -5.164  0.00  0.00    +0.008 A 
ENDBRANCH   3   7
TORSDOF 1
ENDMDL
MODEL 6
REMARK VINA RESULT:    -2.385      9.823     11.372
REMARK INTER + INTRA:          -2.738
REMARK INTER:                  -2.537
REMARK INTRA:                  -0.201
REMARK UNBOUND:                -0.213
REMARK  Name = Nicotine.pdb
REMARK  2 active torsions:
REMARK  status: ('A' for Active; 'I' for Inactive)
REMARK    1  A    between atoms: C_3  and  C_6
REMARK    2  A    between atoms: N_4  and  C_12
REMARK                            x       y       z     vdW  Elec       q    Type
REMARK                         _______ _______ _______ _____ _____    ______ ____
ROOT
ATOM      1  C   UNL     1       6.476   0.593  -5.328  0.00  0.00    +0.017 C 
ATOM      2  C   UNL     1       5.485   0.512  -4.138  0.00  0.00    +0.025 C 
ATOM      3  C   UNL     1       5.307   1.991  -3.733  0.00  0.00    +0.088 C 
ATOM      4  N   UNL     1       6.486   2.724  -4.227  0.00  0.00    -0.298 NA
ATOM      5  C   UNL     1       7.392   1.765  -4.893  0.00  0.00    +0.085 C 
ATOM      6  C   UNL     1       6.091   3.800  -5.145  0.00  0.00    +0.105 C 
ENDROOT
BRANCH   3   7
ATOM      7  C   UNL     1       5.222   2.105  -2.233  0.00  0.00    -0.012 A 
ATOM      8  C   UNL     1       6.115   1.423  -1.428  0.00  0.00    +0.115 A 
ATOM      9  N   UNL     1       6.048   1.517  -0.114  0.00  0.00    -0.263 NA
ATOM     10  C   UNL     1       5.135   2.259   0.481  0.00  0.00    +0.111 A 
ATOM     11  C   UNL     1       4.209   2.971  -0.258  0.00  0.00    +0.020 A 
ATOM     12  C   UNL     1       4.252   2.900  -1.642  0.00  0.00    +0.008 A 
ENDBRANCH   3   7
TORSDOF 1
ENDMDL
MODEL 7
REMARK VINA RESULT:    -2.293      2.935      3.954
REMARK INTER + INTRA:          -2.639
REMARK INTER:                  -2.441
REMARK INTRA:                  -0.198
REMARK UNBOUND:                -0.213
REMARK  Name = Nicotine.pdb
REMARK  2 active torsions:
REMARK  status: ('A' for Active; 'I' for Inactive)
REMARK    1  A    between atoms: C_3  and  C_6
REMARK    2  A    between atoms: N_4  and  C_12
REMARK                            x       y       z     vdW  Elec       q    Type
REMARK                         _______ _______ _______ _____ _____    ______ ____
ROOT
ATOM      1  C   UNL     1      -3.581   1.862  -3.687  0.00  0.00    +0.017 C 
ATOM      2  C   UNL     1      -3.769   0.618  -4.595  0.00  0.00    +0.025 C 
ATOM      3  C   UNL     1      -3.613  -0.559  -3.608  0.00  0.00    +0.088 C 
ATOM      4  N   UNL     1      -2.851  -0.059  -2.450  0.00  0.00    -0.298 NA
ATOM      5  C   UNL     1      -2.509   1.360  -2.687  0.00  0.00    +0.085 C 
ATOM      6  C   UNL     1      -3.617  -0.216  -1.207  0.00  0.00    +0.105 C 
ENDROOT
BRANCH   3   7
ATOM      7  C   UNL     1      -2.863  -1.686  -4.269  0.00  0.00    -0.012 A 
ATOM      8  C   UNL     1      -2.499  -1.598  -5.600  0.00  0.00    +0.115 A 
ATOM      9  N   UNL     1      -1.842  -2.580  -6.186  0.00  0.00    -0.263 NA
ATOM     10  C   UNL     1      -1.509  -3.677  -5.535  0.00  0.00    +0.111 A 
ATOM     11  C   UNL     1      -1.839  -3.836  -4.202  0.00  0.00    +0.020 A 
ATOM     12  C   UNL     1      -2.524  -2.822  -3.550  0.00  0.00    +0.008 A 
ENDBRANCH   3   7
TORSDOF 1
ENDMDL
MODEL 8
REMARK VINA RESULT:    -2.278      1.633      2.586
REMARK INTER + INTRA:          -2.624
REMARK INTER:                  -2.431
REMARK INTRA:                  -0.193
REMARK UNBOUND:                -0.213
REMARK  Name = Nicotine.pdb
REMARK  2 active torsions:
REMARK  status: ('A' for Active; 'I' for Inactive)
REMARK    1  A    between atoms: C_3  and  C_6
REMARK    2  A    between atoms: N_4  and  C_12
REMARK                            x       y       z     vdW  Elec       q    Type
REMARK                         _______ _______ _______ _____ _____    ______ ____
ROOT
ATOM      1  C   UNL     1      -3.303  -5.072  -0.102  0.00  0.00    +0.017 C 
ATOM      2  C   UNL     1      -2.752  -5.626  -1.442  0.00  0.00    +0.025 C 
ATOM      3  C   UNL     1      -2.738  -4.379  -2.353  0.00  0.00    +0.088 C 
ATOM      4  N   UNL     1      -3.704  -3.418  -1.791  0.00  0.00    -0.298 NA
ATOM      5  C   UNL     1      -4.328  -4.021  -0.595  0.00  0.00    +0.085 C 
ATOM      6  C   UNL     1      -3.048  -2.146  -1.459  0.00  0.00    +0.105 C 
ENDROOT
BRANCH   3   7
ATOM      7  C   UNL     1      -3.148  -4.762  -3.751  0.00  0.00    -0.012 A 
ATOM      8  C   UNL     1      -2.193  -4.956  -4.731  0.00  0.00    +0.115 A 
ATOM      9  N   UNL     1      -2.543  -5.291  -5.958  0.00  0.00    -0.263 NA
ATOM     10  C   UNL     1      -3.806  -5.453  -6.298  0.00  0.00    +0.111 A 
ATOM     11  C   UNL     1      -4.817  -5.277  -5.371  0.00  0.00    +0.020 A 
ATOM     12  C   UNL     1      -4.487  -4.930  -4.070  0.00  0.00    +0.008 A 
ENDBRANCH   3   7
TORSDOF 1
ENDMDL
MODEL 9
REMARK VINA RESULT:    -2.220      3.539      5.697
REMARK INTER + INTRA:          -2.563
REMARK INTER:                  -2.319
REMARK INTRA:                  -0.243
REMARK UNBOUND:                -0.213
REMARK  Name = Nicotine.pdb
REMARK  2 active torsions:
REMARK  status: ('A' for Active; 'I' for Inactive)
REMARK    1  A    between atoms: C_3  and  C_6
REMARK    2  A    between atoms: N_4  and  C_12
REMARK                            x       y       z     vdW  Elec       q    Type
REMARK                         _______ _______ _______ _____ _____    ______ ____
ROOT
ATOM      1  C   UNL     1      -3.753  -5.900  -0.470  0.00  0.00    +0.017 C 
ATOM      2  C   UNL     1      -2.672  -5.754   0.633  0.00  0.00    +0.025 C 
ATOM      3  C   UNL     1      -1.915  -4.476   0.210  0.00  0.00    +0.088 C 
ATOM      4  N   UNL     1      -2.150  -4.287  -1.233  0.00  0.00    -0.298 NA
ATOM      5  C   UNL     1      -2.992  -5.399  -1.723  0.00  0.00    +0.085 C 
ATOM      6  C   UNL     1      -2.783  -2.989  -1.498  0.00  0.00    +0.105 C 
ENDROOT
BRANCH   3   7
ATOM      7  C   UNL     1      -0.441  -4.643   0.474  0.00  0.00    -0.012 A 
ATOM      8  C   UNL     1       0.436  -3.605   0.219  0.00  0.00    +0.115 A 
ATOM      9  N   UNL     1       1.728  -3.742   0.447  0.00  0.00    -0.263 NA
ATOM     10  C   UNL     1       2.232  -4.864   0.923  0.00  0.00    +0.111 A 
ATOM     11  C   UNL     1       1.417  -5.944   1.202  0.00  0.00    +0.020 A 
ATOM     12  C   UNL     1       0.052  -5.835   0.980  0.00  0.00    +0.008 A 
ENDBRANCH   3   7
TORSDOF 1
ENDMDL
MODEL 10
REMARK VINA RESULT:    -2.127      4.977      6.832
REMARK INTER + INTRA:          -2.464
REMARK INTER:                  -2.213
REMARK INTRA:                  -0.251
REMARK UNBOUND:                -0.213
REMARK  Name = Nicotine.pdb
REMARK  2 active torsions:
REMARK  status: ('A' for Active; 'I' for Inactive)
REMARK    1  A    between atoms: C_3  and  C_6
REMARK    2  A    between atoms: N_4  and  C_12
REMARK                            x       y       z     vdW  Elec       q    Type
REMARK                         _______ _______ _______ _____ _____    ______ ____
ROOT
ATOM      1  C   UNL     1      -1.961  -5.282   0.201  0.00  0.00    +0.017 C 
ATOM      2  C   UNL     1      -0.664  -5.706   0.939  0.00  0.00    +0.025 C 
ATOM      3  C   UNL     1      -0.047  -4.356   1.360  0.00  0.00    +0.088 C 
ATOM      4  N   UNL     1      -0.601  -3.324   0.466  0.00  0.00    -0.298 NA
ATOM      5  C   UNL     1      -1.509  -3.977  -0.501  0.00  0.00    +0.085 C 
ATOM      6  C   UNL     1      -1.304  -2.286   1.230  0.00  0.00    +0.105 C 
ENDROOT
BRANCH   3   7
ATOM      7  C   UNL     1       1.452  -4.410   1.216  0.00  0.00    -0.012 A 
ATOM      8  C   UNL     1       2.240  -3.391   1.717  0.00  0.00    +0.115 A 
ATOM      9  N   UNL     1       3.553  -3.431   1.595  0.00  0.00    -0.263 NA
ATOM     10  C   UNL     1       4.163  -4.434   0.995  0.00  0.00    +0.111 A 
ATOM     11  C   UNL     1       3.441  -5.489   0.469  0.00  0.00    +0.020 A 
ATOM     12  C   UNL     1       2.059  -5.484   0.583  0.00  0.00    +0.008 A 
ENDBRANCH   3   7
TORSDOF 1
ENDMDL
