MODEL 1
REMARK VINA RESULT:     0.000      0.000      0.000
REMARK INTER + INTRA:          -0.256
REMARK INTER:                   0.000
REMARK INTRA:                  -0.256
REMARK UNBOUND:                -0.256
REMARK  Name = Nicotine.pdb
REMARK  2 active torsions:
REMARK  status: ('A' for Active; 'I' for Inactive)
REMARK    1  A    between atoms: C_3  and  C_6
REMARK    2  A    between atoms: N_4  and  C_12
REMARK                            x       y       z     vdW  Elec       q    Type
REMARK                         _______ _______ _______ _____ _____    ______ ____
ROOT
ATOM      1  C   UNL     1       5.291  -1.056  -3.176  0.00  0.00    +0.017 C 
ATOM      2  C   UNL     1       5.937  -0.763  -4.555  0.00  0.00    +0.025 C 
ATOM      3  C   UNL     1       6.674  -2.080  -4.880  0.00  0.00    +0.088 C 
ATOM      4  N   UNL     1       6.906  -2.777  -3.602  0.00  0.00    -0.298 NA
ATOM      5  C   UNL     1       6.371  -1.942  -2.506  0.00  0.00    +0.085 C 
ATOM      6  C   UNL     1       6.281  -4.106  -3.606  0.00  0.00    +0.105 C 
ENDROOT
BRANCH   3   7
ATOM      7  C   UNL     1       7.991  -1.779  -5.548  0.00  0.00    -0.012 A 
ATOM      8  C   UNL     1       8.621  -2.740  -6.316  0.00  0.00    +0.115 A 
ATOM      9  N   UNL     1       9.774  -2.485  -6.904  0.00  0.00    -0.263 NA
ATOM     10  C   UNL     1      10.368  -1.314  -6.785  0.00  0.00    +0.111 A 
ATOM     11  C   UNL     1       9.798  -0.304  -6.033  0.00  0.00    +0.020 A 
ATOM     12  C   UNL     1       8.584  -0.534  -5.404  0.00  0.00    +0.008 A 
ENDBRANCH   3   7
TORSDOF 1
ENDMDL
MODEL 2
REMARK VINA RESULT:     0.000      6.959      8.886
REMARK INTER + INTRA:          -0.256
REMARK INTER:                   0.000
REMARK INTRA:                  -0.256
REMARK UNBOUND:                -0.256
REMARK  Name = Nicotine.pdb
REMARK  2 active torsions:
REMARK  status: ('A' for Active; 'I' for Inactive)
REMARK    1  A    between atoms: C_3  and  C_6
REMARK    2  A    between atoms: N_4  and  C_12
REMARK                            x       y       z     vdW  Elec       q    Type
REMARK                         _______ _______ _______ _____ _____    ______ ____
ROOT
ATOM      1  C   UNL     1       1.969   1.666  -2.379  0.00  0.00    +0.017 C 
ATOM      2  C   UNL     1       1.761   0.343  -1.596  0.00  0.00    +0.025 C 
ATOM      3  C   UNL     1       1.321  -0.646  -2.696  0.00  0.00    +0.088 C 
ATOM      4  N   UNL     1       0.781   0.153  -3.811  0.00  0.00    -0.298 NA
ATOM      5  C   UNL     1       0.843   1.583  -3.440  0.00  0.00    +0.085 C 
ATOM      6  C   UNL     1       1.524  -0.103  -5.051  0.00  0.00    +0.105 C 
ENDROOT
BRANCH   3   7
ATOM      7  C   UNL     1       0.256  -1.568  -2.161  0.00  0.00    -0.012 A 
ATOM      8  C   UNL     1       0.016  -2.785  -2.768  0.00  0.00    +0.115 A 
ATOM      9  N   UNL     1      -0.914  -3.598  -2.306  0.00  0.00    -0.263 NA
ATOM     10  C   UNL     1      -1.647  -3.287  -1.255  0.00  0.00    +0.111 A 
ATOM     11  C   UNL     1      -1.463  -2.086  -0.596  0.00  0.00    +0.020 A 
ATOM     12  C   UNL     1      -0.491  -1.208  -1.050  0.00  0.00    +0.008 A 
ENDBRANCH   3   7
TORSDOF 1
ENDMDL
MODEL 3
REMARK VINA RESULT:     0.000      4.986      7.682
REMARK INTER + INTRA:          -0.256
REMARK INTER:                   0.000
REMARK INTRA:                  -0.256
REMARK UNBOUND:                -0.256
REMARK  Name = Nicotine.pdb
REMARK  2 active torsions:
REMARK  status: ('A' for Active; 'I' for Inactive)
REMARK    1  A    between atoms: C_3  and  C_6
REMARK    2  A    between atoms: N_4  and  C_12
REMARK                            x       y       z     vdW  Elec       q    Type
REMARK                         _______ _______ _______ _____ _____    ______ ____
ROOT
ATOM      1  C   UNL     1       3.914  -2.725  -4.077  0.00  0.00    +0.017 C 
ATOM      2  C   UNL     1       3.485  -1.480  -3.257  0.00  0.00    +0.025 C 
ATOM      3  C   UNL     1       3.189  -2.069  -1.861  0.00  0.00    +0.088 C 
ATOM      4  N   UNL     1       2.910  -3.505  -2.043  0.00  0.00    -0.298 NA
ATOM      5  C   UNL     1       2.994  -3.822  -3.485  0.00  0.00    +0.085 C 
ATOM      6  C   UNL     1       3.847  -4.327  -1.267  0.00  0.00    +0.105 C 
ENDROOT
BRANCH   3   7
ATOM      7  C   UNL     1       1.990  -1.384  -1.260  0.00  0.00    -0.012 A 
ATOM      8  C   UNL     1       1.787  -1.402   0.107  0.00  0.00    +0.115 A 
ATOM      9  N   UNL     1       0.739  -0.805   0.642  0.00  0.00    -0.263 NA
ATOM     10  C   UNL     1      -0.150  -0.172  -0.097  0.00  0.00    +0.111 A 
ATOM     11  C   UNL     1      -0.013  -0.111  -1.472  0.00  0.00    +0.020 A 
ATOM     12  C   UNL     1       1.079  -0.723  -2.069  0.00  0.00    +0.008 A 
ENDBRANCH   3   7
TORSDOF 1
ENDMDL
MODEL 4
REMARK VINA RESULT:     0.000      4.004      5.170
REMARK INTER + INTRA:          -0.256
REMARK INTER:                   0.000
REMARK INTRA:                  -0.256
REMARK UNBOUND:                -0.256
REMARK  Name = Nicotine.pdb
REMARK  2 active torsions:
REMARK  status: ('A' for Active; 'I' for Inactive)
REMARK    1  A    between atoms: C_3  and  C_6
REMARK    2  A    between atoms: N_4  and  C_12
REMARK                            x       y       z     vdW  Elec       q    Type
REMARK                         _______ _______ _______ _____ _____    ______ ____
ROOT
ATOM      1  C   UNL     1       4.715   4.886  -2.178  0.00  0.00    +0.017 C 
ATOM      2  C   UNL     1       5.217   4.190  -3.470  0.00  0.00    +0.025 C 
ATOM      3  C   UNL     1       4.712   2.741  -3.303  0.00  0.00    +0.088 C 
ATOM      4  N   UNL     1       4.492   2.519  -1.863  0.00  0.00    -0.298 NA
ATOM      5  C   UNL     1       4.862   3.751  -1.134  0.00  0.00    +0.085 C 
ATOM      6  C   UNL     1       3.098   2.146  -1.594  0.00  0.00    +0.105 C 
ENDROOT
BRANCH   3   7
ATOM      7  C   UNL     1       5.746   1.775  -3.820  0.00  0.00    -0.012 A 
ATOM      8  C   UNL     1       5.383   0.493  -4.189  0.00  0.00    +0.115 A 
ATOM      9  N   UNL     1       6.281  -0.359  -4.643  0.00  0.00    -0.263 NA
ATOM     10  C   UNL     1       7.552  -0.027  -4.763  0.00  0.00    +0.111 A 
ATOM     11  C   UNL     1       7.989   1.237  -4.415  0.00  0.00    +0.020 A 
ATOM     12  C   UNL     1       7.073   2.161  -3.938  0.00  0.00    +0.008 A 
ENDBRANCH   3   7
TORSDOF 1
ENDMDL
MODEL 5
REMARK VINA RESULT:     0.000      8.361     10.177
REMARK INTER + INTRA:          -0.256
REMARK INTER:                   0.000
REMARK INTRA:                  -0.256
REMARK UNBOUND:                -0.256
REMARK  Name = Nicotine.pdb
REMARK  2 active torsions:
REMARK  status: ('A' for Active; 'I' for Inactive)
REMARK    1  A    between atoms: C_3  and  C_6
REMARK    2  A    between atoms: N_4  and  C_12
REMARK                            x       y       z     vdW  Elec       q    Type
REMARK                         _______ _______ _______ _____ _____    ______ ____
ROOT
ATOM      1  C   UNL     1       5.307   6.798  -0.376  0.00  0.00    +0.017 C 
ATOM      2  C   UNL     1       3.862   6.606   0.155  0.00  0.00    +0.025 C 
ATOM      3  C   UNL     1       3.787   5.087   0.418  0.00  0.00    +0.088 C 
ATOM      4  N   UNL     1       4.824   4.449  -0.413  0.00  0.00    -0.298 NA
ATOM      5  C   UNL     1       5.515   5.498  -1.192  0.00  0.00    +0.085 C 
ATOM      6  C   UNL     1       5.774   3.696   0.416  0.00  0.00    +0.105 C 
ENDROOT
BRANCH   3   7
ATOM      7  C   UNL     1       2.427   4.567   0.033  0.00  0.00    -0.012 A 
ATOM      8  C   UNL     1       1.958   3.379   0.561  0.00  0.00    +0.115 A 
ATOM      9  N   UNL     1       0.768   2.916   0.229  0.00  0.00    -0.263 NA
ATOM     10  C   UNL     1      -0.016   3.560  -0.612  0.00  0.00    +0.111 A 
ATOM     11  C   UNL     1       0.385   4.756  -1.180  0.00  0.00    +0.020 A 
ATOM     12  C   UNL     1       1.627   5.276  -0.850  0.00  0.00    +0.008 A 
ENDBRANCH   3   7
TORSDOF 1
ENDMDL
MODEL 6
REMARK VINA RESULT:     0.000      9.230     11.232
REMARK INTER + INTRA:          -0.256
REMARK INTER:                   0.000
REMARK INTRA:                  -0.256
REMARK UNBOUND:                -0.256
REMARK  Name = Nicotine.pdb
REMARK  2 active torsions:
REMARK  status: ('A' for Active; 'I' for Inactive)
REMARK    1  A    between atoms: C_3  and  C_6
REMARK    2  A    between atoms: N_4  and  C_12
REMARK                            x       y       z     vdW  Elec       q    Type
REMARK                         _______ _______ _______ _____ _____    ______ ____
ROOT
ATOM      1  C   UNL     1      -3.945  -0.205   2.535  0.00  0.00    +0.017 C 
ATOM      2  C   UNL     1      -2.549   0.440   2.324  0.00  0.00    +0.025 C 
ATOM      3  C   UNL     1      -1.878  -0.510   1.310  0.00  0.00    +0.088 C 
ATOM      4  N   UNL     1      -2.564  -1.811   1.409  0.00  0.00    -0.298 NA
ATOM      5  C   UNL     1      -3.608  -1.714   2.452  0.00  0.00    +0.085 C 
ATOM      6  C   UNL     1      -3.145  -2.200   0.117  0.00  0.00    +0.105 C 
ENDROOT
BRANCH   3   7
ATOM      7  C   UNL     1      -0.418  -0.672   1.647  0.00  0.00    -0.012 A 
ATOM      8  C   UNL     1       0.479  -1.092   0.684  0.00  0.00    +0.115 A 
ATOM      9  N   UNL     1       1.759  -1.236   0.971  0.00  0.00    -0.263 NA
ATOM     10  C   UNL     1       2.230  -0.989   2.177  0.00  0.00    +0.111 A 
ATOM     11  C   UNL     1       1.392  -0.565   3.192  0.00  0.00    +0.020 A 
ATOM     12  C   UNL     1       0.042  -0.397   2.926  0.00  0.00    +0.008 A 
ENDBRANCH   3   7
TORSDOF 1
ENDMDL
MODEL 7
REMARK VINA RESULT:     0.000     12.112     13.472
REMARK INTER + INTRA:          -0.256
REMARK INTER:                   0.000
REMARK INTRA:                  -0.256
REMARK UNBOUND:                -0.256
REMARK  Name = Nicotine.pdb
REMARK  2 active torsions:
REMARK  status: ('A' for Active; 'I' for Inactive)
REMARK    1  A    between atoms: C_3  and  C_6
REMARK    2  A    between atoms: N_4  and  C_12
REMARK                            x       y       z     vdW  Elec       q    Type
REMARK                         _______ _______ _______ _____ _____    ______ ____
ROOT
ATOM      1  C   UNL     1      -1.472   5.657   3.359  0.00  0.00    +0.017 C 
ATOM      2  C   UNL     1      -0.422   6.567   4.048  0.00  0.00    +0.025 C 
ATOM      3  C   UNL     1       0.787   6.487   3.093  0.00  0.00    +0.088 C 
ATOM      4  N   UNL     1       0.647   5.243   2.313  0.00  0.00    -0.298 NA
ATOM      5  C   UNL     1      -0.576   4.543   2.761  0.00  0.00    +0.085 C 
ATOM      6  C   UNL     1       0.595   5.527   0.873  0.00  0.00    +0.105 C 
ENDROOT
BRANCH   3   7
ATOM      7  C   UNL     1       2.067   6.453   3.887  0.00  0.00    -0.012 A 
ATOM      8  C   UNL     1       3.264   6.819   3.301  0.00  0.00    +0.115 A 
ATOM      9  N   UNL     1       4.388   6.792   3.989  0.00  0.00    -0.263 NA
ATOM     10  C   UNL     1       4.418   6.420   5.254  0.00  0.00    +0.111 A 
ATOM     11  C   UNL     1       3.261   6.041   5.907  0.00  0.00    +0.020 A 
ATOM     12  C   UNL     1       2.058   6.061   5.217  0.00  0.00    +0.008 A 
ENDBRANCH   3   7
TORSDOF 1
ENDMDL
MODEL 8
REMARK VINA RESULT:     0.000     10.131     12.011
REMARK INTER + INTRA:          -0.256
REMARK INTER:                   0.000
REMARK INTRA:                  -0.256
REMARK UNBOUND:                -0.256
REMARK  Name = Nicotine.pdb
REMARK  2 active torsions:
REMARK  status: ('A' for Active; 'I' for Inactive)
REMARK    1  A    between atoms: C_3  and  C_6
REMARK    2  A    between atoms: N_4  and  C_12
REMARK                            x       y       z     vdW  Elec       q    Type
REMARK                         _______ _______ _______ _____ _____    ______ ____
ROOT
ATOM      1  C   UNL     1       0.054  -1.384   3.546  0.00  0.00    +0.017 C 
ATOM      2  C   UNL     1      -0.122   0.118   3.201  0.00  0.00    +0.025 C 
ATOM      3  C   UNL     1       1.314   0.672   3.318  0.00  0.00    +0.088 C 
ATOM      4  N   UNL     1       2.068  -0.250   4.187  0.00  0.00    -0.298 NA
ATOM      5  C   UNL     1       1.160  -1.329   4.630  0.00  0.00    +0.085 C 
ATOM      6  C   UNL     1       3.236  -0.799   3.486  0.00  0.00    +0.105 C 
ENDROOT
BRANCH   3   7
ATOM      7  C   UNL     1       1.285   2.048   3.931  0.00  0.00    -0.012 A 
ATOM      8  C   UNL     1       2.342   2.919   3.746  0.00  0.00    +0.115 A 
ATOM      9  N   UNL     1       2.324   4.125   4.279  0.00  0.00    -0.263 NA
ATOM     10  C   UNL     1       1.307   4.547   5.004  0.00  0.00    +0.111 A 
ATOM     11  C   UNL     1       0.214   3.732   5.232  0.00  0.00    +0.020 A 
ATOM     12  C   UNL     1       0.195   2.459   4.683  0.00  0.00    +0.008 A 
ENDBRANCH   3   7
TORSDOF 1
ENDMDL
MODEL 9
REMARK VINA RESULT:     0.000      8.764     11.319
REMARK INTER + INTRA:          -0.256
REMARK INTER:                   0.000
REMARK INTRA:                  -0.256
REMARK UNBOUND:                -0.256
REMARK  Name = Nicotine.pdb
REMARK  2 active torsions:
REMARK  status: ('A' for Active; 'I' for Inactive)
REMARK    1  A    between atoms: C_3  and  C_6
REMARK    2  A    between atoms: N_4  and  C_12
REMARK                            x       y       z     vdW  Elec       q    Type
REMARK                         _______ _______ _______ _____ _____    ______ ____
ROOT
ATOM      1  C   UNL     1       1.279   1.830  -5.163  0.00  0.00    +0.017 C 
ATOM      2  C   UNL     1      -0.233   1.803  -4.814  0.00  0.00    +0.025 C 
ATOM      3  C   UNL     1      -0.700   3.226  -5.187  0.00  0.00    +0.088 C 
ATOM      4  N   UNL     1       0.491   4.095  -5.172  0.00  0.00    -0.298 NA
ATOM      5  C   UNL     1       1.663   3.282  -4.783  0.00  0.00    +0.085 C 
ATOM      6  C   UNL     1       0.699   4.727  -6.481  0.00  0.00    +0.105 C 
ENDROOT
BRANCH   3   7
ATOM      7  C   UNL     1      -1.706   3.716  -4.178  0.00  0.00    -0.012 A 
ATOM      8  C   UNL     1      -2.584   4.733  -4.504  0.00  0.00    +0.115 A 
ATOM      9  N   UNL     1      -3.468   5.168  -3.627  0.00  0.00    -0.263 NA
ATOM     10  C   UNL     1      -3.552   4.656  -2.415  0.00  0.00    +0.111 A 
ATOM     11  C   UNL     1      -2.708   3.636  -2.018  0.00  0.00    +0.020 A 
ATOM     12  C   UNL     1      -1.769   3.149  -2.915  0.00  0.00    +0.008 A 
ENDBRANCH   3   7
TORSDOF 1
ENDMDL
MODEL 10
REMARK VINA RESULT:     0.000      9.875     11.152
REMARK INTER + INTRA:          -0.256
REMARK INTER:                   0.000
REMARK INTRA:                  -0.256
REMARK UNBOUND:                -0.256
REMARK  Name = Nicotine.pdb
REMARK  2 active torsions:
REMARK  status: ('A' for Active; 'I' for Inactive)
REMARK    1  A    between atoms: C_3  and  C_6
REMARK    2  A    between atoms: N_4  and  C_12
REMARK                            x       y       z     vdW  Elec       q    Type
REMARK                         _______ _______ _______ _____ _____    ______ ____
ROOT
ATOM      1  C   UNL     1      -1.534  -5.673  -6.190  0.00  0.00    +0.017 C 
ATOM      2  C   UNL     1      -1.027  -5.404  -4.748  0.00  0.00    +0.025 C 
ATOM      3  C   UNL     1      -2.334  -5.303  -3.934  0.00  0.00    +0.088 C 
ATOM      4  N   UNL     1      -3.413  -4.961  -4.879  0.00  0.00    -0.298 NA
ATOM      5  C   UNL     1      -2.828  -4.822  -6.230  0.00  0.00    +0.085 C 
ATOM      6  C   UNL     1      -4.470  -5.980  -4.864  0.00  0.00    +0.105 C 
ENDROOT
BRANCH   3   7
ATOM      7  C   UNL     1      -2.205  -4.225  -2.889  0.00  0.00    -0.012 A 
ATOM      8  C   UNL     1      -3.026  -4.227  -1.777  0.00  0.00    +0.115 A 
ATOM      9  N   UNL     1      -2.920  -3.287  -0.858  0.00  0.00    -0.263 NA
ATOM     10  C   UNL     1      -2.035  -2.315  -0.960  0.00  0.00    +0.111 A 
ATOM     11  C   UNL     1      -1.179  -2.248  -2.044  0.00  0.00    +0.020 A 
ATOM     12  C   UNL     1      -1.258  -3.222  -3.027  0.00  0.00    +0.008 A 
ENDBRANCH   3   7
TORSDOF 1
ENDMDL
