MODEL 1
REMARK VINA RESULT:    -7.117      0.000      0.000
REMARK INTER + INTRA:          -7.733
REMARK INTER:                  -7.533
REMARK INTRA:                  -0.200
REMARK UNBOUND:                -0.200
REMARK  Name = Nicotine.pdb
REMARK  2 active torsions:
REMARK  status: ('A' for Active; 'I' for Inactive)
REMARK    1  A    between atoms: C_3  and  C_6
REMARK    2  A    between atoms: N_4  and  C_12
REMARK                            x       y       z     vdW  Elec       q    Type
REMARK                         _______ _______ _______ _____ _____    ______ ____
ROOT
ATOM      1  C   UNL     1       2.126  -0.680   3.749  0.00  0.00    +0.017 C 
ATOM      2  C   UNL     1       2.678  -0.075   2.432  0.00  0.00    +0.025 C 
ATOM      3  C   UNL     1       1.499  -0.246   1.451  0.00  0.00    +0.088 C 
ATOM      4  N   UNL     1       0.646  -1.327   1.976  0.00  0.00    -0.298 NA
ATOM      5  C   UNL     1       1.257  -1.847   3.218  0.00  0.00    +0.085 C 
ATOM      6  C   UNL     1      -0.721  -0.850   2.221  0.00  0.00    +0.105 C 
ENDROOT
BRANCH   3   7
ATOM      7  C   UNL     1       2.017  -0.616   0.085  0.00  0.00    -0.012 A 
ATOM      8  C   UNL     1       1.911  -1.916  -0.373  0.00  0.00    +0.115 A 
ATOM      9  N   UNL     1       2.362  -2.248  -1.567  0.00  0.00    -0.263 NA
ATOM     10  C   UNL     1       2.927  -1.365  -2.366  0.00  0.00    +0.111 A 
ATOM     11  C   UNL     1       3.067  -0.046  -1.975  0.00  0.00    +0.020 A 
ATOM     12  C   UNL     1       2.600   0.342  -0.729  0.00  0.00    +0.008 A 
ENDBRANCH   3   7
TORSDOF 1
ENDMDL
MODEL 2
REMARK VINA RESULT:    -6.924      1.334      1.987
REMARK INTER + INTRA:          -7.529
REMARK INTER:                  -7.323
REMARK INTRA:                  -0.206
REMARK UNBOUND:                -0.200
REMARK  Name = Nicotine.pdb
REMARK  2 active torsions:
REMARK  status: ('A' for Active; 'I' for Inactive)
REMARK    1  A    between atoms: C_3  and  C_6
REMARK    2  A    between atoms: N_4  and  C_12
REMARK                            x       y       z     vdW  Elec       q    Type
REMARK                         _______ _______ _______ _____ _____    ______ ____
ROOT
ATOM      1  C   UNL     1       1.095  -1.997   3.848  0.00  0.00    +0.017 C 
ATOM      2  C   UNL     1       1.599  -2.546   2.488  0.00  0.00    +0.025 C 
ATOM      3  C   UNL     1       2.737  -1.570   2.119  0.00  0.00    +0.088 C 
ATOM      4  N   UNL     1       2.496  -0.319   2.860  0.00  0.00    -0.298 NA
ATOM      5  C   UNL     1       1.252  -0.469   3.646  0.00  0.00    +0.085 C 
ATOM      6  C   UNL     1       3.633   0.006   3.730  0.00  0.00    +0.105 C 
ENDROOT
BRANCH   3   7
ATOM      7  C   UNL     1       2.721  -1.301   0.637  0.00  0.00    -0.012 A 
ATOM      8  C   UNL     1       2.701  -2.350  -0.264  0.00  0.00    +0.115 A 
ATOM      9  N   UNL     1       2.687  -2.123  -1.563  0.00  0.00    -0.263 NA
ATOM     10  C   UNL     1       2.692  -0.899  -2.053  0.00  0.00    +0.111 A 
ATOM     11  C   UNL     1       2.712   0.199  -1.213  0.00  0.00    +0.020 A 
ATOM     12  C   UNL     1       2.721   0.000   0.159  0.00  0.00    +0.008 A 
ENDBRANCH   3   7
TORSDOF 1
ENDMDL
MODEL 3
REMARK VINA RESULT:    -6.839      1.194      4.542
REMARK INTER + INTRA:          -7.439
REMARK INTER:                  -7.246
REMARK INTRA:                  -0.193
REMARK UNBOUND:                -0.200
REMARK  Name = Nicotine.pdb
REMARK  2 active torsions:
REMARK  status: ('A' for Active; 'I' for Inactive)
REMARK    1  A    between atoms: C_3  and  C_6
REMARK    2  A    between atoms: N_4  and  C_12
REMARK                            x       y       z     vdW  Elec       q    Type
REMARK                         _______ _______ _______ _____ _____    ______ ____
ROOT
ATOM      1  C   UNL     1       2.680  -0.010  -1.488  0.00  0.00    +0.017 C 
ATOM      2  C   UNL     1       2.477   0.356   0.006  0.00  0.00    +0.025 C 
ATOM      3  C   UNL     1       2.258  -1.018   0.673  0.00  0.00    +0.088 C 
ATOM      4  N   UNL     1       1.802  -1.946  -0.377  0.00  0.00    -0.298 NA
ATOM      5  C   UNL     1       1.707  -1.204  -1.652  0.00  0.00    +0.085 C 
ATOM      6  C   UNL     1       2.714  -3.091  -0.501  0.00  0.00    +0.105 C 
ENDROOT
BRANCH   3   7
ATOM      7  C   UNL     1       1.209  -0.904   1.749  0.00  0.00    -0.012 A 
ATOM      8  C   UNL     1       1.575  -0.675   3.061  0.00  0.00    +0.115 A 
ATOM      9  N   UNL     1       0.663  -0.574   4.009  0.00  0.00    -0.263 NA
ATOM     10  C   UNL     1      -0.624  -0.686   3.746  0.00  0.00    +0.111 A 
ATOM     11  C   UNL     1      -1.066  -0.915   2.457  0.00  0.00    +0.020 A 
ATOM     12  C   UNL     1      -0.137  -1.022   1.434  0.00  0.00    +0.008 A 
ENDBRANCH   3   7
TORSDOF 1
ENDMDL
MODEL 4
REMARK VINA RESULT:    -6.675      1.202      4.469
REMARK INTER + INTRA:          -7.265
REMARK INTER:                  -7.076
REMARK INTRA:                  -0.189
REMARK UNBOUND:                -0.200
REMARK  Name = Nicotine.pdb
REMARK  2 active torsions:
REMARK  status: ('A' for Active; 'I' for Inactive)
REMARK    1  A    between atoms: C_3  and  C_6
REMARK    2  A    between atoms: N_4  and  C_12
REMARK                            x       y       z     vdW  Elec       q    Type
REMARK                         _______ _______ _______ _____ _____    ______ ____
ROOT
ATOM      1  C   UNL     1       2.730   0.096  -1.445  0.00  0.00    +0.017 C 
ATOM      2  C   UNL     1       2.558   0.356   0.075  0.00  0.00    +0.025 C 
ATOM      3  C   UNL     1       2.246  -1.049   0.634  0.00  0.00    +0.088 C 
ATOM      4  N   UNL     1       1.725  -1.858  -0.482  0.00  0.00    -0.298 NA
ATOM      5  C   UNL     1       1.676  -1.012  -1.694  0.00  0.00    +0.085 C 
ATOM      6  C   UNL     1       2.555  -3.049  -0.703  0.00  0.00    +0.105 C 
ENDROOT
BRANCH   3   7
ATOM      7  C   UNL     1       1.210  -0.948   1.724  0.00  0.00    -0.012 A 
ATOM      8  C   UNL     1      -0.122  -1.191   1.447  0.00  0.00    +0.115 A 
ATOM      9  N   UNL     1      -1.035  -1.106   2.395  0.00  0.00    -0.263 NA
ATOM     10  C   UNL     1      -0.718  -0.788   3.635  0.00  0.00    +0.111 A 
ATOM     11  C   UNL     1       0.594  -0.532   3.987  0.00  0.00    +0.020 A 
ATOM     12  C   UNL     1       1.582  -0.617   3.018  0.00  0.00    +0.008 A 
ENDBRANCH   3   7
TORSDOF 1
ENDMDL
MODEL 5
REMARK VINA RESULT:    -6.108      1.490      4.573
REMARK INTER + INTRA:          -6.665
REMARK INTER:                  -6.475
REMARK INTRA:                  -0.190
REMARK UNBOUND:                -0.200
REMARK  Name = Nicotine.pdb
REMARK  2 active torsions:
REMARK  status: ('A' for Active; 'I' for Inactive)
REMARK    1  A    between atoms: C_3  and  C_6
REMARK    2  A    between atoms: N_4  and  C_12
REMARK                            x       y       z     vdW  Elec       q    Type
REMARK                         _______ _______ _______ _____ _____    ______ ____
ROOT
ATOM      1  C   UNL     1       0.868  -1.575  -1.039  0.00  0.00    +0.017 C 
ATOM      2  C   UNL     1       0.491  -1.083   0.383  0.00  0.00    +0.025 C 
ATOM      3  C   UNL     1       1.639  -0.112   0.730  0.00  0.00    +0.088 C 
ATOM      4  N   UNL     1       2.789  -0.475  -0.117  0.00  0.00    -0.298 NA
ATOM      5  C   UNL     1       2.413  -1.638  -0.949  0.00  0.00    +0.085 C 
ATOM      6  C   UNL     1       3.208   0.658  -0.952  0.00  0.00    +0.105 C 
ENDROOT
BRANCH   3   7
ATOM      7  C   UNL     1       2.007  -0.252   2.185  0.00  0.00    -0.012 A 
ATOM      8  C   UNL     1       1.029  -0.477   3.135  0.00  0.00    +0.115 A 
ATOM      9  N   UNL     1       1.342  -0.601   4.410  0.00  0.00    -0.263 NA
ATOM     10  C   UNL     1       2.590  -0.516   4.828  0.00  0.00    +0.111 A 
ATOM     11  C   UNL     1       3.622  -0.292   3.936  0.00  0.00    +0.020 A 
ATOM     12  C   UNL     1       3.331  -0.162   2.586  0.00  0.00    +0.008 A 
ENDBRANCH   3   7
TORSDOF 1
ENDMDL
MODEL 6
REMARK VINA RESULT:    -6.097      1.730      4.391
REMARK INTER + INTRA:          -6.653
REMARK INTER:                  -6.457
REMARK INTRA:                  -0.196
REMARK UNBOUND:                -0.200
REMARK  Name = Nicotine.pdb
REMARK  2 active torsions:
REMARK  status: ('A' for Active; 'I' for Inactive)
REMARK    1  A    between atoms: C_3  and  C_6
REMARK    2  A    between atoms: N_4  and  C_12
REMARK                            x       y       z     vdW  Elec       q    Type
REMARK                         _______ _______ _______ _____ _____    ______ ____
ROOT
ATOM      1  C   UNL     1       2.335  -2.625  -0.652  0.00  0.00    +0.017 C 
ATOM      2  C   UNL     1       2.719  -2.850   0.835  0.00  0.00    +0.025 C 
ATOM      3  C   UNL     1       1.675  -2.005   1.595  0.00  0.00    +0.088 C 
ATOM      4  N   UNL     1       1.172  -0.985   0.657  0.00  0.00    -0.298 NA
ATOM      5  C   UNL     1       1.873  -1.146  -0.635  0.00  0.00    +0.085 C 
ATOM      6  C   UNL     1      -0.282  -1.099   0.485  0.00  0.00    +0.105 C 
ENDROOT
BRANCH   3   7
ATOM      7  C   UNL     1       2.322  -1.337   2.781  0.00  0.00    -0.012 A 
ATOM      8  C   UNL     1       2.076  -1.796   4.061  0.00  0.00    +0.115 A 
ATOM      9  N   UNL     1       2.638  -1.218   5.105  0.00  0.00    -0.263 NA
ATOM     10  C   UNL     1       3.449  -0.188   4.973  0.00  0.00    +0.111 A 
ATOM     11  C   UNL     1       3.743   0.326   3.723  0.00  0.00    +0.020 A 
ATOM     12  C   UNL     1       3.175  -0.259   2.602  0.00  0.00    +0.008 A 
ENDBRANCH   3   7
TORSDOF 1
ENDMDL
MODEL 7
REMARK VINA RESULT:    -5.809      1.721      4.496
REMARK INTER + INTRA:          -6.349
REMARK INTER:                  -6.093
REMARK INTRA:                  -0.256
REMARK UNBOUND:                -0.200
REMARK  Name = Nicotine.pdb
REMARK  2 active torsions:
REMARK  status: ('A' for Active; 'I' for Inactive)
REMARK    1  A    between atoms: C_3  and  C_6
REMARK    2  A    between atoms: N_4  and  C_12
REMARK                            x       y       z     vdW  Elec       q    Type
REMARK                         _______ _______ _______ _____ _____    ______ ____
ROOT
ATOM      1  C   UNL     1       2.136  -0.469  -1.148  0.00  0.00    +0.017 C 
ATOM      2  C   UNL     1       2.985  -0.115   0.101  0.00  0.00    +0.025 C 
ATOM      3  C   UNL     1       3.043  -1.451   0.871  0.00  0.00    +0.088 C 
ATOM      4  N   UNL     1       1.895  -2.262   0.426  0.00  0.00    -0.298 NA
ATOM      5  C   UNL     1       1.120  -1.480  -0.560  0.00  0.00    +0.085 C 
ATOM      6  C   UNL     1       2.342  -3.538  -0.147  0.00  0.00    +0.105 C 
ENDROOT
BRANCH   3   7
ATOM      7  C   UNL     1       2.947  -1.194   2.353  0.00  0.00    -0.012 A 
ATOM      8  C   UNL     1       3.461  -2.106   3.255  0.00  0.00    +0.115 A 
ATOM      9  N   UNL     1       3.381  -1.889   4.554  0.00  0.00    -0.263 NA
ATOM     10  C   UNL     1       2.814  -0.803   5.041  0.00  0.00    +0.111 A 
ATOM     11  C   UNL     1       2.278   0.154   4.199  0.00  0.00    +0.020 A 
ATOM     12  C   UNL     1       2.348  -0.038   2.828  0.00  0.00    +0.008 A 
ENDBRANCH   3   7
TORSDOF 1
ENDMDL
MODEL 8
REMARK VINA RESULT:    -4.888      1.675      4.565
REMARK INTER + INTRA:          -5.374
REMARK INTER:                  -5.118
REMARK INTRA:                  -0.256
REMARK UNBOUND:                -0.200
REMARK  Name = Nicotine.pdb
REMARK  2 active torsions:
REMARK  status: ('A' for Active; 'I' for Inactive)
REMARK    1  A    between atoms: C_3  and  C_6
REMARK    2  A    between atoms: N_4  and  C_12
REMARK                            x       y       z     vdW  Elec       q    Type
REMARK                         _______ _______ _______ _____ _____    ______ ____
ROOT
ATOM      1  C   UNL     1       3.569  -2.092   0.159  0.00  0.00    +0.017 C 
ATOM      2  C   UNL     1       2.692  -2.518   1.367  0.00  0.00    +0.025 C 
ATOM      3  C   UNL     1       1.289  -2.009   0.973  0.00  0.00    +0.088 C 
ATOM      4  N   UNL     1       1.476  -0.933  -0.016  0.00  0.00    -0.298 NA
ATOM      5  C   UNL     1       2.926  -0.738  -0.232  0.00  0.00    +0.085 C 
ATOM      6  C   UNL     1       0.794  -1.252  -1.277  0.00  0.00    +0.105 C 
ENDROOT
BRANCH   3   7
ATOM      7  C   UNL     1       0.580  -1.472   2.189  0.00  0.00    -0.012 A 
ATOM      8  C   UNL     1      -0.800  -1.402   2.219  0.00  0.00    +0.115 A 
ATOM      9  N   UNL     1      -1.429  -0.933   3.279  0.00  0.00    -0.263 NA
ATOM     10  C   UNL     1      -0.775  -0.515   4.344  0.00  0.00    +0.111 A 
ATOM     11  C   UNL     1       0.606  -0.555   4.388  0.00  0.00    +0.020 A 
ATOM     12  C   UNL     1       1.302  -1.047   3.294  0.00  0.00    +0.008 A 
ENDBRANCH   3   7
TORSDOF 1
ENDMDL
MODEL 9
REMARK VINA RESULT:    -4.543      2.862      4.537
REMARK INTER + INTRA:          -5.009
REMARK INTER:                  -4.811
REMARK INTRA:                  -0.197
REMARK UNBOUND:                -0.200
REMARK  Name = Nicotine.pdb
REMARK  2 active torsions:
REMARK  status: ('A' for Active; 'I' for Inactive)
REMARK    1  A    between atoms: C_3  and  C_6
REMARK    2  A    between atoms: N_4  and  C_12
REMARK                            x       y       z     vdW  Elec       q    Type
REMARK                         _______ _______ _______ _____ _____    ______ ____
ROOT
ATOM      1  C   UNL     1       4.219   0.189   4.123  0.00  0.00    +0.017 C 
ATOM      2  C   UNL     1       2.834  -0.253   4.664  0.00  0.00    +0.025 C 
ATOM      3  C   UNL     1       2.355  -1.267   3.603  0.00  0.00    +0.088 C 
ATOM      4  N   UNL     1       3.087  -0.975   2.358  0.00  0.00    -0.298 NA
ATOM      5  C   UNL     1       3.974   0.184   2.593  0.00  0.00    +0.085 C 
ATOM      6  C   UNL     1       3.856  -2.145   1.912  0.00  0.00    +0.105 C 
ENDROOT
BRANCH   3   7
ATOM      7  C   UNL     1       0.873  -1.111   3.377  0.00  0.00    -0.012 A 
ATOM      8  C   UNL     1       0.014  -0.959   4.449  0.00  0.00    +0.115 A 
ATOM      9  N   UNL     1      -1.283  -0.822   4.260  0.00  0.00    -0.263 NA
ATOM     10  C   UNL     1      -1.812  -0.824   3.052  0.00  0.00    +0.111 A 
ATOM     11  C   UNL     1      -1.015  -0.970   1.931  0.00  0.00    +0.020 A 
ATOM     12  C   UNL     1       0.355  -1.112   2.091  0.00  0.00    +0.008 A 
ENDBRANCH   3   7
TORSDOF 1
ENDMDL
