MODEL 1
REMARK VINA RESULT:    -5.110      0.000      0.000
REMARK INTER + INTRA:          -5.600
REMARK INTER:                  -5.409
REMARK INTRA:                  -0.192
REMARK UNBOUND:                -0.192
REMARK  Name = Nicotine.pdb
REMARK  2 active torsions:
REMARK  status: ('A' for Active; 'I' for Inactive)
REMARK    1  A    between atoms: C_3  and  C_6
REMARK    2  A    between atoms: N_4  and  C_12
REMARK                            x       y       z     vdW  Elec       q    Type
REMARK                         _______ _______ _______ _____ _____    ______ ____
ROOT
ATOM      1  C   UNL     1       5.877   2.680   1.996  0.00  0.00    +0.017 C 
ATOM      2  C   UNL     1       6.761   1.864   2.975  0.00  0.00    +0.025 C 
ATOM      3  C   UNL     1       6.994   2.852   4.138  0.00  0.00    +0.088 C 
ATOM      4  N   UNL     1       6.780   4.211   3.606  0.00  0.00    -0.298 NA
ATOM      5  C   UNL     1       6.453   4.108   2.168  0.00  0.00    +0.085 C 
ATOM      6  C   UNL     1       5.714   4.903   4.342  0.00  0.00    +0.105 C 
ENDROOT
BRANCH   3   7
ATOM      7  C   UNL     1       8.404   2.717   4.651  0.00  0.00    -0.012 A 
ATOM      8  C   UNL     1       8.999   1.473   4.742  0.00  0.00    +0.115 A 
ATOM      9  N   UNL     1      10.233   1.346   5.190  0.00  0.00    -0.263 NA
ATOM     10  C   UNL     1      10.944   2.389   5.567  0.00  0.00    +0.111 A 
ATOM     11  C   UNL     1      10.416   3.666   5.504  0.00  0.00    +0.020 A 
ATOM     12  C   UNL     1       9.124   3.839   5.033  0.00  0.00    +0.008 A 
ENDBRANCH   3   7
TORSDOF 1
ENDMDL
MODEL 2
REMARK VINA RESULT:    -5.018      6.044      8.469
REMARK INTER + INTRA:          -5.503
REMARK INTER:                  -5.305
REMARK INTRA:                  -0.198
REMARK UNBOUND:                -0.192
REMARK  Name = Nicotine.pdb
REMARK  2 active torsions:
REMARK  status: ('A' for Active; 'I' for Inactive)
REMARK    1  A    between atoms: C_3  and  C_6
REMARK    2  A    between atoms: N_4  and  C_12
REMARK                            x       y       z     vdW  Elec       q    Type
REMARK                         _______ _______ _______ _____ _____    ______ ____
ROOT
ATOM      1  C   UNL     1      -0.233   3.591  -2.865  0.00  0.00    +0.017 C 
ATOM      2  C   UNL     1       0.893   4.004  -1.881  0.00  0.00    +0.025 C 
ATOM      3  C   UNL     1       1.523   2.651  -1.487  0.00  0.00    +0.088 C 
ATOM      4  N   UNL     1       0.513   1.608  -1.740  0.00  0.00    -0.298 NA
ATOM      5  C   UNL     1      -0.716   2.256  -2.245  0.00  0.00    +0.085 C 
ATOM      6  C   UNL     1       1.013   0.610  -2.694  0.00  0.00    +0.105 C 
ENDROOT
BRANCH   3   7
ATOM      7  C   UNL     1       1.895   2.664  -0.027  0.00  0.00    -0.012 A 
ATOM      8  C   UNL     1       3.220   2.738   0.356  0.00  0.00    +0.115 A 
ATOM      9  N   UNL     1       3.554   2.750   1.632  0.00  0.00    -0.263 NA
ATOM     10  C   UNL     1       2.646   2.692   2.586  0.00  0.00    +0.111 A 
ATOM     11  C   UNL     1       1.300   2.618   2.279  0.00  0.00    +0.020 A 
ATOM     12  C   UNL     1       0.911   2.608   0.949  0.00  0.00    +0.008 A 
ENDBRANCH   3   7
TORSDOF 1
ENDMDL
MODEL 3
REMARK VINA RESULT:    -4.773      1.747      2.667
REMARK INTER + INTRA:          -5.244
REMARK INTER:                  -5.026
REMARK INTRA:                  -0.217
REMARK UNBOUND:                -0.192
REMARK  Name = Nicotine.pdb
REMARK  2 active torsions:
REMARK  status: ('A' for Active; 'I' for Inactive)
REMARK    1  A    between atoms: C_3  and  C_6
REMARK    2  A    between atoms: N_4  and  C_12
REMARK                            x       y       z     vdW  Elec       q    Type
REMARK                         _______ _______ _______ _____ _____    ______ ____
ROOT
ATOM      1  C   UNL     1       5.604   4.932   4.422  0.00  0.00    +0.017 C 
ATOM      2  C   UNL     1       6.994   4.248   4.510  0.00  0.00    +0.025 C 
ATOM      3  C   UNL     1       6.923   3.174   3.404  0.00  0.00    +0.088 C 
ATOM      4  N   UNL     1       5.497   2.900   3.152  0.00  0.00    -0.298 NA
ATOM      5  C   UNL     1       4.688   3.734   4.067  0.00  0.00    +0.085 C 
ATOM      6  C   UNL     1       5.149   3.165   1.750  0.00  0.00    +0.105 C 
ENDROOT
BRANCH   3   7
ATOM      7  C   UNL     1       7.614   1.917   3.865  0.00  0.00    -0.012 A 
ATOM      8  C   UNL     1       7.087   0.677   3.559  0.00  0.00    +0.115 A 
ATOM      9  N   UNL     1       7.686  -0.428   3.958  0.00  0.00    -0.263 NA
ATOM     10  C   UNL     1       8.801  -0.397   4.660  0.00  0.00    +0.111 A 
ATOM     11  C   UNL     1       9.388   0.806   5.003  0.00  0.00    +0.020 A 
ATOM     12  C   UNL     1       8.790   1.989   4.596  0.00  0.00    +0.008 A 
ENDBRANCH   3   7
TORSDOF 1
ENDMDL
MODEL 4
REMARK VINA RESULT:    -4.549      5.401      7.718
REMARK INTER + INTRA:          -5.007
REMARK INTER:                  -4.794
REMARK INTRA:                  -0.213
REMARK UNBOUND:                -0.192
REMARK  Name = Nicotine.pdb
REMARK  2 active torsions:
REMARK  status: ('A' for Active; 'I' for Inactive)
REMARK    1  A    between atoms: C_3  and  C_6
REMARK    2  A    between atoms: N_4  and  C_12
REMARK                            x       y       z     vdW  Elec       q    Type
REMARK                         _______ _______ _______ _____ _____    ______ ____
ROOT
ATOM      1  C   UNL     1      -0.073   0.817  -1.745  0.00  0.00    +0.017 C 
ATOM      2  C   UNL     1       0.122   1.166  -0.246  0.00  0.00    +0.025 C 
ATOM      3  C   UNL     1       0.780   2.561  -0.297  0.00  0.00    +0.088 C 
ATOM      4  N   UNL     1       1.409   2.699  -1.623  0.00  0.00    -0.298 NA
ATOM      5  C   UNL     1       1.192   1.448  -2.380  0.00  0.00    +0.085 C 
ATOM      6  C   UNL     1       0.864   3.855  -2.347  0.00  0.00    +0.105 C 
ENDROOT
BRANCH   3   7
ATOM      7  C   UNL     1       1.826   2.675   0.782  0.00  0.00    -0.012 A 
ATOM      8  C   UNL     1       3.166   2.745   0.452  0.00  0.00    +0.115 A 
ATOM      9  N   UNL     1       4.088   2.845   1.390  0.00  0.00    -0.263 NA
ATOM     10  C   UNL     1       3.772   2.881   2.670  0.00  0.00    +0.111 A 
ATOM     11  C   UNL     1       2.453   2.817   3.076  0.00  0.00    +0.020 A 
ATOM     12  C   UNL     1       1.456   2.717   2.117  0.00  0.00    +0.008 A 
ENDBRANCH   3   7
TORSDOF 1
ENDMDL
MODEL 5
REMARK VINA RESULT:    -4.547      4.795      6.963
REMARK INTER + INTRA:          -5.005
REMARK INTER:                  -4.785
REMARK INTRA:                  -0.220
REMARK UNBOUND:                -0.192
REMARK  Name = Nicotine.pdb
REMARK  2 active torsions:
REMARK  status: ('A' for Active; 'I' for Inactive)
REMARK    1  A    between atoms: C_3  and  C_6
REMARK    2  A    between atoms: N_4  and  C_12
REMARK                            x       y       z     vdW  Elec       q    Type
REMARK                         _______ _______ _______ _____ _____    ______ ____
ROOT
ATOM      1  C   UNL     1      -0.332   1.554   0.207  0.00  0.00    +0.017 C 
ATOM      2  C   UNL     1       0.798   2.060   1.143  0.00  0.00    +0.025 C 
ATOM      3  C   UNL     1       1.665   2.924   0.203  0.00  0.00    +0.088 C 
ATOM      4  N   UNL     1       1.400   2.473  -1.175  0.00  0.00    -0.298 NA
ATOM      5  C   UNL     1       0.431   1.357  -1.127  0.00  0.00    +0.085 C 
ATOM      6  C   UNL     1       0.893   3.576  -2.002  0.00  0.00    +0.105 C 
ENDROOT
BRANCH   3   7
ATOM      7  C   UNL     1       3.123   2.736   0.534  0.00  0.00    -0.012 A 
ATOM      8  C   UNL     1       3.987   2.192  -0.398  0.00  0.00    +0.115 A 
ATOM      9  N   UNL     1       5.264   2.023  -0.116  0.00  0.00    -0.263 NA
ATOM     10  C   UNL     1       5.766   2.363   1.054  0.00  0.00    +0.111 A 
ATOM     11  C   UNL     1       4.964   2.914   2.036  0.00  0.00    +0.020 A 
ATOM     12  C   UNL     1       3.617   3.111   1.774  0.00  0.00    +0.008 A 
ENDBRANCH   3   7
TORSDOF 1
ENDMDL
MODEL 6
REMARK VINA RESULT:    -3.631      3.421      6.536
REMARK INTER + INTRA:          -4.036
REMARK INTER:                  -3.847
REMARK INTRA:                  -0.189
REMARK UNBOUND:                -0.192
REMARK  Name = Nicotine.pdb
REMARK  2 active torsions:
REMARK  status: ('A' for Active; 'I' for Inactive)
REMARK    1  A    between atoms: C_3  and  C_6
REMARK    2  A    between atoms: N_4  and  C_12
REMARK                            x       y       z     vdW  Elec       q    Type
REMARK                         _______ _______ _______ _____ _____    ______ ____
ROOT
ATOM      1  C   UNL     1       6.854   2.176   1.893  0.00  0.00    +0.017 C 
ATOM      2  C   UNL     1       5.698   2.527   0.919  0.00  0.00    +0.025 C 
ATOM      3  C   UNL     1       4.689   3.261   1.828  0.00  0.00    +0.088 C 
ATOM      4  N   UNL     1       4.967   2.845   3.214  0.00  0.00    -0.298 NA
ATOM      5  C   UNL     1       6.080   1.872   3.200  0.00  0.00    +0.085 C 
ATOM      6  C   UNL     1       5.290   4.004   4.057  0.00  0.00    +0.105 C 
ENDROOT
BRANCH   3   7
ATOM      7  C   UNL     1       3.283   2.877   1.448  0.00  0.00    -0.012 A 
ATOM      8  C   UNL     1       2.956   2.641   0.126  0.00  0.00    +0.115 A 
ATOM      9  N   UNL     1       1.727   2.304  -0.215  0.00  0.00    -0.263 NA
ATOM     10  C   UNL     1       0.768   2.179   0.681  0.00  0.00    +0.111 A 
ATOM     11  C   UNL     1       1.021   2.398   2.022  0.00  0.00    +0.020 A 
ATOM     12  C   UNL     1       2.302   2.749   2.419  0.00  0.00    +0.008 A 
ENDBRANCH   3   7
TORSDOF 1
ENDMDL
MODEL 7
REMARK VINA RESULT:    -3.604      1.376      2.055
REMARK INTER + INTRA:          -4.007
REMARK INTER:                  -3.790
REMARK INTRA:                  -0.217
REMARK UNBOUND:                -0.192
REMARK  Name = Nicotine.pdb
REMARK  2 active torsions:
REMARK  status: ('A' for Active; 'I' for Inactive)
REMARK    1  A    between atoms: C_3  and  C_6
REMARK    2  A    between atoms: N_4  and  C_12
REMARK                            x       y       z     vdW  Elec       q    Type
REMARK                         _______ _______ _______ _____ _____    ______ ____
ROOT
ATOM      1  C   UNL     1       5.845   2.791   0.780  0.00  0.00    +0.017 C 
ATOM      2  C   UNL     1       6.046   1.771   1.932  0.00  0.00    +0.025 C 
ATOM      3  C   UNL     1       6.474   2.665   3.116  0.00  0.00    +0.088 C 
ATOM      4  N   UNL     1       7.017   3.912   2.548  0.00  0.00    -0.298 NA
ATOM      5  C   UNL     1       6.967   3.819   1.074  0.00  0.00    +0.085 C 
ATOM      6  C   UNL     1       6.266   5.080   3.029  0.00  0.00    +0.105 C 
ENDROOT
BRANCH   3   7
ATOM      7  C   UNL     1       7.534   1.966   3.929  0.00  0.00    -0.012 A 
ATOM      8  C   UNL     1       8.369   2.691   4.758  0.00  0.00    +0.115 A 
ATOM      9  N   UNL     1       9.299   2.087   5.472  0.00  0.00    -0.263 NA
ATOM     10  C   UNL     1       9.469   0.781   5.426  0.00  0.00    +0.111 A 
ATOM     11  C   UNL     1       8.671  -0.009   4.620  0.00  0.00    +0.020 A 
ATOM     12  C   UNL     1       7.679   0.589   3.858  0.00  0.00    +0.008 A 
ENDBRANCH   3   7
TORSDOF 1
ENDMDL
MODEL 8
REMARK VINA RESULT:    -3.523      3.079      6.301
REMARK INTER + INTRA:          -3.921
REMARK INTER:                  -3.712
REMARK INTRA:                  -0.209
REMARK UNBOUND:                -0.192
REMARK  Name = Nicotine.pdb
REMARK  2 active torsions:
REMARK  status: ('A' for Active; 'I' for Inactive)
REMARK    1  A    between atoms: C_3  and  C_6
REMARK    2  A    between atoms: N_4  and  C_12
REMARK                            x       y       z     vdW  Elec       q    Type
REMARK                         _______ _______ _______ _____ _____    ______ ____
ROOT
ATOM      1  C   UNL     1       5.934   4.549   4.342  0.00  0.00    +0.017 C 
ATOM      2  C   UNL     1       4.490   4.000   4.202  0.00  0.00    +0.025 C 
ATOM      3  C   UNL     1       4.660   2.823   3.217  0.00  0.00    +0.088 C 
ATOM      4  N   UNL     1       5.900   3.066   2.458  0.00  0.00    -0.298 NA
ATOM      5  C   UNL     1       6.487   4.346   2.909  0.00  0.00    +0.085 C 
ATOM      6  C   UNL     1       6.850   1.960   2.633  0.00  0.00    +0.105 C 
ENDROOT
BRANCH   3   7
ATOM      7  C   UNL     1       3.484   2.767   2.277  0.00  0.00    -0.012 A 
ATOM      8  C   UNL     1       2.195   2.727   2.772  0.00  0.00    +0.115 A 
ATOM      9  N   UNL     1       1.160   2.678   1.956  0.00  0.00    -0.263 NA
ATOM     10  C   UNL     1       1.310   2.665   0.646  0.00  0.00    +0.111 A 
ATOM     11  C   UNL     1       2.570   2.704   0.078  0.00  0.00    +0.020 A 
ATOM     12  C   UNL     1       3.681   2.762   0.904  0.00  0.00    +0.008 A 
ENDBRANCH   3   7
TORSDOF 1
ENDMDL
MODEL 9
REMARK VINA RESULT:    -2.947      7.058      9.078
REMARK INTER + INTRA:          -3.312
REMARK INTER:                  -3.125
REMARK INTRA:                  -0.186
REMARK UNBOUND:                -0.192
REMARK  Name = Nicotine.pdb
REMARK  2 active torsions:
REMARK  status: ('A' for Active; 'I' for Inactive)
REMARK    1  A    between atoms: C_3  and  C_6
REMARK    2  A    between atoms: N_4  and  C_12
REMARK                            x       y       z     vdW  Elec       q    Type
REMARK                         _______ _______ _______ _____ _____    ______ ____
ROOT
ATOM      1  C   UNL     1       2.028   2.550   2.676  0.00  0.00    +0.017 C 
ATOM      2  C   UNL     1       2.375   2.888   1.202  0.00  0.00    +0.025 C 
ATOM      3  C   UNL     1       1.025   2.703   0.476  0.00  0.00    +0.088 C 
ATOM      4  N   UNL     1       0.199   1.812   1.311  0.00  0.00    -0.298 NA
ATOM      5  C   UNL     1       0.984   1.419   2.501  0.00  0.00    +0.085 C 
ATOM      6  C   UNL     1      -1.056   2.468   1.700  0.00  0.00    +0.105 C 
ENDROOT
BRANCH   3   7
ATOM      7  C   UNL     1       1.250   2.078  -0.876  0.00  0.00    -0.012 A 
ATOM      8  C   UNL     1       2.504   2.104  -1.457  0.00  0.00    +0.115 A 
ATOM      9  N   UNL     1       2.710   1.559  -2.640  0.00  0.00    -0.263 NA
ATOM     10  C   UNL     1       1.739   0.973  -3.312  0.00  0.00    +0.111 A 
ATOM     11  C   UNL     1       0.459   0.908  -2.794  0.00  0.00    +0.020 A 
ATOM     12  C   UNL     1       0.205   1.465  -1.550  0.00  0.00    +0.008 A 
ENDBRANCH   3   7
TORSDOF 1
ENDMDL
MODEL 10
REMARK VINA RESULT:    -2.824      6.091      9.358
REMARK INTER + INTRA:          -3.181
REMARK INTER:                  -2.965
REMARK INTRA:                  -0.216
REMARK UNBOUND:                -0.192
REMARK  Name = Nicotine.pdb
REMARK  2 active torsions:
REMARK  status: ('A' for Active; 'I' for Inactive)
REMARK    1  A    between atoms: C_3  and  C_6
REMARK    2  A    between atoms: N_4  and  C_12
REMARK                            x       y       z     vdW  Elec       q    Type
REMARK                         _______ _______ _______ _____ _____    ______ ____
ROOT
ATOM      1  C   UNL     1       1.277   1.609   2.733  0.00  0.00    +0.017 C 
ATOM      2  C   UNL     1       0.596   1.301   1.373  0.00  0.00    +0.025 C 
ATOM      3  C   UNL     1       1.585   1.896   0.348  0.00  0.00    +0.088 C 
ATOM      4  N   UNL     1       2.387   2.912   1.053  0.00  0.00    -0.298 NA
ATOM      5  C   UNL     1       1.923   2.989   2.455  0.00  0.00    +0.085 C 
ATOM      6  C   UNL     1       3.819   2.591   0.989  0.00  0.00    +0.105 C 
ENDROOT
BRANCH   3   7
ATOM      7  C   UNL     1       0.826   2.537  -0.785  0.00  0.00    -0.012 A 
ATOM      8  C   UNL     1       1.418   3.518  -1.557  0.00  0.00    +0.115 A 
ATOM      9  N   UNL     1       0.760   4.084  -2.551  0.00  0.00    -0.263 NA
ATOM     10  C   UNL     1      -0.478   3.740  -2.847  0.00  0.00    +0.111 A 
ATOM     11  C   UNL     1      -1.135   2.765  -2.119  0.00  0.00    +0.020 A 
ATOM     12  C   UNL     1      -0.473   2.145  -1.070  0.00  0.00    +0.008 A 
ENDBRANCH   3   7
TORSDOF 1
ENDMDL
