MODEL 1
REMARK VINA RESULT:    -1.877      0.000      0.000
REMARK INTER + INTRA:          -2.157
REMARK INTER:                  -1.987
REMARK INTRA:                  -0.170
REMARK UNBOUND:                -0.170
REMARK  Name = Nicotine.pdb
REMARK  2 active torsions:
REMARK  status: ('A' for Active; 'I' for Inactive)
REMARK    1  A    between atoms: C_3  and  C_6
REMARK    2  A    between atoms: N_4  and  C_12
REMARK                            x       y       z     vdW  Elec       q    Type
REMARK                         _______ _______ _______ _____ _____    ______ ____
ROOT
ATOM      1  C   UNL     1      10.430  -3.197   1.596  0.00  0.00    +0.017 C 
ATOM      2  C   UNL     1       9.091  -3.195   2.379  0.00  0.00    +0.025 C 
ATOM      3  C   UNL     1       9.027  -4.623   2.961  0.00  0.00    +0.088 C 
ATOM      4  N   UNL     1       9.896  -5.474   2.128  0.00  0.00    -0.298 NA
ATOM      5  C   UNL     1      10.470  -4.645   1.047  0.00  0.00    +0.085 C 
ATOM      6  C   UNL     1      10.954  -6.096   2.934  0.00  0.00    +0.105 C 
ENDROOT
BRANCH   3   7
ATOM      7  C   UNL     1       7.610  -5.133   2.915  0.00  0.00    -0.012 A 
ATOM      8  C   UNL     1       7.091  -5.648   1.742  0.00  0.00    +0.115 A 
ATOM      9  N   UNL     1       5.852  -6.097   1.693  0.00  0.00    -0.263 NA
ATOM     10  C   UNL     1       5.063  -6.072   2.749  0.00  0.00    +0.111 A 
ATOM     11  C   UNL     1       5.513  -5.572   3.957  0.00  0.00    +0.020 A 
ATOM     12  C   UNL     1       6.812  -5.096   4.048  0.00  0.00    +0.008 A 
ENDBRANCH   3   7
TORSDOF 1
ENDMDL
