MODEL 1
REMARK VINA RESULT:    -4.380      0.000      0.000
REMARK INTER + INTRA:          -4.848
REMARK INTER:                  -4.636
REMARK INTRA:                  -0.212
REMARK UNBOUND:                -0.212
REMARK  Name = Nicotine.pdb
REMARK  2 active torsions:
REMARK  status: ('A' for Active; 'I' for Inactive)
REMARK    1  A    between atoms: C_3  and  C_6
REMARK    2  A    between atoms: N_4  and  C_12
REMARK                            x       y       z     vdW  Elec       q    Type
REMARK                         _______ _______ _______ _____ _____    ______ ____
ROOT
ATOM      1  C   UNL     1       0.495   0.322  -7.255  0.00  0.00    +0.017 C 
ATOM      2  C   UNL     1       1.296   1.649  -7.199  0.00  0.00    +0.025 C 
ATOM      3  C   UNL     1       2.729   1.177  -6.874  0.00  0.00    +0.088 C 
ATOM      4  N   UNL     1       2.619  -0.152  -6.246  0.00  0.00    -0.298 NA
ATOM      5  C   UNL     1       1.187  -0.509  -6.146  0.00  0.00    +0.085 C 
ATOM      6  C   UNL     1       3.360  -1.161  -7.013  0.00  0.00    +0.105 C 
ENDROOT
BRANCH   3   7
ATOM      7  C   UNL     1       3.384   2.143  -5.922  0.00  0.00    -0.012 A 
ATOM      8  C   UNL     1       2.640   2.770  -4.940  0.00  0.00    +0.115 A 
ATOM      9  N   UNL     1       3.205   3.617  -4.102  0.00  0.00    -0.263 NA
ATOM     10  C   UNL     1       4.491   3.899  -4.165  0.00  0.00    +0.111 A 
ATOM     11  C   UNL     1       5.299   3.310  -5.120  0.00  0.00    +0.020 A 
ATOM     12  C   UNL     1       4.741   2.410  -6.015  0.00  0.00    +0.008 A 
ENDBRANCH   3   7
TORSDOF 1
ENDMDL
MODEL 2
REMARK VINA RESULT:    -4.244      1.610      4.685
REMARK INTER + INTRA:          -4.704
REMARK INTER:                  -4.462
REMARK INTRA:                  -0.242
REMARK UNBOUND:                -0.212
REMARK  Name = Nicotine.pdb
REMARK  2 active torsions:
REMARK  status: ('A' for Active; 'I' for Inactive)
REMARK    1  A    between atoms: C_3  and  C_6
REMARK    2  A    between atoms: N_4  and  C_12
REMARK                            x       y       z     vdW  Elec       q    Type
REMARK                         _______ _______ _______ _____ _____    ______ ____
ROOT
ATOM      1  C   UNL     1       4.472   2.527  -5.886  0.00  0.00    +0.017 C 
ATOM      2  C   UNL     1       4.067   1.165  -6.508  0.00  0.00    +0.025 C 
ATOM      3  C   UNL     1       2.615   1.413  -6.969  0.00  0.00    +0.088 C 
ATOM      4  N   UNL     1       2.092   2.541  -6.178  0.00  0.00    -0.298 NA
ATOM      5  C   UNL     1       3.142   2.983  -5.236  0.00  0.00    +0.085 C 
ATOM      6  C   UNL     1       1.668   3.644  -7.050  0.00  0.00    +0.105 C 
ENDROOT
BRANCH   3   7
ATOM      7  C   UNL     1       1.782   0.182  -6.723  0.00  0.00    -0.012 A 
ATOM      8  C   UNL     1       0.450   0.154  -7.091  0.00  0.00    +0.115 A 
ATOM      9  N   UNL     1      -0.286  -0.920  -6.879  0.00  0.00    -0.263 NA
ATOM     10  C   UNL     1       0.212  -2.001  -6.312  0.00  0.00    +0.111 A 
ATOM     11  C   UNL     1       1.536  -2.046  -5.917  0.00  0.00    +0.020 A 
ATOM     12  C   UNL     1       2.342  -0.939  -6.128  0.00  0.00    +0.008 A 
ENDBRANCH   3   7
TORSDOF 1
ENDMDL
MODEL 3
REMARK VINA RESULT:    -4.012      1.315      4.684
REMARK INTER + INTRA:          -4.458
REMARK INTER:                  -4.283
REMARK INTRA:                  -0.175
REMARK UNBOUND:                -0.212
REMARK  Name = Nicotine.pdb
REMARK  2 active torsions:
REMARK  status: ('A' for Active; 'I' for Inactive)
REMARK    1  A    between atoms: C_3  and  C_6
REMARK    2  A    between atoms: N_4  and  C_12
REMARK                            x       y       z     vdW  Elec       q    Type
REMARK                         _______ _______ _______ _____ _____    ______ ____
ROOT
ATOM      1  C   UNL     1       5.247   5.018  -6.011  0.00  0.00    +0.017 C 
ATOM      2  C   UNL     1       4.020   4.282  -6.609  0.00  0.00    +0.025 C 
ATOM      3  C   UNL     1       3.476   3.480  -5.407  0.00  0.00    +0.088 C 
ATOM      4  N   UNL     1       4.587   3.320  -4.451  0.00  0.00    -0.298 NA
ATOM      5  C   UNL     1       5.792   3.962  -5.017  0.00  0.00    +0.085 C 
ATOM      6  C   UNL     1       4.245   3.900  -3.145  0.00  0.00    +0.105 C 
ENDROOT
BRANCH   3   7
ATOM      7  C   UNL     1       2.996   2.129  -5.867  0.00  0.00    -0.012 A 
ATOM      8  C   UNL     1       3.881   1.222  -6.419  0.00  0.00    +0.115 A 
ATOM      9  N   UNL     1       3.469   0.037  -6.824  0.00  0.00    -0.263 NA
ATOM     10  C   UNL     1       2.206  -0.330  -6.721  0.00  0.00    +0.111 A 
ATOM     11  C   UNL     1       1.263   0.523  -6.179  0.00  0.00    +0.020 A 
ATOM     12  C   UNL     1       1.661   1.776  -5.738  0.00  0.00    +0.008 A 
ENDBRANCH   3   7
TORSDOF 1
ENDMDL
MODEL 4
REMARK VINA RESULT:    -3.702      1.904      4.774
REMARK INTER + INTRA:          -4.131
REMARK INTER:                  -3.875
REMARK INTRA:                  -0.256
REMARK UNBOUND:                -0.212
REMARK  Name = Nicotine.pdb
REMARK  2 active torsions:
REMARK  status: ('A' for Active; 'I' for Inactive)
REMARK    1  A    between atoms: C_3  and  C_6
REMARK    2  A    between atoms: N_4  and  C_12
REMARK                            x       y       z     vdW  Elec       q    Type
REMARK                         _______ _______ _______ _____ _____    ______ ____
ROOT
ATOM      1  C   UNL     1       2.215   3.350  -5.823  0.00  0.00    +0.017 C 
ATOM      2  C   UNL     1       1.556   2.028  -5.349  0.00  0.00    +0.025 C 
ATOM      3  C   UNL     1       2.503   0.947  -5.913  0.00  0.00    +0.088 C 
ATOM      4  N   UNL     1       3.236   1.552  -7.039  0.00  0.00    -0.298 NA
ATOM      5  C   UNL     1       2.768   2.944  -7.212  0.00  0.00    +0.085 C 
ATOM      6  C   UNL     1       4.686   1.508  -6.809  0.00  0.00    +0.105 C 
ENDROOT
BRANCH   3   7
ATOM      7  C   UNL     1       1.702  -0.234  -6.396  0.00  0.00    -0.012 A 
ATOM      8  C   UNL     1       2.274  -1.491  -6.452  0.00  0.00    +0.115 A 
ATOM      9  N   UNL     1       1.580  -2.531  -6.873  0.00  0.00    -0.263 NA
ATOM     10  C   UNL     1       0.324  -2.416  -7.256  0.00  0.00    +0.111 A 
ATOM     11  C   UNL     1      -0.316  -1.190  -7.228  0.00  0.00    +0.020 A 
ATOM     12  C   UNL     1       0.380  -0.076  -6.785  0.00  0.00    +0.008 A 
ENDBRANCH   3   7
TORSDOF 1
ENDMDL
MODEL 5
REMARK VINA RESULT:    -3.648      2.220      3.303
REMARK INTER + INTRA:          -4.073
REMARK INTER:                  -3.852
REMARK INTRA:                  -0.221
REMARK UNBOUND:                -0.212
REMARK  Name = Nicotine.pdb
REMARK  2 active torsions:
REMARK  status: ('A' for Active; 'I' for Inactive)
REMARK    1  A    between atoms: C_3  and  C_6
REMARK    2  A    between atoms: N_4  and  C_12
REMARK                            x       y       z     vdW  Elec       q    Type
REMARK                         _______ _______ _______ _____ _____    ______ ____
ROOT
ATOM      1  C   UNL     1       3.891   0.953  -6.659  0.00  0.00    +0.017 C 
ATOM      2  C   UNL     1       4.850   2.051  -6.127  0.00  0.00    +0.025 C 
ATOM      3  C   UNL     1       3.891   3.043  -5.436  0.00  0.00    +0.088 C 
ATOM      4  N   UNL     1       2.554   2.839  -6.022  0.00  0.00    -0.298 NA
ATOM      5  C   UNL     1       2.649   1.788  -7.057  0.00  0.00    +0.085 C 
ATOM      6  C   UNL     1       1.575   2.475  -4.989  0.00  0.00    +0.105 C 
ENDROOT
BRANCH   3   7
ATOM      7  C   UNL     1       4.351   4.457  -5.683  0.00  0.00    -0.012 A 
ATOM      8  C   UNL     1       3.459   5.414  -6.129  0.00  0.00    +0.115 A 
ATOM      9  N   UNL     1       3.853   6.653  -6.347  0.00  0.00    -0.263 NA
ATOM     10  C   UNL     1       5.102   7.028  -6.153  0.00  0.00    +0.111 A 
ATOM     11  C   UNL     1       6.050   6.126  -5.707  0.00  0.00    +0.020 A 
ATOM     12  C   UNL     1       5.671   4.815  -5.461  0.00  0.00    +0.008 A 
ENDBRANCH   3   7
TORSDOF 1
ENDMDL
MODEL 6
REMARK VINA RESULT:    -3.430      2.251      2.776
REMARK INTER + INTRA:          -3.842
REMARK INTER:                  -3.594
REMARK INTRA:                  -0.248
REMARK UNBOUND:                -0.212
REMARK  Name = Nicotine.pdb
REMARK  2 active torsions:
REMARK  status: ('A' for Active; 'I' for Inactive)
REMARK    1  A    between atoms: C_3  and  C_6
REMARK    2  A    between atoms: N_4  and  C_12
REMARK                            x       y       z     vdW  Elec       q    Type
REMARK                         _______ _______ _______ _____ _____    ______ ____
ROOT
ATOM      1  C   UNL     1       0.943   2.463  -6.796  0.00  0.00    +0.017 C 
ATOM      2  C   UNL     1       1.849   3.636  -7.255  0.00  0.00    +0.025 C 
ATOM      3  C   UNL     1       3.265   3.147  -6.884  0.00  0.00    +0.088 C 
ATOM      4  N   UNL     1       3.113   2.127  -5.830  0.00  0.00    -0.298 NA
ATOM      5  C   UNL     1       1.675   1.984  -5.518  0.00  0.00    +0.085 C 
ATOM      6  C   UNL     1       3.691   0.844  -6.251  0.00  0.00    +0.105 C 
ENDROOT
BRANCH   3   7
ATOM      7  C   UNL     1       4.087   4.299  -6.370  0.00  0.00    -0.012 A 
ATOM      8  C   UNL     1       5.430   4.130  -6.088  0.00  0.00    +0.115 A 
ATOM      9  N   UNL     1       6.157   5.134  -5.637  0.00  0.00    -0.263 NA
ATOM     10  C   UNL     1       5.639   6.330  -5.438  0.00  0.00    +0.111 A 
ATOM     11  C   UNL     1       4.303   6.575  -5.697  0.00  0.00    +0.020 A 
ATOM     12  C   UNL     1       3.509   5.545  -6.177  0.00  0.00    +0.008 A 
ENDBRANCH   3   7
TORSDOF 1
ENDMDL
MODEL 7
REMARK VINA RESULT:    -3.247      1.761      4.986
REMARK INTER + INTRA:          -3.648
REMARK INTER:                  -3.462
REMARK INTRA:                  -0.186
REMARK UNBOUND:                -0.212
REMARK  Name = Nicotine.pdb
REMARK  2 active torsions:
REMARK  status: ('A' for Active; 'I' for Inactive)
REMARK    1  A    between atoms: C_3  and  C_6
REMARK    2  A    between atoms: N_4  and  C_12
REMARK                            x       y       z     vdW  Elec       q    Type
REMARK                         _______ _______ _______ _____ _____    ______ ____
ROOT
ATOM      1  C   UNL     1       5.881   4.380  -5.168  0.00  0.00    +0.017 C 
ATOM      2  C   UNL     1       5.303   3.143  -5.905  0.00  0.00    +0.025 C 
ATOM      3  C   UNL     1       4.258   3.764  -6.856  0.00  0.00    +0.088 C 
ATOM      4  N   UNL     1       3.883   5.075  -6.299  0.00  0.00    -0.298 NA
ATOM      5  C   UNL     1       4.627   5.281  -5.038  0.00  0.00    +0.085 C 
ATOM      6  C   UNL     1       4.160   6.154  -7.256  0.00  0.00    +0.105 C 
ENDROOT
BRANCH   3   7
ATOM      7  C   UNL     1       3.045   2.873  -6.936  0.00  0.00    -0.012 A 
ATOM      8  C   UNL     1       3.167   1.508  -6.760  0.00  0.00    +0.115 A 
ATOM      9  N   UNL     1       2.110   0.722  -6.828  0.00  0.00    -0.263 NA
ATOM     10  C   UNL     1       0.905   1.200  -7.065  0.00  0.00    +0.111 A 
ATOM     11  C   UNL     1       0.705   2.555  -7.251  0.00  0.00    +0.020 A 
ATOM     12  C   UNL     1       1.791   3.413  -7.181  0.00  0.00    +0.008 A 
ENDBRANCH   3   7
TORSDOF 1
ENDMDL
MODEL 8
REMARK VINA RESULT:    -2.616      2.119      4.992
REMARK INTER + INTRA:          -2.980
REMARK INTER:                  -2.767
REMARK INTRA:                  -0.214
REMARK UNBOUND:                -0.212
REMARK  Name = Nicotine.pdb
REMARK  2 active torsions:
REMARK  status: ('A' for Active; 'I' for Inactive)
REMARK    1  A    between atoms: C_3  and  C_6
REMARK    2  A    between atoms: N_4  and  C_12
REMARK                            x       y       z     vdW  Elec       q    Type
REMARK                         _______ _______ _______ _____ _____    ______ ____
ROOT
ATOM      1  C   UNL     1       5.767   6.491  -5.573  0.00  0.00    +0.017 C 
ATOM      2  C   UNL     1       4.278   6.074  -5.706  0.00  0.00    +0.025 C 
ATOM      3  C   UNL     1       4.256   4.662  -5.083  0.00  0.00    +0.088 C 
ATOM      4  N   UNL     1       5.630   4.134  -5.149  0.00  0.00    -0.298 NA
ATOM      5  C   UNL     1       6.491   5.141  -5.805  0.00  0.00    +0.085 C 
ATOM      6  C   UNL     1       6.133   3.803  -3.809  0.00  0.00    +0.105 C 
ENDROOT
BRANCH   3   7
ATOM      7  C   UNL     1       3.325   3.772  -5.864  0.00  0.00    -0.012 A 
ATOM      8  C   UNL     1       1.970   4.044  -5.909  0.00  0.00    +0.115 A 
ATOM      9  N   UNL     1       1.149   3.270  -6.590  0.00  0.00    -0.263 NA
ATOM     10  C   UNL     1       1.580   2.213  -7.251  0.00  0.00    +0.111 A 
ATOM     11  C   UNL     1       2.921   1.878  -7.252  0.00  0.00    +0.020 A 
ATOM     12  C   UNL     1       3.816   2.672  -6.551  0.00  0.00    +0.008 A 
ENDBRANCH   3   7
TORSDOF 1
ENDMDL
