MODEL 1
REMARK VINA RESULT:     5.469      0.000      0.000
REMARK INTER + INTRA:           5.593
REMARK INTER:                   5.789
REMARK INTRA:                  -0.196
REMARK UNBOUND:                -0.196
REMARK  Name = Nicotine.pdb
REMARK  2 active torsions:
REMARK  status: ('A' for Active; 'I' for Inactive)
REMARK    1  A    between atoms: C_3  and  C_6
REMARK    2  A    between atoms: N_4  and  C_12
REMARK                            x       y       z     vdW  Elec       q    Type
REMARK                         _______ _______ _______ _____ _____    ______ ____
ROOT
ATOM      1  C   UNL     1       9.505  -1.891  -1.211  0.00  0.00    +0.017 C 
ATOM      2  C   UNL     1       8.783  -2.695  -2.325  0.00  0.00    +0.025 C 
ATOM      3  C   UNL     1       9.478  -4.072  -2.266  0.00  0.00    +0.088 C 
ATOM      4  N   UNL     1      10.794  -3.870  -1.633  0.00  0.00    -0.298 NA
ATOM      5  C   UNL     1      10.952  -2.433  -1.323  0.00  0.00    +0.085 C 
ATOM      6  C   UNL     1      10.926  -4.688  -0.420  0.00  0.00    +0.105 C 
ENDROOT
BRANCH   3   7
ATOM      7  C   UNL     1       9.656  -4.616  -3.659  0.00  0.00    -0.012 A 
ATOM      8  C   UNL     1       8.645  -5.343  -4.260  0.00  0.00    +0.115 A 
ATOM      9  N   UNL     1       8.793  -5.823  -5.479  0.00  0.00    -0.263 NA
ATOM     10  C   UNL     1       9.900  -5.633  -6.170  0.00  0.00    +0.111 A 
ATOM     11  C   UNL     1      10.953  -4.915  -5.635  0.00  0.00    +0.020 A 
ATOM     12  C   UNL     1      10.832  -4.391  -4.357  0.00  0.00    +0.008 A 
ENDBRANCH   3   7
TORSDOF 1
ENDMDL
MODEL 2
REMARK VINA RESULT:     7.345      1.406      4.593
REMARK INTER + INTRA:           7.578
REMARK INTER:                   7.774
REMARK INTRA:                  -0.196
REMARK UNBOUND:                -0.196
REMARK  Name = Nicotine.pdb
REMARK  2 active torsions:
REMARK  status: ('A' for Active; 'I' for Inactive)
REMARK    1  A    between atoms: C_3  and  C_6
REMARK    2  A    between atoms: N_4  and  C_12
REMARK                            x       y       z     vdW  Elec       q    Type
REMARK                         _______ _______ _______ _____ _____    ______ ____
ROOT
ATOM      1  C   UNL     1      10.180  -5.486  -5.028  0.00  0.00    +0.017 C 
ATOM      2  C   UNL     1      10.951  -5.124  -3.732  0.00  0.00    +0.025 C 
ATOM      3  C   UNL     1       9.820  -4.805  -2.732  0.00  0.00    +0.088 C 
ATOM      4  N   UNL     1       8.625  -4.453  -3.521  0.00  0.00    -0.298 NA
ATOM      5  C   UNL     1       8.974  -4.516  -4.956  0.00  0.00    +0.085 C 
ATOM      6  C   UNL     1       7.506  -5.352  -3.211  0.00  0.00    +0.105 C 
ENDROOT
BRANCH   3   7
ATOM      7  C   UNL     1      10.219  -3.644  -1.859  0.00  0.00    -0.012 A 
ATOM      8  C   UNL     1      10.603  -3.854  -0.548  0.00  0.00    +0.115 A 
ATOM      9  N   UNL     1      10.954  -2.844   0.223  0.00  0.00    -0.263 NA
ATOM     10  C   UNL     1      10.954  -1.602  -0.219  0.00  0.00    +0.111 A 
ATOM     11  C   UNL     1      10.583  -1.314  -1.519  0.00  0.00    +0.020 A 
ATOM     12  C   UNL     1      10.212  -2.352  -2.361  0.00  0.00    +0.008 A 
ENDBRANCH   3   7
TORSDOF 1
ENDMDL
