MODEL 1
REMARK VINA RESULT:    -4.125      0.000      0.000
REMARK INTER + INTRA:          -4.586
REMARK INTER:                  -4.366
REMARK INTRA:                  -0.220
REMARK UNBOUND:                -0.220
REMARK  Name = Nicotine.pdb
REMARK  2 active torsions:
REMARK  status: ('A' for Active; 'I' for Inactive)
REMARK    1  A    between atoms: C_3  and  C_6
REMARK    2  A    between atoms: N_4  and  C_12
REMARK                            x       y       z     vdW  Elec       q    Type
REMARK                         _______ _______ _______ _____ _____    ______ ____
ROOT
ATOM      1  C   UNL     1       5.282  -1.945   1.504  0.00  0.00    +0.017 C 
ATOM      2  C   UNL     1       4.484  -1.960   2.834  0.00  0.00    +0.025 C 
ATOM      3  C   UNL     1       3.558  -3.184   2.670  0.00  0.00    +0.088 C 
ATOM      4  N   UNL     1       3.431  -3.445   1.225  0.00  0.00    -0.298 NA
ATOM      5  C   UNL     1       4.212  -2.426   0.492  0.00  0.00    +0.085 C 
ATOM      6  C   UNL     1       3.888  -4.801   0.892  0.00  0.00    +0.105 C 
ENDROOT
BRANCH   3   7
ATOM      7  C   UNL     1       2.204  -2.886   3.260  0.00  0.00    -0.012 A 
ATOM      8  C   UNL     1       1.687  -3.684   4.263  0.00  0.00    +0.115 A 
ATOM      9  N   UNL     1       0.503  -3.429   4.785  0.00  0.00    -0.263 NA
ATOM     10  C   UNL     1      -0.231  -2.414   4.375  0.00  0.00    +0.111 A 
ATOM     11  C   UNL     1       0.220  -1.572   3.376  0.00  0.00    +0.020 A 
ATOM     12  C   UNL     1       1.463  -1.805   2.807  0.00  0.00    +0.008 A 
ENDBRANCH   3   7
TORSDOF 1
ENDMDL
MODEL 2
REMARK VINA RESULT:    -3.877      0.797      1.370
REMARK INTER + INTRA:          -4.323
REMARK INTER:                  -4.143
REMARK INTRA:                  -0.179
REMARK UNBOUND:                -0.220
REMARK  Name = Nicotine.pdb
REMARK  2 active torsions:
REMARK  status: ('A' for Active; 'I' for Inactive)
REMARK    1  A    between atoms: C_3  and  C_6
REMARK    2  A    between atoms: N_4  and  C_12
REMARK                            x       y       z     vdW  Elec       q    Type
REMARK                         _______ _______ _______ _____ _____    ______ ____
ROOT
ATOM      1  C   UNL     1       5.290  -1.961   1.534  0.00  0.00    +0.017 C 
ATOM      2  C   UNL     1       4.473  -1.964   2.853  0.00  0.00    +0.025 C 
ATOM      3  C   UNL     1       3.529  -3.172   2.673  0.00  0.00    +0.088 C 
ATOM      4  N   UNL     1       3.418  -3.429   1.226  0.00  0.00    -0.298 NA
ATOM      5  C   UNL     1       4.227  -2.423   0.506  0.00  0.00    +0.085 C 
ATOM      6  C   UNL     1       3.857  -4.792   0.898  0.00  0.00    +0.105 C 
ENDROOT
BRANCH   3   7
ATOM      7  C   UNL     1       2.172  -2.851   3.244  0.00  0.00    -0.012 A 
ATOM      8  C   UNL     1       1.438  -1.790   2.748  0.00  0.00    +0.115 A 
ATOM      9  N   UNL     1       0.249  -1.503   3.241  0.00  0.00    -0.263 NA
ATOM     10  C   UNL     1      -0.284  -2.208   4.219  0.00  0.00    +0.111 A 
ATOM     11  C   UNL     1       0.390  -3.284   4.765  0.00  0.00    +0.020 A 
ATOM     12  C   UNL     1       1.640  -3.619   4.268  0.00  0.00    +0.008 A 
ENDBRANCH   3   7
TORSDOF 1
ENDMDL
MODEL 3
REMARK VINA RESULT:    -3.628      1.070      1.487
REMARK INTER + INTRA:          -4.059
REMARK INTER:                  -3.846
REMARK INTRA:                  -0.214
REMARK UNBOUND:                -0.220
REMARK  Name = Nicotine.pdb
REMARK  2 active torsions:
REMARK  status: ('A' for Active; 'I' for Inactive)
REMARK    1  A    between atoms: C_3  and  C_6
REMARK    2  A    between atoms: N_4  and  C_12
REMARK                            x       y       z     vdW  Elec       q    Type
REMARK                         _______ _______ _______ _____ _____    ______ ____
ROOT
ATOM      1  C   UNL     1       5.237  -3.116   3.937  0.00  0.00    +0.017 C 
ATOM      2  C   UNL     1       3.852  -3.532   4.499  0.00  0.00    +0.025 C 
ATOM      3  C   UNL     1       2.954  -3.530   3.244  0.00  0.00    +0.088 C 
ATOM      4  N   UNL     1       3.599  -2.658   2.246  0.00  0.00    -0.298 NA
ATOM      5  C   UNL     1       4.837  -2.104   2.835  0.00  0.00    +0.085 C 
ATOM      6  C   UNL     1       3.888  -3.395   1.010  0.00  0.00    +0.105 C 
ENDROOT
BRANCH   3   7
ATOM      7  C   UNL     1       1.590  -2.992   3.591  0.00  0.00    -0.012 A 
ATOM      8  C   UNL     1       0.799  -3.640   4.521  0.00  0.00    +0.115 A 
ATOM      9  N   UNL     1      -0.396  -3.175   4.831  0.00  0.00    -0.263 NA
ATOM     10  C   UNL     1      -0.883  -2.085   4.271  0.00  0.00    +0.111 A 
ATOM     11  C   UNL     1      -0.149  -1.384   3.333  0.00  0.00    +0.020 A 
ATOM     12  C   UNL     1       1.114  -1.839   2.986  0.00  0.00    +0.008 A 
ENDBRANCH   3   7
TORSDOF 1
ENDMDL
MODEL 4
REMARK VINA RESULT:    -3.588      1.734      4.380
REMARK INTER + INTRA:          -4.017
REMARK INTER:                  -3.847
REMARK INTRA:                  -0.170
REMARK UNBOUND:                -0.220
REMARK  Name = Nicotine.pdb
REMARK  2 active torsions:
REMARK  status: ('A' for Active; 'I' for Inactive)
REMARK    1  A    between atoms: C_3  and  C_6
REMARK    2  A    between atoms: N_4  and  C_12
REMARK                            x       y       z     vdW  Elec       q    Type
REMARK                         _______ _______ _______ _____ _____    ______ ____
ROOT
ATOM      1  C   UNL     1       5.203  -1.428   2.546  0.00  0.00    +0.017 C 
ATOM      2  C   UNL     1       4.911  -1.897   1.096  0.00  0.00    +0.025 C 
ATOM      3  C   UNL     1       3.567  -2.642   1.235  0.00  0.00    +0.088 C 
ATOM      4  N   UNL     1       3.438  -3.049   2.646  0.00  0.00    -0.298 NA
ATOM      5  C   UNL     1       4.648  -2.613   3.375  0.00  0.00    +0.085 C 
ATOM      6  C   UNL     1       2.226  -2.481   3.250  0.00  0.00    +0.105 C 
ENDROOT
BRANCH   3   7
ATOM      7  C   UNL     1       3.560  -3.859   0.347  0.00  0.00    -0.012 A 
ATOM      8  C   UNL     1       4.173  -5.027   0.757  0.00  0.00    +0.115 A 
ATOM      9  N   UNL     1       4.172  -6.097  -0.015  0.00  0.00    -0.263 NA
ATOM     10  C   UNL     1       3.592  -6.096  -1.199  0.00  0.00    +0.111 A 
ATOM     11  C   UNL     1       2.959  -4.964  -1.676  0.00  0.00    +0.020 A 
ATOM     12  C   UNL     1       2.935  -3.822  -0.890  0.00  0.00    +0.008 A 
ENDBRANCH   3   7
TORSDOF 1
ENDMDL
MODEL 5
REMARK VINA RESULT:    -3.194      1.628      4.520
REMARK INTER + INTRA:          -3.601
REMARK INTER:                  -3.408
REMARK INTRA:                  -0.193
REMARK UNBOUND:                -0.220
REMARK  Name = Nicotine.pdb
REMARK  2 active torsions:
REMARK  status: ('A' for Active; 'I' for Inactive)
REMARK    1  A    between atoms: C_3  and  C_6
REMARK    2  A    between atoms: N_4  and  C_12
REMARK                            x       y       z     vdW  Elec       q    Type
REMARK                         _______ _______ _______ _____ _____    ______ ____
ROOT
ATOM      1  C   UNL     1       5.088  -1.569   2.866  0.00  0.00    +0.017 C 
ATOM      2  C   UNL     1       4.907  -1.981   1.382  0.00  0.00    +0.025 C 
ATOM      3  C   UNL     1       3.504  -2.624   1.369  0.00  0.00    +0.088 C 
ATOM      4  N   UNL     1       3.207  -3.052   2.748  0.00  0.00    -0.298 NA
ATOM      5  C   UNL     1       4.369  -2.727   3.602  0.00  0.00    +0.085 C 
ATOM      6  C   UNL     1       1.987  -2.407   3.249  0.00  0.00    +0.105 C 
ENDROOT
BRANCH   3   7
ATOM      7  C   UNL     1       3.495  -3.816   0.447  0.00  0.00    -0.012 A 
ATOM      8  C   UNL     1       2.956  -3.714  -0.821  0.00  0.00    +0.115 A 
ATOM      9  N   UNL     1       2.945  -4.753  -1.635  0.00  0.00    -0.263 NA
ATOM     10  C   UNL     1       3.441  -5.920  -1.275  0.00  0.00    +0.111 A 
ATOM     11  C   UNL     1       3.997  -6.097  -0.022  0.00  0.00    +0.020 A 
ATOM     12  C   UNL     1       4.032  -5.026   0.858  0.00  0.00    +0.008 A 
ENDBRANCH   3   7
TORSDOF 1
ENDMDL
MODEL 6
REMARK VINA RESULT:    -1.891      2.938      4.581
REMARK INTER + INTRA:          -2.221
REMARK INTER:                  -1.989
REMARK INTRA:                  -0.233
REMARK UNBOUND:                -0.220
REMARK  Name = Nicotine.pdb
REMARK  2 active torsions:
REMARK  status: ('A' for Active; 'I' for Inactive)
REMARK    1  A    between atoms: C_3  and  C_6
REMARK    2  A    between atoms: N_4  and  C_12
REMARK                            x       y       z     vdW  Elec       q    Type
REMARK                         _______ _______ _______ _____ _____    ______ ____
ROOT
ATOM      1  C   UNL     1       3.278  -4.719  -1.180  0.00  0.00    +0.017 C 
ATOM      2  C   UNL     1       3.594  -5.529   0.105  0.00  0.00    +0.025 C 
ATOM      3  C   UNL     1       3.566  -4.451   1.210  0.00  0.00    +0.088 C 
ATOM      4  N   UNL     1       3.802  -3.151   0.558  0.00  0.00    -0.298 NA
ATOM      5  C   UNL     1       3.998  -3.378  -0.889  0.00  0.00    +0.085 C 
ATOM      6  C   UNL     1       2.684  -2.229   0.800  0.00  0.00    +0.105 C 
ENDROOT
BRANCH   3   7
ATOM      7  C   UNL     1       4.651  -4.724   2.220  0.00  0.00    -0.012 A 
ATOM      8  C   UNL     1       4.899  -3.826   3.240  0.00  0.00    +0.115 A 
ATOM      9  N   UNL     1       5.846  -4.057   4.128  0.00  0.00    -0.263 NA
ATOM     10  C   UNL     1       6.591  -5.144   4.079  0.00  0.00    +0.111 A 
ATOM     11  C   UNL     1       6.401  -6.088   3.087  0.00  0.00    +0.020 A 
ATOM     12  C   UNL     1       5.410  -5.882   2.140  0.00  0.00    +0.008 A 
ENDBRANCH   3   7
TORSDOF 1
ENDMDL
MODEL 7
REMARK VINA RESULT:    -1.653      2.349      4.542
REMARK INTER + INTRA:          -1.969
REMARK INTER:                  -1.756
REMARK INTRA:                  -0.213
REMARK UNBOUND:                -0.220
REMARK  Name = Nicotine.pdb
REMARK  2 active torsions:
REMARK  status: ('A' for Active; 'I' for Inactive)
REMARK    1  A    between atoms: C_3  and  C_6
REMARK    2  A    between atoms: N_4  and  C_12
REMARK                            x       y       z     vdW  Elec       q    Type
REMARK                         _______ _______ _______ _____ _____    ______ ____
ROOT
ATOM      1  C   UNL     1       3.623  -1.908   3.618  0.00  0.00    +0.017 C 
ATOM      2  C   UNL     1       2.813  -2.785   2.627  0.00  0.00    +0.025 C 
ATOM      3  C   UNL     1       3.745  -3.992   2.389  0.00  0.00    +0.088 C 
ATOM      4  N   UNL     1       5.114  -3.558   2.719  0.00  0.00    -0.298 NA
ATOM      5  C   UNL     1       5.073  -2.137   3.124  0.00  0.00    +0.085 C 
ATOM      6  C   UNL     1       5.690  -4.393   3.782  0.00  0.00    +0.105 C 
ENDROOT
BRANCH   3   7
ATOM      7  C   UNL     1       3.674  -4.418   0.946  0.00  0.00    -0.012 A 
ATOM      8  C   UNL     1       3.463  -3.482  -0.049  0.00  0.00    +0.115 A 
ATOM      9  N   UNL     1       3.400  -3.846  -1.316  0.00  0.00    -0.263 NA
ATOM     10  C   UNL     1       3.534  -5.106  -1.682  0.00  0.00    +0.111 A 
ATOM     11  C   UNL     1       3.749  -6.097  -0.743  0.00  0.00    +0.020 A 
ATOM     12  C   UNL     1       3.826  -5.751   0.598  0.00  0.00    +0.008 A 
ENDBRANCH   3   7
TORSDOF 1
ENDMDL
