MODEL 1
REMARK VINA RESULT:    -5.082      0.000      0.000
REMARK INTER + INTRA:          -5.593
REMARK INTER:                  -5.379
REMARK INTRA:                  -0.214
REMARK UNBOUND:                -0.214
REMARK  Name = Nicotine.pdb
REMARK  2 active torsions:
REMARK  status: ('A' for Active; 'I' for Inactive)
REMARK    1  A    between atoms: C_3  and  C_6
REMARK    2  A    between atoms: N_4  and  C_12
REMARK                            x       y       z     vdW  Elec       q    Type
REMARK                         _______ _______ _______ _____ _____    ______ ____
ROOT
ATOM      1  C   UNL     1      -1.319   6.297  -5.032  0.00  0.00    +0.017 C 
ATOM      2  C   UNL     1      -0.780   5.060  -4.265  0.00  0.00    +0.025 C 
ATOM      3  C   UNL     1      -1.982   4.640  -3.394  0.00  0.00    +0.088 C 
ATOM      4  N   UNL     1      -2.850   5.822  -3.247  0.00  0.00    -0.298 NA
ATOM      5  C   UNL     1      -2.227   6.956  -3.963  0.00  0.00    +0.085 C 
ATOM      6  C   UNL     1      -4.200   5.553  -3.759  0.00  0.00    +0.105 C 
ENDROOT
BRANCH   3   7
ATOM      7  C   UNL     1      -1.501   4.184  -2.041  0.00  0.00    -0.012 A 
ATOM      8  C   UNL     1      -0.713   3.054  -1.924  0.00  0.00    +0.115 A 
ATOM      9  N   UNL     1      -0.287   2.648  -0.744  0.00  0.00    -0.263 NA
ATOM     10  C   UNL     1      -0.593   3.295   0.363  0.00  0.00    +0.111 A 
ATOM     11  C   UNL     1      -1.376   4.434   0.325  0.00  0.00    +0.020 A 
ATOM     12  C   UNL     1      -1.838   4.894  -0.899  0.00  0.00    +0.008 A 
ENDBRANCH   3   7
TORSDOF 1
ENDMDL
MODEL 2
REMARK VINA RESULT:    -5.034      1.473      4.576
REMARK INTER + INTRA:          -5.542
REMARK INTER:                  -5.318
REMARK INTRA:                  -0.224
REMARK UNBOUND:                -0.214
REMARK  Name = Nicotine.pdb
REMARK  2 active torsions:
REMARK  status: ('A' for Active; 'I' for Inactive)
REMARK    1  A    between atoms: C_3  and  C_6
REMARK    2  A    between atoms: N_4  and  C_12
REMARK                            x       y       z     vdW  Elec       q    Type
REMARK                         _______ _______ _______ _____ _____    ______ ____
ROOT
ATOM      1  C   UNL     1      -0.768   2.525  -2.195  0.00  0.00    +0.017 C 
ATOM      2  C   UNL     1      -0.704   3.774  -3.114  0.00  0.00    +0.025 C 
ATOM      3  C   UNL     1      -1.676   4.759  -2.429  0.00  0.00    +0.088 C 
ATOM      4  N   UNL     1      -2.597   3.959  -1.601  0.00  0.00    -0.298 NA
ATOM      5  C   UNL     1      -2.256   2.530  -1.763  0.00  0.00    +0.085 C 
ATOM      6  C   UNL     1      -2.523   4.362  -0.191  0.00  0.00    +0.105 C 
ENDROOT
BRANCH   3   7
ATOM      7  C   UNL     1      -2.452   5.521  -3.471  0.00  0.00    -0.012 A 
ATOM      8  C   UNL     1      -3.833   5.489  -3.476  0.00  0.00    +0.115 A 
ATOM      9  N   UNL     1      -4.520   6.154  -4.385  0.00  0.00    -0.263 NA
ATOM     10  C   UNL     1      -3.924   6.870  -5.317  0.00  0.00    +0.111 A 
ATOM     11  C   UNL     1      -2.545   6.950  -5.374  0.00  0.00    +0.020 A 
ATOM     12  C   UNL     1      -1.790   6.269  -4.433  0.00  0.00    +0.008 A 
ENDBRANCH   3   7
TORSDOF 1
ENDMDL
MODEL 3
REMARK VINA RESULT:    -4.767      2.067      3.373
REMARK INTER + INTRA:          -5.260
REMARK INTER:                  -5.065
REMARK INTRA:                  -0.195
REMARK UNBOUND:                -0.214
REMARK  Name = Nicotine.pdb
REMARK  2 active torsions:
REMARK  status: ('A' for Active; 'I' for Inactive)
REMARK    1  A    between atoms: C_3  and  C_6
REMARK    2  A    between atoms: N_4  and  C_12
REMARK                            x       y       z     vdW  Elec       q    Type
REMARK                         _______ _______ _______ _____ _____    ______ ____
ROOT
ATOM      1  C   UNL     1      -1.142   2.183  -2.767  0.00  0.00    +0.017 C 
ATOM      2  C   UNL     1      -1.449   1.871  -1.278  0.00  0.00    +0.025 C 
ATOM      3  C   UNL     1      -2.024   3.204  -0.756  0.00  0.00    +0.088 C 
ATOM      4  N   UNL     1      -1.544   4.270  -1.654  0.00  0.00    -0.298 NA
ATOM      5  C   UNL     1      -0.681   3.660  -2.688  0.00  0.00    +0.085 C 
ATOM      6  C   UNL     1      -2.668   4.992  -2.264  0.00  0.00    +0.105 C 
ENDROOT
BRANCH   3   7
ATOM      7  C   UNL     1      -1.538   3.457   0.648  0.00  0.00    -0.012 A 
ATOM      8  C   UNL     1      -2.242   2.966   1.731  0.00  0.00    +0.115 A 
ATOM      9  N   UNL     1      -1.824   3.183   2.963  0.00  0.00    -0.263 NA
ATOM     10  C   UNL     1      -0.727   3.871   3.211  0.00  0.00    +0.111 A 
ATOM     11  C   UNL     1       0.029   4.393   2.178  0.00  0.00    +0.020 A 
ATOM     12  C   UNL     1      -0.377   4.181   0.870  0.00  0.00    +0.008 A 
ENDBRANCH   3   7
TORSDOF 1
ENDMDL
MODEL 4
REMARK VINA RESULT:    -4.762      1.966      3.128
REMARK INTER + INTRA:          -5.254
REMARK INTER:                  -5.072
REMARK INTRA:                  -0.183
REMARK UNBOUND:                -0.214
REMARK  Name = Nicotine.pdb
REMARK  2 active torsions:
REMARK  status: ('A' for Active; 'I' for Inactive)
REMARK    1  A    between atoms: C_3  and  C_6
REMARK    2  A    between atoms: N_4  and  C_12
REMARK                            x       y       z     vdW  Elec       q    Type
REMARK                         _______ _______ _______ _____ _____    ______ ____
ROOT
ATOM      1  C   UNL     1      -3.540   4.837  -2.118  0.00  0.00    +0.017 C 
ATOM      2  C   UNL     1      -2.853   5.054  -0.744  0.00  0.00    +0.025 C 
ATOM      3  C   UNL     1      -1.464   4.412  -0.945  0.00  0.00    +0.088 C 
ATOM      4  N   UNL     1      -1.584   3.449  -2.055  0.00  0.00    -0.298 NA
ATOM      5  C   UNL     1      -2.985   3.450  -2.529  0.00  0.00    +0.085 C 
ATOM      6  C   UNL     1      -0.658   3.783  -3.145  0.00  0.00    +0.105 C 
ENDROOT
BRANCH   3   7
ATOM      7  C   UNL     1      -1.043   3.696   0.312  0.00  0.00    -0.012 A 
ATOM      8  C   UNL     1      -1.294   2.346   0.466  0.00  0.00    +0.115 A 
ATOM      9  N   UNL     1      -0.929   1.712   1.563  0.00  0.00    -0.263 NA
ATOM     10  C   UNL     1      -0.316   2.333   2.551  0.00  0.00    +0.111 A 
ATOM     11  C   UNL     1      -0.031   3.683   2.469  0.00  0.00    +0.020 A 
ATOM     12  C   UNL     1      -0.395   4.382   1.328  0.00  0.00    +0.008 A 
ENDBRANCH   3   7
TORSDOF 1
ENDMDL
MODEL 5
REMARK VINA RESULT:    -4.616      1.841      5.445
REMARK INTER + INTRA:          -5.100
REMARK INTER:                  -4.886
REMARK INTRA:                  -0.214
REMARK UNBOUND:                -0.214
REMARK  Name = Nicotine.pdb
REMARK  2 active torsions:
REMARK  status: ('A' for Active; 'I' for Inactive)
REMARK    1  A    between atoms: C_3  and  C_6
REMARK    2  A    between atoms: N_4  and  C_12
REMARK                            x       y       z     vdW  Elec       q    Type
REMARK                         _______ _______ _______ _____ _____    ______ ____
ROOT
ATOM      1  C   UNL     1      -1.491   3.433   3.264  0.00  0.00    +0.017 C 
ATOM      2  C   UNL     1      -2.148   3.117   1.895  0.00  0.00    +0.025 C 
ATOM      3  C   UNL     1      -0.936   3.019   0.943  0.00  0.00    +0.088 C 
ATOM      4  N   UNL     1       0.170   3.767   1.567  0.00  0.00    -0.298 NA
ATOM      5  C   UNL     1      -0.309   4.341   2.842  0.00  0.00    +0.085 C 
ATOM      6  C   UNL     1       1.336   2.900   1.783  0.00  0.00    +0.105 C 
ENDROOT
BRANCH   3   7
ATOM      7  C   UNL     1      -1.282   3.628  -0.391  0.00  0.00    -0.012 A 
ATOM      8  C   UNL     1      -2.191   4.666  -0.471  0.00  0.00    +0.115 A 
ATOM      9  N   UNL     1      -2.498   5.206  -1.634  0.00  0.00    -0.263 NA
ATOM     10  C   UNL     1      -1.958   4.782  -2.759  0.00  0.00    +0.111 A 
ATOM     11  C   UNL     1      -1.040   3.748  -2.758  0.00  0.00    +0.020 A 
ATOM     12  C   UNL     1      -0.688   3.160  -1.553  0.00  0.00    +0.008 A 
ENDBRANCH   3   7
TORSDOF 1
ENDMDL
MODEL 6
REMARK VINA RESULT:    -4.351      1.758      5.090
REMARK INTER + INTRA:          -4.820
REMARK INTER:                  -4.592
REMARK INTRA:                  -0.228
REMARK UNBOUND:                -0.214
REMARK  Name = Nicotine.pdb
REMARK  2 active torsions:
REMARK  status: ('A' for Active; 'I' for Inactive)
REMARK    1  A    between atoms: C_3  and  C_6
REMARK    2  A    between atoms: N_4  and  C_12
REMARK                            x       y       z     vdW  Elec       q    Type
REMARK                         _______ _______ _______ _____ _____    ______ ____
ROOT
ATOM      1  C   UNL     1      -2.030   2.442   2.519  0.00  0.00    +0.017 C 
ATOM      2  C   UNL     1      -2.360   2.354   1.005  0.00  0.00    +0.025 C 
ATOM      3  C   UNL     1      -1.070   2.876   0.337  0.00  0.00    +0.088 C 
ATOM      4  N   UNL     1      -0.362   3.697   1.336  0.00  0.00    -0.298 NA
ATOM      5  C   UNL     1      -1.166   3.727   2.576  0.00  0.00    +0.085 C 
ATOM      6  C   UNL     1       0.984   3.170   1.593  0.00  0.00    +0.105 C 
ENDROOT
BRANCH   3   7
ATOM      7  C   UNL     1      -1.418   3.715  -0.865  0.00  0.00    -0.012 A 
ATOM      8  C   UNL     1      -0.858   3.436  -2.097  0.00  0.00    +0.115 A 
ATOM      9  N   UNL     1      -1.157   4.165  -3.155  0.00  0.00    -0.263 NA
ATOM     10  C   UNL     1      -1.994   5.181  -3.082  0.00  0.00    +0.111 A 
ATOM     11  C   UNL     1      -2.593   5.519  -1.883  0.00  0.00    +0.020 A 
ATOM     12  C   UNL     1      -2.307   4.772  -0.750  0.00  0.00    +0.008 A 
ENDBRANCH   3   7
TORSDOF 1
ENDMDL
MODEL 7
REMARK VINA RESULT:    -3.853     11.039     12.894
REMARK INTER + INTRA:          -4.292
REMARK INTER:                  -4.060
REMARK INTRA:                  -0.231
REMARK UNBOUND:                -0.214
REMARK  Name = Nicotine.pdb
REMARK  2 active torsions:
REMARK  status: ('A' for Active; 'I' for Inactive)
REMARK    1  A    between atoms: C_3  and  C_6
REMARK    2  A    between atoms: N_4  and  C_12
REMARK                            x       y       z     vdW  Elec       q    Type
REMARK                         _______ _______ _______ _____ _____    ______ ____
ROOT
ATOM      1  C   UNL     1       6.651   3.960   5.394  0.00  0.00    +0.017 C 
ATOM      2  C   UNL     1       7.834   3.465   4.521  0.00  0.00    +0.025 C 
ATOM      3  C   UNL     1       7.476   1.988   4.256  0.00  0.00    +0.088 C 
ATOM      4  N   UNL     1       6.551   1.564   5.323  0.00  0.00    -0.298 NA
ATOM      5  C   UNL     1       6.342   2.702   6.244  0.00  0.00    +0.085 C 
ATOM      6  C   UNL     1       5.276   1.100   4.761  0.00  0.00    +0.105 C 
ENDROOT
BRANCH   3   7
ATOM      7  C   UNL     1       8.724   1.143   4.293  0.00  0.00    -0.012 A 
ATOM      8  C   UNL     1       9.013   0.278   3.255  0.00  0.00    +0.115 A 
ATOM      9  N   UNL     1      10.102  -0.465   3.280  0.00  0.00    -0.263 NA
ATOM     10  C   UNL     1      10.954  -0.413   4.285  0.00  0.00    +0.111 A 
ATOM     11  C   UNL     1      10.731   0.430   5.358  0.00  0.00    +0.020 A 
ATOM     12  C   UNL     1       9.599   1.229   5.365  0.00  0.00    +0.008 A 
ENDBRANCH   3   7
TORSDOF 1
ENDMDL
MODEL 8
REMARK VINA RESULT:    -3.829     12.002     12.719
REMARK INTER + INTRA:          -4.267
REMARK INTER:                  -4.051
REMARK INTRA:                  -0.216
REMARK UNBOUND:                -0.214
REMARK  Name = Nicotine.pdb
REMARK  2 active torsions:
REMARK  status: ('A' for Active; 'I' for Inactive)
REMARK    1  A    between atoms: C_3  and  C_6
REMARK    2  A    between atoms: N_4  and  C_12
REMARK                            x       y       z     vdW  Elec       q    Type
REMARK                         _______ _______ _______ _____ _____    ______ ____
ROOT
ATOM      1  C   UNL     1       6.450  -5.622  -3.632  0.00  0.00    +0.017 C 
ATOM      2  C   UNL     1       6.917  -4.224  -3.148  0.00  0.00    +0.025 C 
ATOM      3  C   UNL     1       6.594  -3.314  -4.352  0.00  0.00    +0.088 C 
ATOM      4  N   UNL     1       6.523  -4.176  -5.545  0.00  0.00    -0.298 NA
ATOM      5  C   UNL     1       6.811  -5.568  -5.138  0.00  0.00    +0.085 C 
ATOM      6  C   UNL     1       5.207  -4.078  -6.189  0.00  0.00    +0.105 C 
ENDROOT
BRANCH   3   7
ATOM      7  C   UNL     1       7.682  -2.286  -4.524  0.00  0.00    -0.012 A 
ATOM      8  C   UNL     1       8.044  -1.856  -5.787  0.00  0.00    +0.115 A 
ATOM      9  N   UNL     1       8.995  -0.957  -5.947  0.00  0.00    -0.263 NA
ATOM     10  C   UNL     1       9.636  -0.436  -4.919  0.00  0.00    +0.111 A 
ATOM     11  C   UNL     1       9.328  -0.817  -3.626  0.00  0.00    +0.020 A 
ATOM     12  C   UNL     1       8.330  -1.756  -3.419  0.00  0.00    +0.008 A 
ENDBRANCH   3   7
TORSDOF 1
ENDMDL
MODEL 9
REMARK VINA RESULT:    -3.589     11.537     12.616
REMARK INTER + INTRA:          -4.013
REMARK INTER:                  -3.798
REMARK INTRA:                  -0.215
REMARK UNBOUND:                -0.214
REMARK  Name = Nicotine.pdb
REMARK  2 active torsions:
REMARK  status: ('A' for Active; 'I' for Inactive)
REMARK    1  A    between atoms: C_3  and  C_6
REMARK    2  A    between atoms: N_4  and  C_12
REMARK                            x       y       z     vdW  Elec       q    Type
REMARK                         _______ _______ _______ _____ _____    ______ ____
ROOT
ATOM      1  C   UNL     1       6.250   0.309   5.460  0.00  0.00    +0.017 C 
ATOM      2  C   UNL     1       5.914   1.788   5.135  0.00  0.00    +0.025 C 
ATOM      3  C   UNL     1       7.200   2.293   4.447  0.00  0.00    +0.088 C 
ATOM      4  N   UNL     1       8.300   1.408   4.873  0.00  0.00    -0.298 NA
ATOM      5  C   UNL     1       7.757   0.399   5.808  0.00  0.00    +0.085 C 
ATOM      6  C   UNL     1       8.937   0.765   3.717  0.00  0.00    +0.105 C 
ENDROOT
BRANCH   3   7
ATOM      7  C   UNL     1       7.487   3.709   4.872  0.00  0.00    -0.012 A 
ATOM      8  C   UNL     1       8.785   4.183   4.896  0.00  0.00    +0.115 A 
ATOM      9  N   UNL     1       9.044   5.422   5.267  0.00  0.00    -0.263 NA
ATOM     10  C   UNL     1       8.086   6.253   5.628  0.00  0.00    +0.111 A 
ATOM     11  C   UNL     1       6.764   5.850   5.629  0.00  0.00    +0.020 A 
ATOM     12  C   UNL     1       6.452   4.556   5.240  0.00  0.00    +0.008 A 
ENDBRANCH   3   7
TORSDOF 1
ENDMDL
MODEL 10
REMARK VINA RESULT:    -3.553      2.815      6.104
REMARK INTER + INTRA:          -3.975
REMARK INTER:                  -3.747
REMARK INTRA:                  -0.228
REMARK UNBOUND:                -0.214
REMARK  Name = Nicotine.pdb
REMARK  2 active torsions:
REMARK  status: ('A' for Active; 'I' for Inactive)
REMARK    1  A    between atoms: C_3  and  C_6
REMARK    2  A    between atoms: N_4  and  C_12
REMARK                            x       y       z     vdW  Elec       q    Type
REMARK                         _______ _______ _______ _____ _____    ______ ____
ROOT
ATOM      1  C   UNL     1      -3.107   2.994   4.240  0.00  0.00    +0.017 C 
ATOM      2  C   UNL     1      -3.432   2.777   2.739  0.00  0.00    +0.025 C 
ATOM      3  C   UNL     1      -2.135   2.145   2.191  0.00  0.00    +0.088 C 
ATOM      4  N   UNL     1      -1.045   2.515   3.112  0.00  0.00    -0.298 NA
ATOM      5  C   UNL     1      -1.604   3.365   4.185  0.00  0.00    +0.085 C 
ATOM      6  C   UNL     1      -0.397   1.321   3.669  0.00  0.00    +0.105 C 
ENDROOT
BRANCH   3   7
ATOM      7  C   UNL     1      -1.846   2.680   0.812  0.00  0.00    -0.012 A 
ATOM      8  C   UNL     1      -1.641   1.814  -0.245  0.00  0.00    +0.115 A 
ATOM      9  N   UNL     1      -1.388   2.274  -1.455  0.00  0.00    -0.263 NA
ATOM     10  C   UNL     1      -1.321   3.567  -1.705  0.00  0.00    +0.111 A 
ATOM     11  C   UNL     1      -1.516   4.493  -0.697  0.00  0.00    +0.020 A 
ATOM     12  C   UNL     1      -1.789   4.047   0.586  0.00  0.00    +0.008 A 
ENDBRANCH   3   7
TORSDOF 1
ENDMDL
