MODEL 1
REMARK VINA RESULT:     0.000      0.000      0.000
REMARK INTER + INTRA:          -0.256
REMARK INTER:                   0.000
REMARK INTRA:                  -0.256
REMARK UNBOUND:                -0.256
REMARK  Name = Nicotine.pdb
REMARK  2 active torsions:
REMARK  status: ('A' for Active; 'I' for Inactive)
REMARK    1  A    between atoms: C_3  and  C_6
REMARK    2  A    between atoms: N_4  and  C_12
REMARK                            x       y       z     vdW  Elec       q    Type
REMARK                         _______ _______ _______ _____ _____    ______ ____
ROOT
ATOM      1  C   UNL     1       6.102   0.926  -0.148  0.00  0.00    +0.017 C 
ATOM      2  C   UNL     1       5.334   1.336   1.136  0.00  0.00    +0.025 C 
ATOM      3  C   UNL     1       6.443   1.368   2.209  0.00  0.00    +0.088 C 
ATOM      4  N   UNL     1       7.544   0.515   1.725  0.00  0.00    -0.298 NA
ATOM      5  C   UNL     1       7.155  -0.059   0.419  0.00  0.00    +0.085 C 
ATOM      6  C   UNL     1       8.793   1.280   1.614  0.00  0.00    +0.105 C 
ENDROOT
BRANCH   3   7
ATOM      7  C   UNL     1       5.911   0.831   3.512  0.00  0.00    -0.012 A 
ATOM      8  C   UNL     1       6.532   1.149   4.705  0.00  0.00    +0.115 A 
ATOM      9  N   UNL     1       6.072   0.683   5.850  0.00  0.00    -0.263 NA
ATOM     10  C   UNL     1       5.012  -0.099   5.905  0.00  0.00    +0.111 A 
ATOM     11  C   UNL     1       4.339  -0.460   4.752  0.00  0.00    +0.020 A 
ATOM     12  C   UNL     1       4.790   0.015   3.530  0.00  0.00    +0.008 A 
ENDBRANCH   3   7
TORSDOF 1
ENDMDL
MODEL 2
REMARK VINA RESULT:     0.000      4.211      4.820
REMARK INTER + INTRA:          -0.256
REMARK INTER:                   0.000
REMARK INTRA:                  -0.256
REMARK UNBOUND:                -0.256
REMARK  Name = Nicotine.pdb
REMARK  2 active torsions:
REMARK  status: ('A' for Active; 'I' for Inactive)
REMARK    1  A    between atoms: C_3  and  C_6
REMARK    2  A    between atoms: N_4  and  C_12
REMARK                            x       y       z     vdW  Elec       q    Type
REMARK                         _______ _______ _______ _____ _____    ______ ____
ROOT
ATOM      1  C   UNL     1       3.642  -2.939   1.285  0.00  0.00    +0.017 C 
ATOM      2  C   UNL     1       4.932  -2.210   1.748  0.00  0.00    +0.025 C 
ATOM      3  C   UNL     1       5.860  -3.374   2.156  0.00  0.00    +0.088 C 
ATOM      4  N   UNL     1       5.001  -4.535   2.450  0.00  0.00    -0.298 NA
ATOM      5  C   UNL     1       3.589  -4.136   2.267  0.00  0.00    +0.085 C 
ATOM      6  C   UNL     1       5.342  -5.675   1.589  0.00  0.00    +0.105 C 
ENDROOT
BRANCH   3   7
ATOM      7  C   UNL     1       6.648  -2.994   3.383  0.00  0.00    -0.012 A 
ATOM      8  C   UNL     1       7.828  -3.648   3.685  0.00  0.00    +0.115 A 
ATOM      9  N   UNL     1       8.524  -3.322   4.757  0.00  0.00    -0.263 NA
ATOM     10  C   UNL     1       8.128  -2.368   5.577  0.00  0.00    +0.111 A 
ATOM     11  C   UNL     1       6.959  -1.670   5.339  0.00  0.00    +0.020 A 
ATOM     12  C   UNL     1       6.203  -1.982   4.219  0.00  0.00    +0.008 A 
ENDBRANCH   3   7
TORSDOF 1
ENDMDL
MODEL 3
REMARK VINA RESULT:     0.000      4.168      5.629
REMARK INTER + INTRA:          -0.256
REMARK INTER:                   0.000
REMARK INTRA:                  -0.256
REMARK UNBOUND:                -0.256
REMARK  Name = Nicotine.pdb
REMARK  2 active torsions:
REMARK  status: ('A' for Active; 'I' for Inactive)
REMARK    1  A    between atoms: C_3  and  C_6
REMARK    2  A    between atoms: N_4  and  C_12
REMARK                            x       y       z     vdW  Elec       q    Type
REMARK                         _______ _______ _______ _____ _____    ______ ____
ROOT
ATOM      1  C   UNL     1       1.234   4.859   0.374  0.00  0.00    +0.017 C 
ATOM      2  C   UNL     1       2.557   4.058   0.253  0.00  0.00    +0.025 C 
ATOM      3  C   UNL     1       2.804   3.576   1.699  0.00  0.00    +0.088 C 
ATOM      4  N   UNL     1       2.059   4.480   2.594  0.00  0.00    -0.298 NA
ATOM      5  C   UNL     1       1.388   5.509   1.772  0.00  0.00    +0.085 C 
ATOM      6  C   UNL     1       1.087   3.735   3.405  0.00  0.00    +0.105 C 
ENDROOT
BRANCH   3   7
ATOM      7  C   UNL     1       4.276   3.637   2.015  0.00  0.00    -0.012 A 
ATOM      8  C   UNL     1       4.803   2.873   3.039  0.00  0.00    +0.115 A 
ATOM      9  N   UNL     1       6.090   2.920   3.323  0.00  0.00    -0.263 NA
ATOM     10  C   UNL     1       6.920   3.690   2.648  0.00  0.00    +0.111 A 
ATOM     11  C   UNL     1       6.466   4.482   1.609  0.00  0.00    +0.020 A 
ATOM     12  C   UNL     1       5.119   4.455   1.279  0.00  0.00    +0.008 A 
ENDBRANCH   3   7
TORSDOF 1
ENDMDL
MODEL 4
REMARK VINA RESULT:     0.000      2.429      4.536
REMARK INTER + INTRA:          -0.256
REMARK INTER:                   0.000
REMARK INTRA:                  -0.256
REMARK UNBOUND:                -0.256
REMARK  Name = Nicotine.pdb
REMARK  2 active torsions:
REMARK  status: ('A' for Active; 'I' for Inactive)
REMARK    1  A    between atoms: C_3  and  C_6
REMARK    2  A    between atoms: N_4  and  C_12
REMARK                            x       y       z     vdW  Elec       q    Type
REMARK                         _______ _______ _______ _____ _____    ______ ____
ROOT
ATOM      1  C   UNL     1       4.232   2.799   5.184  0.00  0.00    +0.017 C 
ATOM      2  C   UNL     1       5.547   2.107   4.739  0.00  0.00    +0.025 C 
ATOM      3  C   UNL     1       6.015   2.980   3.555  0.00  0.00    +0.088 C 
ATOM      4  N   UNL     1       4.830   3.685   3.036  0.00  0.00    -0.298 NA
ATOM      5  C   UNL     1       3.651   3.269   3.827  0.00  0.00    +0.085 C 
ATOM      6  C   UNL     1       5.015   5.140   3.093  0.00  0.00    +0.105 C 
ENDROOT
BRANCH   3   7
ATOM      7  C   UNL     1       6.607   2.108   2.478  0.00  0.00    -0.012 A 
ATOM      8  C   UNL     1       7.473   2.643   1.543  0.00  0.00    +0.115 A 
ATOM      9  N   UNL     1       7.996   1.886   0.597  0.00  0.00    -0.263 NA
ATOM     10  C   UNL     1       7.716   0.602   0.503  0.00  0.00    +0.111 A 
ATOM     11  C   UNL     1       6.858  -0.003   1.403  0.00  0.00    +0.020 A 
ATOM     12  C   UNL     1       6.294   0.759   2.415  0.00  0.00    +0.008 A 
ENDBRANCH   3   7
TORSDOF 1
ENDMDL
MODEL 5
REMARK VINA RESULT:     0.000      2.150      4.265
REMARK INTER + INTRA:          -0.256
REMARK INTER:                   0.000
REMARK INTRA:                  -0.256
REMARK UNBOUND:                -0.256
REMARK  Name = Nicotine.pdb
REMARK  2 active torsions:
REMARK  status: ('A' for Active; 'I' for Inactive)
REMARK    1  A    between atoms: C_3  and  C_6
REMARK    2  A    between atoms: N_4  and  C_12
REMARK                            x       y       z     vdW  Elec       q    Type
REMARK                         _______ _______ _______ _____ _____    ______ ____
ROOT
ATOM      1  C   UNL     1       4.826   1.571   4.957  0.00  0.00    +0.017 C 
ATOM      2  C   UNL     1       5.803   0.583   4.266  0.00  0.00    +0.025 C 
ATOM      3  C   UNL     1       5.797   1.060   2.798  0.00  0.00    +0.088 C 
ATOM      4  N   UNL     1       4.546   1.810   2.587  0.00  0.00    -0.298 NA
ATOM      5  C   UNL     1       3.771   1.796   3.846  0.00  0.00    +0.085 C 
ATOM      6  C   UNL     1       4.822   3.185   2.153  0.00  0.00    +0.105 C 
ENDROOT
BRANCH   3   7
ATOM      7  C   UNL     1       5.846  -0.129   1.873  0.00  0.00    -0.012 A 
ATOM      8  C   UNL     1       6.285   0.016   0.571  0.00  0.00    +0.115 A 
ATOM      9  N   UNL     1       6.331  -1.019  -0.245  0.00  0.00    -0.263 NA
ATOM     10  C   UNL     1       5.964  -2.224   0.143  0.00  0.00    +0.111 A 
ATOM     11  C   UNL     1       5.514  -2.446   1.431  0.00  0.00    +0.020 A 
ATOM     12  C   UNL     1       5.457  -1.383   2.319  0.00  0.00    +0.008 A 
ENDBRANCH   3   7
TORSDOF 1
ENDMDL
MODEL 6
REMARK VINA RESULT:     0.000      2.014      4.435
REMARK INTER + INTRA:          -0.256
REMARK INTER:                   0.000
REMARK INTRA:                  -0.256
REMARK UNBOUND:                -0.256
REMARK  Name = Nicotine.pdb
REMARK  2 active torsions:
REMARK  status: ('A' for Active; 'I' for Inactive)
REMARK    1  A    between atoms: C_3  and  C_6
REMARK    2  A    between atoms: N_4  and  C_12
REMARK                            x       y       z     vdW  Elec       q    Type
REMARK                         _______ _______ _______ _____ _____    ______ ____
ROOT
ATOM      1  C   UNL     1       7.041   1.680   5.119  0.00  0.00    +0.017 C 
ATOM      2  C   UNL     1       6.948   1.649   3.571  0.00  0.00    +0.025 C 
ATOM      3  C   UNL     1       5.426   1.634   3.315  0.00  0.00    +0.088 C 
ATOM      4  N   UNL     1       4.782   1.121   4.538  0.00  0.00    -0.298 NA
ATOM      5  C   UNL     1       5.835   0.796   5.523  0.00  0.00    +0.085 C 
ATOM      6  C   UNL     1       3.833   2.100   5.084  0.00  0.00    +0.105 C 
ENDROOT
BRANCH   3   7
ATOM      7  C   UNL     1       5.111   0.732   2.150  0.00  0.00    -0.012 A 
ATOM      8  C   UNL     1       3.927   0.879   1.453  0.00  0.00    +0.115 A 
ATOM      9  N   UNL     1       3.643   0.093   0.432  0.00  0.00    -0.263 NA
ATOM     10  C   UNL     1       4.469  -0.856   0.038  0.00  0.00    +0.111 A 
ATOM     11  C   UNL     1       5.672  -1.062   0.687  0.00  0.00    +0.020 A 
ATOM     12  C   UNL     1       6.007  -0.252   1.761  0.00  0.00    +0.008 A 
ENDBRANCH   3   7
TORSDOF 1
ENDMDL
MODEL 7
REMARK VINA RESULT:     0.000      4.339      6.083
REMARK INTER + INTRA:          -0.256
REMARK INTER:                   0.000
REMARK INTRA:                  -0.256
REMARK UNBOUND:                -0.256
REMARK  Name = Nicotine.pdb
REMARK  2 active torsions:
REMARK  status: ('A' for Active; 'I' for Inactive)
REMARK    1  A    between atoms: C_3  and  C_6
REMARK    2  A    between atoms: N_4  and  C_12
REMARK                            x       y       z     vdW  Elec       q    Type
REMARK                         _______ _______ _______ _____ _____    ______ ____
ROOT
ATOM      1  C   UNL     1       3.742   2.995  -2.482  0.00  0.00    +0.017 C 
ATOM      2  C   UNL     1       4.269   1.662  -3.076  0.00  0.00    +0.025 C 
ATOM      3  C   UNL     1       4.470   0.780  -1.825  0.00  0.00    +0.088 C 
ATOM      4  N   UNL     1       4.613   1.685  -0.671  0.00  0.00    -0.298 NA
ATOM      5  C   UNL     1       4.535   3.080  -1.154  0.00  0.00    +0.085 C 
ATOM      6  C   UNL     1       3.581   1.419   0.339  0.00  0.00    +0.105 C 
ENDROOT
BRANCH   3   7
ATOM      7  C   UNL     1       5.715  -0.055  -1.981  0.00  0.00    -0.012 A 
ATOM      8  C   UNL     1       5.880  -1.209  -1.240  0.00  0.00    +0.115 A 
ATOM      9  N   UNL     1       6.966  -1.946  -1.370  0.00  0.00    -0.263 NA
ATOM     10  C   UNL     1       7.931  -1.615  -2.205  0.00  0.00    +0.111 A 
ATOM     11  C   UNL     1       7.836  -0.475  -2.981  0.00  0.00    +0.020 A 
ATOM     12  C   UNL     1       6.706   0.322  -2.874  0.00  0.00    +0.008 A 
ENDBRANCH   3   7
TORSDOF 1
ENDMDL
MODEL 8
REMARK VINA RESULT:     0.000      5.359      6.216
REMARK INTER + INTRA:          -0.256
REMARK INTER:                   0.000
REMARK INTRA:                  -0.256
REMARK UNBOUND:                -0.256
REMARK  Name = Nicotine.pdb
REMARK  2 active torsions:
REMARK  status: ('A' for Active; 'I' for Inactive)
REMARK    1  A    between atoms: C_3  and  C_6
REMARK    2  A    between atoms: N_4  and  C_12
REMARK                            x       y       z     vdW  Elec       q    Type
REMARK                         _______ _______ _______ _____ _____    ______ ____
ROOT
ATOM      1  C   UNL     1       2.509   3.794  -1.903  0.00  0.00    +0.017 C 
ATOM      2  C   UNL     1       2.580   2.353  -2.474  0.00  0.00    +0.025 C 
ATOM      3  C   UNL     1       2.163   1.482  -1.269  0.00  0.00    +0.088 C 
ATOM      4  N   UNL     1       2.413   2.273  -0.051  0.00  0.00    -0.298 NA
ATOM      5  C   UNL     1       2.986   3.578  -0.445  0.00  0.00    +0.085 C 
ATOM      6  C   UNL     1       1.178   2.453   0.723  0.00  0.00    +0.105 C 
ENDROOT
BRANCH   3   7
ATOM      7  C   UNL     1       2.986   0.220  -1.240  0.00  0.00    -0.012 A 
ATOM      8  C   UNL     1       2.532  -0.894  -0.560  0.00  0.00    +0.115 A 
ATOM      9  N   UNL     1       3.246  -2.003  -0.530  0.00  0.00    -0.263 NA
ATOM     10  C   UNL     1       4.411  -2.094  -1.141  0.00  0.00    +0.111 A 
ATOM     11  C   UNL     1       4.928  -1.021  -1.842  0.00  0.00    +0.020 A 
ATOM     12  C   UNL     1       4.204   0.160  -1.900  0.00  0.00    +0.008 A 
ENDBRANCH   3   7
TORSDOF 1
ENDMDL
MODEL 9
REMARK VINA RESULT:     0.000      8.083      9.242
REMARK INTER + INTRA:          -0.256
REMARK INTER:                   0.000
REMARK INTRA:                  -0.256
REMARK UNBOUND:                -0.256
REMARK  Name = Nicotine.pdb
REMARK  2 active torsions:
REMARK  status: ('A' for Active; 'I' for Inactive)
REMARK    1  A    between atoms: C_3  and  C_6
REMARK    2  A    between atoms: N_4  and  C_12
REMARK                            x       y       z     vdW  Elec       q    Type
REMARK                         _______ _______ _______ _____ _____    ______ ____
ROOT
ATOM      1  C   UNL     1      -0.408  -0.660  -6.336  0.00  0.00    +0.017 C 
ATOM      2  C   UNL     1      -0.891   0.178  -5.123  0.00  0.00    +0.025 C 
ATOM      3  C   UNL     1       0.078  -0.247  -3.999  0.00  0.00    +0.088 C 
ATOM      4  N   UNL     1       0.624  -1.565  -4.369  0.00  0.00    -0.298 NA
ATOM      5  C   UNL     1       0.019  -1.983  -5.651  0.00  0.00    +0.085 C 
ATOM      6  C   UNL     1       2.089  -1.520  -4.466  0.00  0.00    +0.105 C 
ENDROOT
BRANCH   3   7
ATOM      7  C   UNL     1      -0.665  -0.346  -2.692  0.00  0.00    -0.012 A 
ATOM      8  C   UNL     1       0.018  -0.273  -1.493  0.00  0.00    +0.115 A 
ATOM      9  N   UNL     1      -0.624  -0.359  -0.344  0.00  0.00    -0.263 NA
ATOM     10  C   UNL     1      -1.932  -0.517  -0.292  0.00  0.00    +0.111 A 
ATOM     11  C   UNL     1      -2.682  -0.597  -1.450  0.00  0.00    +0.020 A 
ATOM     12  C   UNL     1      -2.042  -0.506  -2.677  0.00  0.00    +0.008 A 
ENDBRANCH   3   7
TORSDOF 1
ENDMDL
MODEL 10
REMARK VINA RESULT:     0.000      6.531      9.116
REMARK INTER + INTRA:          -0.256
REMARK INTER:                   0.000
REMARK INTRA:                  -0.256
REMARK UNBOUND:                -0.256
REMARK  Name = Nicotine.pdb
REMARK  2 active torsions:
REMARK  status: ('A' for Active; 'I' for Inactive)
REMARK    1  A    between atoms: C_3  and  C_6
REMARK    2  A    between atoms: N_4  and  C_12
REMARK                            x       y       z     vdW  Elec       q    Type
REMARK                         _______ _______ _______ _____ _____    ______ ____
ROOT
ATOM      1  C   UNL     1       4.770   5.585  -0.620  0.00  0.00    +0.017 C 
ATOM      2  C   UNL     1       4.215   5.109  -1.988  0.00  0.00    +0.025 C 
ATOM      3  C   UNL     1       5.483   4.646  -2.735  0.00  0.00    +0.088 C 
ATOM      4  N   UNL     1       6.631   5.327  -2.110  0.00  0.00    -0.298 NA
ATOM      5  C   UNL     1       6.129   6.205  -1.032  0.00  0.00    +0.085 C 
ATOM      6  C   UNL     1       7.601   4.354  -1.589  0.00  0.00    +0.105 C 
ENDROOT
BRANCH   3   7
ATOM      7  C   UNL     1       5.389   5.028  -4.190  0.00  0.00    -0.012 A 
ATOM      8  C   UNL     1       6.151   4.368  -5.136  0.00  0.00    +0.115 A 
ATOM      9  N   UNL     1       6.074   4.696  -6.411  0.00  0.00    -0.263 NA
ATOM     10  C   UNL     1       5.276   5.657  -6.833  0.00  0.00    +0.111 A 
ATOM     11  C   UNL     1       4.484   6.360  -5.945  0.00  0.00    +0.020 A 
ATOM     12  C   UNL     1       4.534   6.040  -4.597  0.00  0.00    +0.008 A 
ENDBRANCH   3   7
TORSDOF 1
ENDMDL
