MODEL 1
REMARK VINA RESULT:     0.000      0.000      0.000
REMARK INTER + INTRA:          -0.256
REMARK INTER:                   0.000
REMARK INTRA:                  -0.256
REMARK UNBOUND:                -0.256
REMARK  Name = Nicotine.pdb
REMARK  2 active torsions:
REMARK  status: ('A' for Active; 'I' for Inactive)
REMARK    1  A    between atoms: C_3  and  C_6
REMARK    2  A    between atoms: N_4  and  C_12
REMARK                            x       y       z     vdW  Elec       q    Type
REMARK                         _______ _______ _______ _____ _____    ______ ____
ROOT
ATOM      1  C   UNL     1       3.466   3.236   5.559  0.00  0.00    +0.017 C 
ATOM      2  C   UNL     1       3.969   3.363   4.096  0.00  0.00    +0.025 C 
ATOM      3  C   UNL     1       3.628   1.985   3.490  0.00  0.00    +0.088 C 
ATOM      4  N   UNL     1       3.509   1.033   4.609  0.00  0.00    -0.298 NA
ATOM      5  C   UNL     1       3.786   1.753   5.871  0.00  0.00    +0.085 C 
ATOM      6  C   UNL     1       2.178   0.414   4.637  0.00  0.00    +0.105 C 
ENDROOT
BRANCH   3   7
ATOM      7  C   UNL     1       4.728   1.549   2.558  0.00  0.00    -0.012 A 
ATOM      8  C   UNL     1       4.481   0.604   1.580  0.00  0.00    +0.115 A 
ATOM      9  N   UNL     1       5.438   0.217   0.760  0.00  0.00    -0.263 NA
ATOM     10  C   UNL     1       6.659   0.709   0.837  0.00  0.00    +0.111 A 
ATOM     11  C   UNL     1       6.980   1.658   1.790  0.00  0.00    +0.020 A 
ATOM     12  C   UNL     1       5.998   2.094   2.666  0.00  0.00    +0.008 A 
ENDBRANCH   3   7
TORSDOF 1
ENDMDL
MODEL 2
REMARK VINA RESULT:     0.000      5.435      6.725
REMARK INTER + INTRA:          -0.256
REMARK INTER:                   0.000
REMARK INTRA:                  -0.256
REMARK UNBOUND:                -0.256
REMARK  Name = Nicotine.pdb
REMARK  2 active torsions:
REMARK  status: ('A' for Active; 'I' for Inactive)
REMARK    1  A    between atoms: C_3  and  C_6
REMARK    2  A    between atoms: N_4  and  C_12
REMARK                            x       y       z     vdW  Elec       q    Type
REMARK                         _______ _______ _______ _____ _____    ______ ____
ROOT
ATOM      1  C   UNL     1       1.320   2.936  -0.837  0.00  0.00    +0.017 C 
ATOM      2  C   UNL     1       0.477   2.024  -1.767  0.00  0.00    +0.025 C 
ATOM      3  C   UNL     1       0.675   0.623  -1.152  0.00  0.00    +0.088 C 
ATOM      4  N   UNL     1       1.922   0.662  -0.367  0.00  0.00    -0.298 NA
ATOM      5  C   UNL     1       2.514   2.012  -0.490  0.00  0.00    +0.085 C 
ATOM      6  C   UNL     1       1.670   0.324   1.040  0.00  0.00    +0.105 C 
ENDROOT
BRANCH   3   7
ATOM      7  C   UNL     1       0.789  -0.406  -2.246  0.00  0.00    -0.012 A 
ATOM      8  C   UNL     1       0.532  -1.738  -1.983  0.00  0.00    +0.115 A 
ATOM      9  N   UNL     1       0.629  -2.646  -2.935  0.00  0.00    -0.263 NA
ATOM     10  C   UNL     1       0.972  -2.324  -4.166  0.00  0.00    +0.111 A 
ATOM     11  C   UNL     1       1.243  -1.011  -4.505  0.00  0.00    +0.020 A 
ATOM     12  C   UNL     1       1.146  -0.029  -3.532  0.00  0.00    +0.008 A 
ENDBRANCH   3   7
TORSDOF 1
ENDMDL
MODEL 3
REMARK VINA RESULT:     0.000      3.030      4.057
REMARK INTER + INTRA:          -0.256
REMARK INTER:                   0.000
REMARK INTRA:                  -0.256
REMARK UNBOUND:                -0.256
REMARK  Name = Nicotine.pdb
REMARK  2 active torsions:
REMARK  status: ('A' for Active; 'I' for Inactive)
REMARK    1  A    between atoms: C_3  and  C_6
REMARK    2  A    between atoms: N_4  and  C_12
REMARK                            x       y       z     vdW  Elec       q    Type
REMARK                         _______ _______ _______ _____ _____    ______ ____
ROOT
ATOM      1  C   UNL     1       1.862   3.454   1.016  0.00  0.00    +0.017 C 
ATOM      2  C   UNL     1       1.511   2.193   0.183  0.00  0.00    +0.025 C 
ATOM      3  C   UNL     1       2.180   1.053   0.980  0.00  0.00    +0.088 C 
ATOM      4  N   UNL     1       3.249   1.659   1.794  0.00  0.00    -0.298 NA
ATOM      5  C   UNL     1       3.287   3.111   1.518  0.00  0.00    +0.085 C 
ATOM      6  C   UNL     1       3.034   1.400   3.224  0.00  0.00    +0.105 C 
ENDROOT
BRANCH   3   7
ATOM      7  C   UNL     1       2.768   0.041   0.031  0.00  0.00    -0.012 A 
ATOM      8  C   UNL     1       3.021  -1.250   0.456  0.00  0.00    +0.115 A 
ATOM      9  N   UNL     1       3.535  -2.142  -0.368  0.00  0.00    -0.263 NA
ATOM     10  C   UNL     1       3.827  -1.844  -1.619  0.00  0.00    +0.111 A 
ATOM     11  C   UNL     1       3.600  -0.574  -2.114  0.00  0.00    +0.020 A 
ATOM     12  C   UNL     1       3.056   0.390  -1.279  0.00  0.00    +0.008 A 
ENDBRANCH   3   7
TORSDOF 1
ENDMDL
MODEL 4
REMARK VINA RESULT:     0.000      5.551      6.988
REMARK INTER + INTRA:          -0.256
REMARK INTER:                   0.000
REMARK INTRA:                  -0.256
REMARK UNBOUND:                -0.256
REMARK  Name = Nicotine.pdb
REMARK  2 active torsions:
REMARK  status: ('A' for Active; 'I' for Inactive)
REMARK    1  A    between atoms: C_3  and  C_6
REMARK    2  A    between atoms: N_4  and  C_12
REMARK                            x       y       z     vdW  Elec       q    Type
REMARK                         _______ _______ _______ _____ _____    ______ ____
ROOT
ATOM      1  C   UNL     1      -3.380   0.302   3.854  0.00  0.00    +0.017 C 
ATOM      2  C   UNL     1      -1.987   0.986   3.868  0.00  0.00    +0.025 C 
ATOM      3  C   UNL     1      -2.314   2.443   3.476  0.00  0.00    +0.088 C 
ATOM      4  N   UNL     1      -3.603   2.426   2.763  0.00  0.00    -0.298 NA
ATOM      5  C   UNL     1      -4.074   1.027   2.675  0.00  0.00    +0.085 C 
ATOM      6  C   UNL     1      -4.593   3.273   3.443  0.00  0.00    +0.105 C 
ENDROOT
BRANCH   3   7
ATOM      7  C   UNL     1      -1.235   2.986   2.575  0.00  0.00    -0.012 A 
ATOM      8  C   UNL     1      -1.053   4.350   2.445  0.00  0.00    +0.115 A 
ATOM      9  N   UNL     1      -0.111   4.833   1.658  0.00  0.00    -0.263 NA
ATOM     10  C   UNL     1       0.688   4.043   0.968  0.00  0.00    +0.111 A 
ATOM     11  C   UNL     1       0.566   2.668   1.048  0.00  0.00    +0.020 A 
ATOM     12  C   UNL     1      -0.409   2.124   1.869  0.00  0.00    +0.008 A 
ENDBRANCH   3   7
TORSDOF 1
ENDMDL
MODEL 5
REMARK VINA RESULT:     0.000      4.845      6.717
REMARK INTER + INTRA:          -0.256
REMARK INTER:                   0.000
REMARK INTRA:                  -0.256
REMARK UNBOUND:                -0.256
REMARK  Name = Nicotine.pdb
REMARK  2 active torsions:
REMARK  status: ('A' for Active; 'I' for Inactive)
REMARK    1  A    between atoms: C_3  and  C_6
REMARK    2  A    between atoms: N_4  and  C_12
REMARK                            x       y       z     vdW  Elec       q    Type
REMARK                         _______ _______ _______ _____ _____    ______ ____
ROOT
ATOM      1  C   UNL     1      -3.853   0.346   5.698  0.00  0.00    +0.017 C 
ATOM      2  C   UNL     1      -2.386   0.822   5.867  0.00  0.00    +0.025 C 
ATOM      3  C   UNL     1      -2.318   2.068   4.959  0.00  0.00    +0.088 C 
ATOM      4  N   UNL     1      -3.403   1.946   3.968  0.00  0.00    -0.298 NA
ATOM      5  C   UNL     1      -4.118   0.674   4.207  0.00  0.00    +0.085 C 
ATOM      6  C   UNL     1      -4.321   3.089   4.048  0.00  0.00    +0.105 C 
ENDROOT
BRANCH   3   7
ATOM      7  C   UNL     1      -0.985   2.119   4.258  0.00  0.00    -0.012 A 
ATOM      8  C   UNL     1      -0.507   3.314   3.753  0.00  0.00    +0.115 A 
ATOM      9  N   UNL     1       0.659   3.367   3.138  0.00  0.00    -0.263 NA
ATOM     10  C   UNL     1       1.409   2.295   2.980  0.00  0.00    +0.111 A 
ATOM     11  C   UNL     1       0.996   1.066   3.459  0.00  0.00    +0.020 A 
ATOM     12  C   UNL     1      -0.221   0.971   4.115  0.00  0.00    +0.008 A 
ENDBRANCH   3   7
TORSDOF 1
ENDMDL
MODEL 6
REMARK VINA RESULT:     0.000      4.531      6.641
REMARK INTER + INTRA:          -0.256
REMARK INTER:                   0.000
REMARK INTRA:                  -0.256
REMARK UNBOUND:                -0.256
REMARK  Name = Nicotine.pdb
REMARK  2 active torsions:
REMARK  status: ('A' for Active; 'I' for Inactive)
REMARK    1  A    between atoms: C_3  and  C_6
REMARK    2  A    between atoms: N_4  and  C_12
REMARK                            x       y       z     vdW  Elec       q    Type
REMARK                         _______ _______ _______ _____ _____    ______ ____
ROOT
ATOM      1  C   UNL     1       3.375  -0.810  -1.836  0.00  0.00    +0.017 C 
ATOM      2  C   UNL     1       2.557  -1.899  -1.094  0.00  0.00    +0.025 C 
ATOM      3  C   UNL     1       3.240  -1.965   0.288  0.00  0.00    +0.088 C 
ATOM      4  N   UNL     1       4.605  -1.432   0.127  0.00  0.00    -0.298 NA
ATOM      5  C   UNL     1       4.803  -1.066  -1.291  0.00  0.00    +0.085 C 
ATOM      6  C   UNL     1       4.827  -0.277   1.006  0.00  0.00    +0.105 C 
ENDROOT
BRANCH   3   7
ATOM      7  C   UNL     1       3.299  -3.394   0.763  0.00  0.00    -0.012 A 
ATOM      8  C   UNL     1       3.447  -3.678   2.108  0.00  0.00    +0.115 A 
ATOM      9  N   UNL     1       3.499  -4.926   2.532  0.00  0.00    -0.263 NA
ATOM     10  C   UNL     1       3.414  -5.945   1.700  0.00  0.00    +0.111 A 
ATOM     11  C   UNL     1       3.264  -5.738   0.341  0.00  0.00    +0.020 A 
ATOM     12  C   UNL     1       3.199  -4.440  -0.141  0.00  0.00    +0.008 A 
ENDBRANCH   3   7
TORSDOF 1
ENDMDL
MODEL 7
REMARK VINA RESULT:     0.000      3.490      7.026
REMARK INTER + INTRA:          -0.256
REMARK INTER:                   0.000
REMARK INTRA:                  -0.256
REMARK UNBOUND:                -0.256
REMARK  Name = Nicotine.pdb
REMARK  2 active torsions:
REMARK  status: ('A' for Active; 'I' for Inactive)
REMARK    1  A    between atoms: C_3  and  C_6
REMARK    2  A    between atoms: N_4  and  C_12
REMARK                            x       y       z     vdW  Elec       q    Type
REMARK                         _______ _______ _______ _____ _____    ______ ____
ROOT
ATOM      1  C   UNL     1       8.613   0.675  -3.798  0.00  0.00    +0.017 C 
ATOM      2  C   UNL     1       7.311   1.145  -3.099  0.00  0.00    +0.025 C 
ATOM      3  C   UNL     1       7.823   2.167  -2.062  0.00  0.00    +0.088 C 
ATOM      4  N   UNL     1       9.243   1.860  -1.810  0.00  0.00    -0.298 NA
ATOM      5  C   UNL     1       9.621   0.683  -2.622  0.00  0.00    +0.085 C 
ATOM      6  C   UNL     1      10.096   3.013  -2.123  0.00  0.00    +0.105 C 
ENDROOT
BRANCH   3   7
ATOM      7  C   UNL     1       7.035   2.040  -0.784  0.00  0.00    -0.012 A 
ATOM      8  C   UNL     1       6.986   3.089   0.115  0.00  0.00    +0.115 A 
ATOM      9  N   UNL     1       6.299   2.986   1.235  0.00  0.00    -0.263 NA
ATOM     10  C   UNL     1       5.636   1.889   1.543  0.00  0.00    +0.111 A 
ATOM     11  C   UNL     1       5.638   0.799   0.693  0.00  0.00    +0.020 A 
ATOM     12  C   UNL     1       6.345   0.872  -0.497  0.00  0.00    +0.008 A 
ENDBRANCH   3   7
TORSDOF 1
ENDMDL
MODEL 8
REMARK VINA RESULT:     0.000      2.708      4.656
REMARK INTER + INTRA:          -0.256
REMARK INTER:                   0.000
REMARK INTRA:                  -0.256
REMARK UNBOUND:                -0.256
REMARK  Name = Nicotine.pdb
REMARK  2 active torsions:
REMARK  status: ('A' for Active; 'I' for Inactive)
REMARK    1  A    between atoms: C_3  and  C_6
REMARK    2  A    between atoms: N_4  and  C_12
REMARK                            x       y       z     vdW  Elec       q    Type
REMARK                         _______ _______ _______ _____ _____    ______ ____
ROOT
ATOM      1  C   UNL     1       5.633   1.780   2.291  0.00  0.00    +0.017 C 
ATOM      2  C   UNL     1       4.477   0.815   1.917  0.00  0.00    +0.025 C 
ATOM      3  C   UNL     1       5.217  -0.383   1.284  0.00  0.00    +0.088 C 
ATOM      4  N   UNL     1       6.530   0.107   0.825  0.00  0.00    -0.298 NA
ATOM      5  C   UNL     1       6.623   1.552   1.122  0.00  0.00    +0.085 C 
ATOM      6  C   UNL     1       7.623  -0.635   1.468  0.00  0.00    +0.105 C 
ENDROOT
BRANCH   3   7
ATOM      7  C   UNL     1       4.429  -0.913   0.115  0.00  0.00    -0.012 A 
ATOM      8  C   UNL     1       4.627  -2.205  -0.334  0.00  0.00    +0.115 A 
ATOM      9  N   UNL     1       3.941  -2.677  -1.357  0.00  0.00    -0.263 NA
ATOM     10  C   UNL     1       3.046  -1.943  -1.989  0.00  0.00    +0.111 A 
ATOM     11  C   UNL     1       2.793  -0.642  -1.596  0.00  0.00    +0.020 A 
ATOM     12  C   UNL     1       3.491  -0.114  -0.521  0.00  0.00    +0.008 A 
ENDBRANCH   3   7
TORSDOF 1
ENDMDL
MODEL 9
REMARK VINA RESULT:     0.000      3.365      4.248
REMARK INTER + INTRA:          -0.256
REMARK INTER:                   0.000
REMARK INTRA:                  -0.256
REMARK UNBOUND:                -0.256
REMARK  Name = Nicotine.pdb
REMARK  2 active torsions:
REMARK  status: ('A' for Active; 'I' for Inactive)
REMARK    1  A    between atoms: C_3  and  C_6
REMARK    2  A    between atoms: N_4  and  C_12
REMARK                            x       y       z     vdW  Elec       q    Type
REMARK                         _______ _______ _______ _____ _____    ______ ____
ROOT
ATOM      1  C   UNL     1       3.634   0.062   2.564  0.00  0.00    +0.017 C 
ATOM      2  C   UNL     1       4.101   1.146   1.556  0.00  0.00    +0.025 C 
ATOM      3  C   UNL     1       3.464   2.436   2.115  0.00  0.00    +0.088 C 
ATOM      4  N   UNL     1       2.323   2.032   2.955  0.00  0.00    -0.298 NA
ATOM      5  C   UNL     1       2.211   0.558   2.920  0.00  0.00    +0.085 C 
ATOM      6  C   UNL     1       2.484   2.516   4.332  0.00  0.00    +0.105 C 
ENDROOT
BRANCH   3   7
ATOM      7  C   UNL     1       2.986   3.304   0.980  0.00  0.00    -0.012 A 
ATOM      8  C   UNL     1       2.791   4.659   1.170  0.00  0.00    +0.115 A 
ATOM      9  N   UNL     1       2.373   5.426   0.182  0.00  0.00    -0.263 NA
ATOM     10  C   UNL     1       2.124   4.938  -1.017  0.00  0.00    +0.111 A 
ATOM     11  C   UNL     1       2.297   3.592  -1.282  0.00  0.00    +0.020 A 
ATOM     12  C   UNL     1       2.741   2.756  -0.270  0.00  0.00    +0.008 A 
ENDBRANCH   3   7
TORSDOF 1
ENDMDL
MODEL 10
REMARK VINA RESULT:     0.000      4.301      5.706
REMARK INTER + INTRA:          -0.256
REMARK INTER:                   0.000
REMARK INTRA:                  -0.256
REMARK UNBOUND:                -0.256
REMARK  Name = Nicotine.pdb
REMARK  2 active torsions:
REMARK  status: ('A' for Active; 'I' for Inactive)
REMARK    1  A    between atoms: C_3  and  C_6
REMARK    2  A    between atoms: N_4  and  C_12
REMARK                            x       y       z     vdW  Elec       q    Type
REMARK                         _______ _______ _______ _____ _____    ______ ____
ROOT
ATOM      1  C   UNL     1       3.351  -3.117   4.010  0.00  0.00    +0.017 C 
ATOM      2  C   UNL     1       3.981  -4.053   2.945  0.00  0.00    +0.025 C 
ATOM      3  C   UNL     1       4.808  -3.083   2.075  0.00  0.00    +0.088 C 
ATOM      4  N   UNL     1       4.239  -1.736   2.261  0.00  0.00    -0.298 NA
ATOM      5  C   UNL     1       3.087  -1.835   3.181  0.00  0.00    +0.085 C 
ATOM      6  C   UNL     1       5.249  -0.804   2.778  0.00  0.00    +0.105 C 
ENDROOT
BRANCH   3   7
ATOM      7  C   UNL     1       4.714  -3.486   0.626  0.00  0.00    -0.012 A 
ATOM      8  C   UNL     1       5.678  -3.078  -0.277  0.00  0.00    +0.115 A 
ATOM      9  N   UNL     1       5.603  -3.426  -1.547  0.00  0.00    -0.263 NA
ATOM     10  C   UNL     1       4.616  -4.171  -2.004  0.00  0.00    +0.111 A 
ATOM     11  C   UNL     1       3.616  -4.617  -1.160  0.00  0.00    +0.020 A 
ATOM     12  C   UNL     1       3.664  -4.276   0.183  0.00  0.00    +0.008 A 
ENDBRANCH   3   7
TORSDOF 1
ENDMDL
