MODEL 1
REMARK VINA RESULT:     0.000      0.000      0.000
REMARK INTER + INTRA:          -0.256
REMARK INTER:                   0.000
REMARK INTRA:                  -0.256
REMARK UNBOUND:                -0.256
REMARK  Name = Nicotine.pdb
REMARK  2 active torsions:
REMARK  status: ('A' for Active; 'I' for Inactive)
REMARK    1  A    between atoms: C_3  and  C_6
REMARK    2  A    between atoms: N_4  and  C_12
REMARK                            x       y       z     vdW  Elec       q    Type
REMARK                         _______ _______ _______ _____ _____    ______ ____
ROOT
ATOM      1  C   UNL     1      -0.274   3.300   0.396  0.00  0.00    +0.017 C 
ATOM      2  C   UNL     1      -0.369   3.237  -1.151  0.00  0.00    +0.025 C 
ATOM      3  C   UNL     1      -0.443   1.722  -1.433  0.00  0.00    +0.088 C 
ATOM      4  N   UNL     1       0.136   1.031  -0.267  0.00  0.00    -0.298 NA
ATOM      5  C   UNL     1       0.585   2.049   0.707  0.00  0.00    +0.085 C 
ATOM      6  C   UNL     1      -0.837   0.114   0.340  0.00  0.00    +0.105 C 
ENDROOT
BRANCH   3   7
ATOM      7  C   UNL     1       0.350   1.392  -2.672  0.00  0.00    -0.012 A 
ATOM      8  C   UNL     1       0.096   0.230  -3.375  0.00  0.00    +0.115 A 
ATOM      9  N   UNL     1       0.785  -0.067  -4.460  0.00  0.00    -0.263 NA
ATOM     10  C   UNL     1       1.736   0.725  -4.915  0.00  0.00    +0.111 A 
ATOM     11  C   UNL     1       2.046   1.905  -4.264  0.00  0.00    +0.020 A 
ATOM     12  C   UNL     1       1.339   2.252  -3.123  0.00  0.00    +0.008 A 
ENDBRANCH   3   7
TORSDOF 1
ENDMDL
MODEL 2
REMARK VINA RESULT:     0.000      6.178      7.200
REMARK INTER + INTRA:          -0.256
REMARK INTER:                   0.000
REMARK INTRA:                  -0.256
REMARK UNBOUND:                -0.256
REMARK  Name = Nicotine.pdb
REMARK  2 active torsions:
REMARK  status: ('A' for Active; 'I' for Inactive)
REMARK    1  A    between atoms: C_3  and  C_6
REMARK    2  A    between atoms: N_4  and  C_12
REMARK                            x       y       z     vdW  Elec       q    Type
REMARK                         _______ _______ _______ _____ _____    ______ ____
ROOT
ATOM      1  C   UNL     1       5.298   3.189  -0.595  0.00  0.00    +0.017 C 
ATOM      2  C   UNL     1       6.707   2.539  -0.577  0.00  0.00    +0.025 C 
ATOM      3  C   UNL     1       6.926   2.144  -2.053  0.00  0.00    +0.088 C 
ATOM      4  N   UNL     1       5.595   2.040  -2.680  0.00  0.00    -0.298 NA
ATOM      5  C   UNL     1       4.569   2.326  -1.655  0.00  0.00    +0.085 C 
ATOM      6  C   UNL     1       5.475   2.961  -3.818  0.00  0.00    +0.105 C 
ENDROOT
BRANCH   3   7
ATOM      7  C   UNL     1       7.635   0.818  -2.130  0.00  0.00    -0.012 A 
ATOM      8  C   UNL     1       8.326   0.459  -3.272  0.00  0.00    +0.115 A 
ATOM      9  N   UNL     1       8.949  -0.701  -3.347  0.00  0.00    -0.263 NA
ATOM     10  C   UNL     1       8.941  -1.558  -2.346  0.00  0.00    +0.111 A 
ATOM     11  C   UNL     1       8.272  -1.268  -1.171  0.00  0.00    +0.020 A 
ATOM     12  C   UNL     1       7.609  -0.057  -1.054  0.00  0.00    +0.008 A 
ENDBRANCH   3   7
TORSDOF 1
ENDMDL
MODEL 3
REMARK VINA RESULT:     0.000      3.535      4.328
REMARK INTER + INTRA:          -0.256
REMARK INTER:                   0.000
REMARK INTRA:                  -0.256
REMARK UNBOUND:                -0.256
REMARK  Name = Nicotine.pdb
REMARK  2 active torsions:
REMARK  status: ('A' for Active; 'I' for Inactive)
REMARK    1  A    between atoms: C_3  and  C_6
REMARK    2  A    between atoms: N_4  and  C_12
REMARK                            x       y       z     vdW  Elec       q    Type
REMARK                         _______ _______ _______ _____ _____    ______ ____
ROOT
ATOM      1  C   UNL     1       2.555  -0.997   0.061  0.00  0.00    +0.017 C 
ATOM      2  C   UNL     1       1.353  -1.362  -0.850  0.00  0.00    +0.025 C 
ATOM      3  C   UNL     1       1.970  -2.354  -1.859  0.00  0.00    +0.088 C 
ATOM      4  N   UNL     1       3.423  -2.107  -1.880  0.00  0.00    -0.298 NA
ATOM      5  C   UNL     1       3.726  -0.996  -0.953  0.00  0.00    +0.085 C 
ATOM      6  C   UNL     1       4.169  -3.318  -1.513  0.00  0.00    +0.105 C 
ENDROOT
BRANCH   3   7
ATOM      7  C   UNL     1       1.389  -2.119  -3.229  0.00  0.00    -0.012 A 
ATOM      8  C   UNL     1       1.430  -3.116  -4.185  0.00  0.00    +0.115 A 
ATOM      9  N   UNL     1       0.923  -2.919  -5.387  0.00  0.00    -0.263 NA
ATOM     10  C   UNL     1       0.362  -1.775  -5.724  0.00  0.00    +0.111 A 
ATOM     11  C   UNL     1       0.284  -0.732  -4.819  0.00  0.00    +0.020 A 
ATOM     12  C   UNL     1       0.801  -0.904  -3.545  0.00  0.00    +0.008 A 
ENDBRANCH   3   7
TORSDOF 1
ENDMDL
MODEL 4
REMARK VINA RESULT:     0.000      3.070      5.162
REMARK INTER + INTRA:          -0.256
REMARK INTER:                   0.000
REMARK INTRA:                  -0.256
REMARK UNBOUND:                -0.256
REMARK  Name = Nicotine.pdb
REMARK  2 active torsions:
REMARK  status: ('A' for Active; 'I' for Inactive)
REMARK    1  A    between atoms: C_3  and  C_6
REMARK    2  A    between atoms: N_4  and  C_12
REMARK                            x       y       z     vdW  Elec       q    Type
REMARK                         _______ _______ _______ _____ _____    ______ ____
ROOT
ATOM      1  C   UNL     1      -2.133  -2.691  -3.056  0.00  0.00    +0.017 C 
ATOM      2  C   UNL     1      -1.362  -1.718  -2.125  0.00  0.00    +0.025 C 
ATOM      3  C   UNL     1      -2.480  -1.123  -1.243  0.00  0.00    +0.088 C 
ATOM      4  N   UNL     1      -3.748  -1.284  -1.977  0.00  0.00    -0.298 NA
ATOM      5  C   UNL     1      -3.461  -1.925  -3.278  0.00  0.00    +0.085 C 
ATOM      6  C   UNL     1      -4.710  -2.075  -1.200  0.00  0.00    +0.105 C 
ENDROOT
BRANCH   3   7
ATOM      7  C   UNL     1      -2.213   0.338  -0.993  0.00  0.00    -0.012 A 
ATOM      8  C   UNL     1      -2.789   0.980   0.088  0.00  0.00    +0.115 A 
ATOM      9  N   UNL     1      -2.560   2.259   0.314  0.00  0.00    -0.263 NA
ATOM     10  C   UNL     1      -1.780   2.973  -0.473  0.00  0.00    +0.111 A 
ATOM     11  C   UNL     1      -1.168   2.400  -1.573  0.00  0.00    +0.020 A 
ATOM     12  C   UNL     1      -1.381   1.056  -1.839  0.00  0.00    +0.008 A 
ENDBRANCH   3   7
TORSDOF 1
ENDMDL
MODEL 5
REMARK VINA RESULT:     0.000      6.542      7.806
REMARK INTER + INTRA:          -0.256
REMARK INTER:                   0.000
REMARK INTRA:                  -0.256
REMARK UNBOUND:                -0.256
REMARK  Name = Nicotine.pdb
REMARK  2 active torsions:
REMARK  status: ('A' for Active; 'I' for Inactive)
REMARK    1  A    between atoms: C_3  and  C_6
REMARK    2  A    between atoms: N_4  and  C_12
REMARK                            x       y       z     vdW  Elec       q    Type
REMARK                         _______ _______ _______ _____ _____    ______ ____
ROOT
ATOM      1  C   UNL     1       3.332   2.654   0.985  0.00  0.00    +0.017 C 
ATOM      2  C   UNL     1       4.355   3.717   0.508  0.00  0.00    +0.025 C 
ATOM      3  C   UNL     1       5.714   3.029   0.759  0.00  0.00    +0.088 C 
ATOM      4  N   UNL     1       5.494   1.990   1.781  0.00  0.00    -0.298 NA
ATOM      5  C   UNL     1       4.074   2.023   2.189  0.00  0.00    +0.085 C 
ATOM      6  C   UNL     1       5.866   0.663   1.273  0.00  0.00    +0.105 C 
ENDROOT
BRANCH   3   7
ATOM      7  C   UNL     1       6.716   4.038   1.258  0.00  0.00    -0.012 A 
ATOM      8  C   UNL     1       8.071   3.794   1.139  0.00  0.00    +0.115 A 
ATOM      9  N   UNL     1       8.954   4.672   1.573  0.00  0.00    -0.263 NA
ATOM     10  C   UNL     1       8.586   5.807   2.133  0.00  0.00    +0.111 A 
ATOM     11  C   UNL     1       7.248   6.120   2.285  0.00  0.00    +0.020 A 
ATOM     12  C   UNL     1       6.290   5.224   1.836  0.00  0.00    +0.008 A 
ENDBRANCH   3   7
TORSDOF 1
ENDMDL
MODEL 6
REMARK VINA RESULT:     0.000      2.391      2.977
REMARK INTER + INTRA:          -0.256
REMARK INTER:                   0.000
REMARK INTRA:                  -0.256
REMARK UNBOUND:                -0.256
REMARK  Name = Nicotine.pdb
REMARK  2 active torsions:
REMARK  status: ('A' for Active; 'I' for Inactive)
REMARK    1  A    between atoms: C_3  and  C_6
REMARK    2  A    between atoms: N_4  and  C_12
REMARK                            x       y       z     vdW  Elec       q    Type
REMARK                         _______ _______ _______ _____ _____    ______ ____
ROOT
ATOM      1  C   UNL     1      -1.697   0.214  -0.044  0.00  0.00    +0.017 C 
ATOM      2  C   UNL     1      -0.571   0.572  -1.049  0.00  0.00    +0.025 C 
ATOM      3  C   UNL     1      -1.234   0.313  -2.419  0.00  0.00    +0.088 C 
ATOM      4  N   UNL     1      -2.349  -0.624  -2.195  0.00  0.00    -0.298 NA
ATOM      5  C   UNL     1      -2.389  -0.974  -0.759  0.00  0.00    +0.085 C 
ATOM      6  C   UNL     1      -3.624  -0.041  -2.631  0.00  0.00    +0.105 C 
ENDROOT
BRANCH   3   7
ATOM      7  C   UNL     1      -0.232  -0.296  -3.366  0.00  0.00    -0.012 A 
ATOM      8  C   UNL     1      -0.424  -0.218  -4.732  0.00  0.00    +0.115 A 
ATOM      9  N   UNL     1       0.447  -0.748  -5.568  0.00  0.00    -0.263 NA
ATOM     10  C   UNL     1       1.528  -1.370  -5.139  0.00  0.00    +0.111 A 
ATOM     11  C   UNL     1       1.787  -1.488  -3.787  0.00  0.00    +0.020 A 
ATOM     12  C   UNL     1       0.896  -0.938  -2.878  0.00  0.00    +0.008 A 
ENDBRANCH   3   7
TORSDOF 1
ENDMDL
MODEL 7
REMARK VINA RESULT:     0.000      6.653      8.120
REMARK INTER + INTRA:          -0.256
REMARK INTER:                   0.000
REMARK INTRA:                  -0.256
REMARK UNBOUND:                -0.256
REMARK  Name = Nicotine.pdb
REMARK  2 active torsions:
REMARK  status: ('A' for Active; 'I' for Inactive)
REMARK    1  A    between atoms: C_3  and  C_6
REMARK    2  A    between atoms: N_4  and  C_12
REMARK                            x       y       z     vdW  Elec       q    Type
REMARK                         _______ _______ _______ _____ _____    ______ ____
ROOT
ATOM      1  C   UNL     1       5.294  -3.895  -1.607  0.00  0.00    +0.017 C 
ATOM      2  C   UNL     1       6.135  -2.925  -0.736  0.00  0.00    +0.025 C 
ATOM      3  C   UNL     1       5.744  -3.322   0.703  0.00  0.00    +0.088 C 
ATOM      4  N   UNL     1       4.434  -3.994   0.630  0.00  0.00    -0.298 NA
ATOM      5  C   UNL     1       3.989  -4.006  -0.780  0.00  0.00    +0.085 C 
ATOM      6  C   UNL     1       4.509  -5.357   1.171  0.00  0.00    +0.105 C 
ENDROOT
BRANCH   3   7
ATOM      7  C   UNL     1       5.644  -2.091   1.566  0.00  0.00    -0.012 A 
ATOM      8  C   UNL     1       5.744  -2.191   2.940  0.00  0.00    +0.115 A 
ATOM      9  N   UNL     1       5.658  -1.118   3.703  0.00  0.00    -0.263 NA
ATOM     10  C   UNL     1       5.472   0.083   3.191  0.00  0.00    +0.111 A 
ATOM     11  C   UNL     1       5.363   0.260   1.824  0.00  0.00    +0.020 A 
ATOM     12  C   UNL     1       5.454  -0.844   0.991  0.00  0.00    +0.008 A 
ENDBRANCH   3   7
TORSDOF 1
ENDMDL
MODEL 8
REMARK VINA RESULT:     0.000      4.753      7.494
REMARK INTER + INTRA:          -0.256
REMARK INTER:                   0.000
REMARK INTRA:                  -0.256
REMARK UNBOUND:                -0.256
REMARK  Name = Nicotine.pdb
REMARK  2 active torsions:
REMARK  status: ('A' for Active; 'I' for Inactive)
REMARK    1  A    between atoms: C_3  and  C_6
REMARK    2  A    between atoms: N_4  and  C_12
REMARK                            x       y       z     vdW  Elec       q    Type
REMARK                         _______ _______ _______ _____ _____    ______ ____
ROOT
ATOM      1  C   UNL     1       5.317   1.217   1.859  0.00  0.00    +0.017 C 
ATOM      2  C   UNL     1       4.713   1.743   3.187  0.00  0.00    +0.025 C 
ATOM      3  C   UNL     1       3.363   2.345   2.740  0.00  0.00    +0.088 C 
ATOM      4  N   UNL     1       3.476   2.651   1.303  0.00  0.00    -0.298 NA
ATOM      5  C   UNL     1       4.837   2.290   0.850  0.00  0.00    +0.085 C 
ATOM      6  C   UNL     1       2.455   1.932   0.529  0.00  0.00    +0.105 C 
ENDROOT
BRANCH   3   7
ATOM      7  C   UNL     1       3.084   3.607   3.514  0.00  0.00    -0.012 A 
ATOM      8  C   UNL     1       1.792   4.085   3.630  0.00  0.00    +0.115 A 
ATOM      9  N   UNL     1       1.538   5.188   4.305  0.00  0.00    -0.263 NA
ATOM     10  C   UNL     1       2.497   5.877   4.893  0.00  0.00    +0.111 A 
ATOM     11  C   UNL     1       3.813   5.460   4.821  0.00  0.00    +0.020 A 
ATOM     12  C   UNL     1       4.118   4.301   4.124  0.00  0.00    +0.008 A 
ENDBRANCH   3   7
TORSDOF 1
ENDMDL
MODEL 9
REMARK VINA RESULT:     0.000      2.725      3.593
REMARK INTER + INTRA:          -0.256
REMARK INTER:                   0.000
REMARK INTRA:                  -0.256
REMARK UNBOUND:                -0.256
REMARK  Name = Nicotine.pdb
REMARK  2 active torsions:
REMARK  status: ('A' for Active; 'I' for Inactive)
REMARK    1  A    between atoms: C_3  and  C_6
REMARK    2  A    between atoms: N_4  and  C_12
REMARK                            x       y       z     vdW  Elec       q    Type
REMARK                         _______ _______ _______ _____ _____    ______ ____
ROOT
ATOM      1  C   UNL     1       1.305   1.206   0.074  0.00  0.00    +0.017 C 
ATOM      2  C   UNL     1      -0.125   0.680  -0.219  0.00  0.00    +0.025 C 
ATOM      3  C   UNL     1       0.114  -0.806  -0.560  0.00  0.00    +0.088 C 
ATOM      4  N   UNL     1       1.519  -0.936  -0.985  0.00  0.00    -0.298 NA
ATOM      5  C   UNL     1       2.148   0.401  -0.947  0.00  0.00    +0.085 C 
ATOM      6  C   UNL     1       2.243  -1.884  -0.129  0.00  0.00    +0.105 C 
ENDROOT
BRANCH   3   7
ATOM      7  C   UNL     1      -0.803  -1.229  -1.678  0.00  0.00    -0.012 A 
ATOM      8  C   UNL     1      -1.103  -2.564  -1.870  0.00  0.00    +0.115 A 
ATOM      9  N   UNL     1      -1.904  -2.943  -2.846  0.00  0.00    -0.263 NA
ATOM     10  C   UNL     1      -2.448  -2.072  -3.673  0.00  0.00    +0.111 A 
ATOM     11  C   UNL     1      -2.195  -0.719  -3.543  0.00  0.00    +0.020 A 
ATOM     12  C   UNL     1      -1.362  -0.283  -2.525  0.00  0.00    +0.008 A 
ENDBRANCH   3   7
TORSDOF 1
ENDMDL
MODEL 10
REMARK VINA RESULT:     0.000      3.024      5.550
REMARK INTER + INTRA:          -0.256
REMARK INTER:                   0.000
REMARK INTRA:                  -0.256
REMARK UNBOUND:                -0.256
REMARK  Name = Nicotine.pdb
REMARK  2 active torsions:
REMARK  status: ('A' for Active; 'I' for Inactive)
REMARK    1  A    between atoms: C_3  and  C_6
REMARK    2  A    between atoms: N_4  and  C_12
REMARK                            x       y       z     vdW  Elec       q    Type
REMARK                         _______ _______ _______ _____ _____    ______ ____
ROOT
ATOM      1  C   UNL     1       3.459   5.110  -2.495  0.00  0.00    +0.017 C 
ATOM      2  C   UNL     1       3.142   4.441  -1.131  0.00  0.00    +0.025 C 
ATOM      3  C   UNL     1       1.672   3.999  -1.295  0.00  0.00    +0.088 C 
ATOM      4  N   UNL     1       1.080   4.835  -2.355  0.00  0.00    -0.298 NA
ATOM      5  C   UNL     1       2.106   5.786  -2.834  0.00  0.00    +0.085 C 
ATOM      6  C   UNL     1       0.573   4.007  -3.457  0.00  0.00    +0.105 C 
ENDROOT
BRANCH   3   7
ATOM      7  C   UNL     1       0.927   4.207  -0.001  0.00  0.00    -0.012 A 
ATOM      8  C   UNL     1      -0.237   3.508   0.254  0.00  0.00    +0.115 A 
ATOM      9  N   UNL     1      -0.895   3.683   1.384  0.00  0.00    -0.263 NA
ATOM     10  C   UNL     1      -0.474   4.524   2.308  0.00  0.00    +0.111 A 
ATOM     11  C   UNL     1       0.683   5.258   2.123  0.00  0.00    +0.020 A 
ATOM     12  C   UNL     1       1.404   5.096   0.950  0.00  0.00    +0.008 A 
ENDBRANCH   3   7
TORSDOF 1
ENDMDL
