MODEL 1
REMARK VINA RESULT:     0.000      0.000      0.000
REMARK INTER + INTRA:          -0.256
REMARK INTER:                   0.000
REMARK INTRA:                  -0.256
REMARK UNBOUND:                -0.256
REMARK  Name = Nicotine.pdb
REMARK  2 active torsions:
REMARK  status: ('A' for Active; 'I' for Inactive)
REMARK    1  A    between atoms: C_3  and  C_6
REMARK    2  A    between atoms: N_4  and  C_12
REMARK                            x       y       z     vdW  Elec       q    Type
REMARK                         _______ _______ _______ _____ _____    ______ ____
ROOT
ATOM      1  C   UNL     1      -0.875   2.906   0.417  0.00  0.00    +0.017 C 
ATOM      2  C   UNL     1      -0.038   3.070  -0.879  0.00  0.00    +0.025 C 
ATOM      3  C   UNL     1       1.319   2.440  -0.498  0.00  0.00    +0.088 C 
ATOM      4  N   UNL     1       1.418   2.472   0.972  0.00  0.00    -0.298 NA
ATOM      5  C   UNL     1       0.201   3.114   1.513  0.00  0.00    +0.085 C 
ATOM      6  C   UNL     1       1.588   1.120   1.519  0.00  0.00    +0.105 C 
ENDROOT
BRANCH   3   7
ATOM      7  C   UNL     1       2.443   3.237  -1.107  0.00  0.00    -0.012 A 
ATOM      8  C   UNL     1       3.687   2.664  -1.291  0.00  0.00    +0.115 A 
ATOM      9  N   UNL     1       4.676   3.355  -1.823  0.00  0.00    -0.263 NA
ATOM     10  C   UNL     1       4.522   4.609  -2.198  0.00  0.00    +0.111 A 
ATOM     11  C   UNL     1       3.307   5.249  -2.045  0.00  0.00    +0.020 A 
ATOM     12  C   UNL     1       2.242   4.553  -1.494  0.00  0.00    +0.008 A 
ENDBRANCH   3   7
TORSDOF 1
ENDMDL
MODEL 2
REMARK VINA RESULT:     0.000      3.639      4.755
REMARK INTER + INTRA:          -0.256
REMARK INTER:                   0.000
REMARK INTRA:                  -0.256
REMARK UNBOUND:                -0.256
REMARK  Name = Nicotine.pdb
REMARK  2 active torsions:
REMARK  status: ('A' for Active; 'I' for Inactive)
REMARK    1  A    between atoms: C_3  and  C_6
REMARK    2  A    between atoms: N_4  and  C_12
REMARK                            x       y       z     vdW  Elec       q    Type
REMARK                         _______ _______ _______ _____ _____    ______ ____
ROOT
ATOM      1  C   UNL     1       4.397  -1.366  -2.646  0.00  0.00    +0.017 C 
ATOM      2  C   UNL     1       3.987  -0.431  -3.814  0.00  0.00    +0.025 C 
ATOM      3  C   UNL     1       4.003   0.968  -3.161  0.00  0.00    +0.088 C 
ATOM      4  N   UNL     1       3.852   0.774  -1.708  0.00  0.00    -0.298 NA
ATOM      5  C   UNL     1       3.718  -0.674  -1.437  0.00  0.00    +0.085 C 
ATOM      6  C   UNL     1       4.993   1.343  -0.978  0.00  0.00    +0.105 C 
ENDROOT
BRANCH   3   7
ATOM      7  C   UNL     1       2.860   1.794  -3.691  0.00  0.00    -0.012 A 
ATOM      8  C   UNL     1       2.902   3.174  -3.616  0.00  0.00    +0.115 A 
ATOM      9  N   UNL     1       1.906   3.905  -4.078  0.00  0.00    -0.263 NA
ATOM     10  C   UNL     1       0.839   3.356  -4.624  0.00  0.00    +0.111 A 
ATOM     11  C   UNL     1       0.727   1.982  -4.734  0.00  0.00    +0.020 A 
ATOM     12  C   UNL     1       1.757   1.182  -4.264  0.00  0.00    +0.008 A 
ENDBRANCH   3   7
TORSDOF 1
ENDMDL
MODEL 3
REMARK VINA RESULT:     0.000      5.352      6.187
REMARK INTER + INTRA:          -0.256
REMARK INTER:                   0.000
REMARK INTRA:                  -0.256
REMARK UNBOUND:                -0.256
REMARK  Name = Nicotine.pdb
REMARK  2 active torsions:
REMARK  status: ('A' for Active; 'I' for Inactive)
REMARK    1  A    between atoms: C_3  and  C_6
REMARK    2  A    between atoms: N_4  and  C_12
REMARK                            x       y       z     vdW  Elec       q    Type
REMARK                         _______ _______ _______ _____ _____    ______ ____
ROOT
ATOM      1  C   UNL     1       0.308  -1.251  -3.884  0.00  0.00    +0.017 C 
ATOM      2  C   UNL     1      -0.201   0.179  -3.564  0.00  0.00    +0.025 C 
ATOM      3  C   UNL     1      -0.725   0.674  -4.929  0.00  0.00    +0.088 C 
ATOM      4  N   UNL     1      -0.054  -0.125  -5.970  0.00  0.00    -0.298 NA
ATOM      5  C   UNL     1       0.875  -1.069  -5.314  0.00  0.00    +0.085 C 
ATOM      6  C   UNL     1      -1.033  -0.839  -6.800  0.00  0.00    +0.105 C 
ENDROOT
BRANCH   3   7
ATOM      7  C   UNL     1      -0.393   2.133  -5.107  0.00  0.00    -0.012 A 
ATOM      8  C   UNL     1      -1.106   2.908  -6.002  0.00  0.00    +0.115 A 
ATOM      9  N   UNL     1      -0.822   4.186  -6.163  0.00  0.00    -0.263 NA
ATOM     10  C   UNL     1       0.144   4.772  -5.485  0.00  0.00    +0.111 A 
ATOM     11  C   UNL     1       0.900   4.061  -4.571  0.00  0.00    +0.020 A 
ATOM     12  C   UNL     1       0.627   2.717  -4.371  0.00  0.00    +0.008 A 
ENDBRANCH   3   7
TORSDOF 1
ENDMDL
MODEL 4
REMARK VINA RESULT:     0.000      3.455      5.125
REMARK INTER + INTRA:          -0.256
REMARK INTER:                   0.000
REMARK INTRA:                  -0.256
REMARK UNBOUND:                -0.256
REMARK  Name = Nicotine.pdb
REMARK  2 active torsions:
REMARK  status: ('A' for Active; 'I' for Inactive)
REMARK    1  A    between atoms: C_3  and  C_6
REMARK    2  A    between atoms: N_4  and  C_12
REMARK                            x       y       z     vdW  Elec       q    Type
REMARK                         _______ _______ _______ _____ _____    ______ ____
ROOT
ATOM      1  C   UNL     1      -0.423   3.366   1.683  0.00  0.00    +0.017 C 
ATOM      2  C   UNL     1      -1.635   4.191   1.173  0.00  0.00    +0.025 C 
ATOM      3  C   UNL     1      -2.073   3.419  -0.090  0.00  0.00    +0.088 C 
ATOM      4  N   UNL     1      -0.910   2.639  -0.551  0.00  0.00    -0.298 NA
ATOM      5  C   UNL     1       0.228   2.912   0.352  0.00  0.00    +0.085 C 
ATOM      6  C   UNL     1      -1.220   1.204  -0.588  0.00  0.00    +0.105 C 
ENDROOT
BRANCH   3   7
ATOM      7  C   UNL     1      -2.497   4.389  -1.162  0.00  0.00    -0.012 A 
ATOM      8  C   UNL     1      -3.324   3.977  -2.190  0.00  0.00    +0.115 A 
ATOM      9  N   UNL     1      -3.700   4.820  -3.132  0.00  0.00    -0.263 NA
ATOM     10  C   UNL     1      -3.308   6.078  -3.133  0.00  0.00    +0.111 A 
ATOM     11  C   UNL     1      -2.481   6.563  -2.137  0.00  0.00    +0.020 A 
ATOM     12  C   UNL     1      -2.069   5.708  -1.127  0.00  0.00    +0.008 A 
ENDBRANCH   3   7
TORSDOF 1
ENDMDL
MODEL 5
REMARK VINA RESULT:     0.000      5.474      6.646
REMARK INTER + INTRA:          -0.256
REMARK INTER:                   0.000
REMARK INTRA:                  -0.256
REMARK UNBOUND:                -0.256
REMARK  Name = Nicotine.pdb
REMARK  2 active torsions:
REMARK  status: ('A' for Active; 'I' for Inactive)
REMARK    1  A    between atoms: C_3  and  C_6
REMARK    2  A    between atoms: N_4  and  C_12
REMARK                            x       y       z     vdW  Elec       q    Type
REMARK                         _______ _______ _______ _____ _____    ______ ____
ROOT
ATOM      1  C   UNL     1       3.429  -3.799  -5.351  0.00  0.00    +0.017 C 
ATOM      2  C   UNL     1       4.334  -2.539  -5.329  0.00  0.00    +0.025 C 
ATOM      3  C   UNL     1       4.872  -2.523  -3.882  0.00  0.00    +0.088 C 
ATOM      4  N   UNL     1       3.933  -3.305  -3.058  0.00  0.00    -0.298 NA
ATOM      5  C   UNL     1       2.831  -3.779  -3.922  0.00  0.00    +0.085 C 
ATOM      6  C   UNL     1       4.615  -4.431  -2.407  0.00  0.00    +0.105 C 
ENDROOT
BRANCH   3   7
ATOM      7  C   UNL     1       4.942  -1.105  -3.377  0.00  0.00    -0.012 A 
ATOM      8  C   UNL     1       5.773  -0.779  -2.322  0.00  0.00    +0.115 A 
ATOM      9  N   UNL     1       5.840   0.459  -1.873  0.00  0.00    -0.263 NA
ATOM     10  C   UNL     1       5.124   1.429  -2.407  0.00  0.00    +0.111 A 
ATOM     11  C   UNL     1       4.271   1.179  -3.466  0.00  0.00    +0.020 A 
ATOM     12  C   UNL     1       4.178  -0.110  -3.967  0.00  0.00    +0.008 A 
ENDBRANCH   3   7
TORSDOF 1
ENDMDL
MODEL 6
REMARK VINA RESULT:     0.000      6.695      8.139
REMARK INTER + INTRA:          -0.256
REMARK INTER:                   0.000
REMARK INTRA:                  -0.256
REMARK UNBOUND:                -0.256
REMARK  Name = Nicotine.pdb
REMARK  2 active torsions:
REMARK  status: ('A' for Active; 'I' for Inactive)
REMARK    1  A    between atoms: C_3  and  C_6
REMARK    2  A    between atoms: N_4  and  C_12
REMARK                            x       y       z     vdW  Elec       q    Type
REMARK                         _______ _______ _______ _____ _____    ______ ____
ROOT
ATOM      1  C   UNL     1       9.194  -1.769   2.526  0.00  0.00    +0.017 C 
ATOM      2  C   UNL     1       9.268  -0.296   3.008  0.00  0.00    +0.025 C 
ATOM      3  C   UNL     1       8.141  -0.218   4.060  0.00  0.00    +0.088 C 
ATOM      4  N   UNL     1       7.193  -1.308   3.767  0.00  0.00    -0.298 NA
ATOM      5  C   UNL     1       7.669  -2.037   2.571  0.00  0.00    +0.085 C 
ATOM      6  C   UNL     1       7.058  -2.213   4.916  0.00  0.00    +0.105 C 
ENDROOT
BRANCH   3   7
ATOM      7  C   UNL     1       7.441   1.112   3.963  0.00  0.00    -0.012 A 
ATOM      8  C   UNL     1       6.720   1.602   5.036  0.00  0.00    +0.115 A 
ATOM      9  N   UNL     1       6.104   2.766   4.959  0.00  0.00    -0.263 NA
ATOM     10  C   UNL     1       6.148   3.503   3.867  0.00  0.00    +0.111 A 
ATOM     11  C   UNL     1       6.850   3.078   2.755  0.00  0.00    +0.020 A 
ATOM     12  C   UNL     1       7.515   1.863   2.800  0.00  0.00    +0.008 A 
ENDBRANCH   3   7
TORSDOF 1
ENDMDL
MODEL 7
REMARK VINA RESULT:     0.000      4.712      6.394
REMARK INTER + INTRA:          -0.256
REMARK INTER:                   0.000
REMARK INTRA:                  -0.256
REMARK UNBOUND:                -0.256
REMARK  Name = Nicotine.pdb
REMARK  2 active torsions:
REMARK  status: ('A' for Active; 'I' for Inactive)
REMARK    1  A    between atoms: C_3  and  C_6
REMARK    2  A    between atoms: N_4  and  C_12
REMARK                            x       y       z     vdW  Elec       q    Type
REMARK                         _______ _______ _______ _____ _____    ______ ____
ROOT
ATOM      1  C   UNL     1       3.349  -1.082  -5.002  0.00  0.00    +0.017 C 
ATOM      2  C   UNL     1       3.706  -0.534  -3.595  0.00  0.00    +0.025 C 
ATOM      3  C   UNL     1       3.607  -1.787  -2.699  0.00  0.00    +0.088 C 
ATOM      4  N   UNL     1       2.737  -2.753  -3.394  0.00  0.00    -0.298 NA
ATOM      5  C   UNL     1       2.276  -2.146  -4.661  0.00  0.00    +0.085 C 
ATOM      6  C   UNL     1       3.444  -4.016  -3.642  0.00  0.00    +0.105 C 
ENDROOT
BRANCH   3   7
ATOM      7  C   UNL     1       3.005  -1.419  -1.368  0.00  0.00    -0.012 A 
ATOM      8  C   UNL     1       3.208  -2.225  -0.263  0.00  0.00    +0.115 A 
ATOM      9  N   UNL     1       2.685  -1.910   0.906  0.00  0.00    -0.263 NA
ATOM     10  C   UNL     1       1.955  -0.825   1.069  0.00  0.00    +0.111 A 
ATOM     11  C   UNL     1       1.710   0.029   0.010  0.00  0.00    +0.020 A 
ATOM     12  C   UNL     1       2.247  -0.266  -1.233  0.00  0.00    +0.008 A 
ENDBRANCH   3   7
TORSDOF 1
ENDMDL
MODEL 8
REMARK VINA RESULT:     0.000      5.066      6.742
REMARK INTER + INTRA:          -0.256
REMARK INTER:                   0.000
REMARK INTRA:                  -0.256
REMARK UNBOUND:                -0.256
REMARK  Name = Nicotine.pdb
REMARK  2 active torsions:
REMARK  status: ('A' for Active; 'I' for Inactive)
REMARK    1  A    between atoms: C_3  and  C_6
REMARK    2  A    between atoms: N_4  and  C_12
REMARK                            x       y       z     vdW  Elec       q    Type
REMARK                         _______ _______ _______ _____ _____    ______ ____
ROOT
ATOM      1  C   UNL     1      -2.896  -0.161  -6.167  0.00  0.00    +0.017 C 
ATOM      2  C   UNL     1      -2.448   1.221  -5.623  0.00  0.00    +0.025 C 
ATOM      3  C   UNL     1      -2.091   0.915  -4.152  0.00  0.00    +0.088 C 
ATOM      4  N   UNL     1      -2.808  -0.316  -3.775  0.00  0.00    -0.298 NA
ATOM      5  C   UNL     1      -3.608  -0.768  -4.933  0.00  0.00    +0.085 C 
ATOM      6  C   UNL     1      -1.870  -1.360  -3.342  0.00  0.00    +0.105 C 
ENDROOT
BRANCH   3   7
ATOM      7  C   UNL     1      -2.528   2.056  -3.271  0.00  0.00    -0.012 A 
ATOM      8  C   UNL     1      -1.955   2.238  -2.027  0.00  0.00    +0.115 A 
ATOM      9  N   UNL     1      -2.332   3.233  -1.248  0.00  0.00    -0.263 NA
ATOM     10  C   UNL     1      -3.263   4.089  -1.621  0.00  0.00    +0.111 A 
ATOM     11  C   UNL     1      -3.881   3.971  -2.851  0.00  0.00    +0.020 A 
ATOM     12  C   UNL     1      -3.507   2.940  -3.699  0.00  0.00    +0.008 A 
ENDBRANCH   3   7
TORSDOF 1
ENDMDL
MODEL 9
REMARK VINA RESULT:     0.000      2.332      4.475
REMARK INTER + INTRA:          -0.256
REMARK INTER:                   0.000
REMARK INTRA:                  -0.256
REMARK UNBOUND:                -0.256
REMARK  Name = Nicotine.pdb
REMARK  2 active torsions:
REMARK  status: ('A' for Active; 'I' for Inactive)
REMARK    1  A    between atoms: C_3  and  C_6
REMARK    2  A    between atoms: N_4  and  C_12
REMARK                            x       y       z     vdW  Elec       q    Type
REMARK                         _______ _______ _______ _____ _____    ______ ____
ROOT
ATOM      1  C   UNL     1       4.613   1.096  -0.776  0.00  0.00    +0.017 C 
ATOM      2  C   UNL     1       3.749   2.152  -0.038  0.00  0.00    +0.025 C 
ATOM      3  C   UNL     1       2.783   1.286   0.799  0.00  0.00    +0.088 C 
ATOM      4  N   UNL     1       2.718  -0.040   0.159  0.00  0.00    -0.298 NA
ATOM      5  C   UNL     1       3.577  -0.024  -1.044  0.00  0.00    +0.085 C 
ATOM      6  C   UNL     1       3.136  -1.096   1.090  0.00  0.00    +0.105 C 
ENDROOT
BRANCH   3   7
ATOM      7  C   UNL     1       1.414   1.916   0.817  0.00  0.00    -0.012 A 
ATOM      8  C   UNL     1       0.513   1.602   1.816  0.00  0.00    +0.115 A 
ATOM      9  N   UNL     1      -0.687   2.149   1.839  0.00  0.00    -0.263 NA
ATOM     10  C   UNL     1      -1.074   3.009   0.918  0.00  0.00    +0.111 A 
ATOM     11  C   UNL     1      -0.227   3.371  -0.113  0.00  0.00    +0.020 A 
ATOM     12  C   UNL     1       1.044   2.821  -0.166  0.00  0.00    +0.008 A 
ENDBRANCH   3   7
TORSDOF 1
ENDMDL
MODEL 10
REMARK VINA RESULT:     0.000      4.877      6.956
REMARK INTER + INTRA:          -0.256
REMARK INTER:                   0.000
REMARK INTRA:                  -0.256
REMARK UNBOUND:                -0.256
REMARK  Name = Nicotine.pdb
REMARK  2 active torsions:
REMARK  status: ('A' for Active; 'I' for Inactive)
REMARK    1  A    between atoms: C_3  and  C_6
REMARK    2  A    between atoms: N_4  and  C_12
REMARK                            x       y       z     vdW  Elec       q    Type
REMARK                         _______ _______ _______ _____ _____    ______ ____
ROOT
ATOM      1  C   UNL     1       3.202   0.904   0.720  0.00  0.00    +0.017 C 
ATOM      2  C   UNL     1       4.290  -0.069   1.248  0.00  0.00    +0.025 C 
ATOM      3  C   UNL     1       4.151  -1.287   0.310  0.00  0.00    +0.088 C 
ATOM      4  N   UNL     1       2.792  -1.247  -0.259  0.00  0.00    -0.298 NA
ATOM      5  C   UNL     1       2.080  -0.079   0.302  0.00  0.00    +0.085 C 
ATOM      6  C   UNL     1       2.836  -1.183  -1.726  0.00  0.00    +0.105 C 
ENDROOT
BRANCH   3   7
ATOM      7  C   UNL     1       4.344  -2.560   1.092  0.00  0.00    -0.012 A 
ATOM      8  C   UNL     1       4.702  -3.729   0.447  0.00  0.00    +0.115 A 
ATOM      9  N   UNL     1       4.873  -4.848   1.123  0.00  0.00    -0.263 NA
ATOM     10  C   UNL     1       4.711  -4.899   2.431  0.00  0.00    +0.111 A 
ATOM     11  C   UNL     1       4.354  -3.770   3.144  0.00  0.00    +0.020 A 
ATOM     12  C   UNL     1       4.170  -2.574   2.467  0.00  0.00    +0.008 A 
ENDBRANCH   3   7
TORSDOF 1
ENDMDL
