MODEL 1
REMARK VINA RESULT:    -3.805      0.000      0.000
REMARK INTER + INTRA:          -4.242
REMARK INTER:                  -4.028
REMARK INTRA:                  -0.214
REMARK UNBOUND:                -0.214
REMARK  Name = Nicotine.pdb
REMARK  2 active torsions:
REMARK  status: ('A' for Active; 'I' for Inactive)
REMARK    1  A    between atoms: C_3  and  C_6
REMARK    2  A    between atoms: N_4  and  C_12
REMARK                            x       y       z     vdW  Elec       q    Type
REMARK                         _______ _______ _______ _____ _____    ______ ____
ROOT
ATOM      1  C   UNL     1       4.843  -4.673  -4.402  0.00  0.00    +0.017 C 
ATOM      2  C   UNL     1       6.128  -3.837  -4.163  0.00  0.00    +0.025 C 
ATOM      3  C   UNL     1       7.151  -4.491  -5.116  0.00  0.00    +0.088 C 
ATOM      4  N   UNL     1       6.678  -5.860  -5.390  0.00  0.00    -0.298 NA
ATOM      5  C   UNL     1       5.429  -6.088  -4.632  0.00  0.00    +0.085 C 
ATOM      6  C   UNL     1       6.467  -6.067  -6.828  0.00  0.00    +0.105 C 
ENDROOT
BRANCH   3   7
ATOM      7  C   UNL     1       8.506  -4.537  -4.460  0.00  0.00    -0.012 A 
ATOM      8  C   UNL     1       8.615  -4.629  -3.085  0.00  0.00    +0.115 A 
ATOM      9  N   UNL     1       9.798  -4.670  -2.503  0.00  0.00    -0.263 NA
ATOM     10  C   UNL     1      10.916  -4.624  -3.201  0.00  0.00    +0.111 A 
ATOM     11  C   UNL     1      10.886  -4.532  -4.580  0.00  0.00    +0.020 A 
ATOM     12  C   UNL     1       9.660  -4.492  -5.227  0.00  0.00    +0.008 A 
ENDBRANCH   3   7
TORSDOF 1
ENDMDL
MODEL 2
REMARK VINA RESULT:    -3.253      1.602      4.391
REMARK INTER + INTRA:          -3.657
REMARK INTER:                  -3.444
REMARK INTRA:                  -0.214
REMARK UNBOUND:                -0.214
REMARK  Name = Nicotine.pdb
REMARK  2 active torsions:
REMARK  status: ('A' for Active; 'I' for Inactive)
REMARK    1  A    between atoms: C_3  and  C_6
REMARK    2  A    between atoms: N_4  and  C_12
REMARK                            x       y       z     vdW  Elec       q    Type
REMARK                         _______ _______ _______ _____ _____    ______ ____
ROOT
ATOM      1  C   UNL     1      10.950  -5.288  -2.225  0.00  0.00    +0.017 C 
ATOM      2  C   UNL     1       9.484  -5.781  -2.104  0.00  0.00    +0.025 C 
ATOM      3  C   UNL     1       9.031  -5.886  -3.575  0.00  0.00    +0.088 C 
ATOM      4  N   UNL     1       9.909  -5.007  -4.367  0.00  0.00    -0.298 NA
ATOM      5  C   UNL     1      10.863  -4.346  -3.451  0.00  0.00    +0.085 C 
ATOM      6  C   UNL     1      10.615  -5.765  -5.408  0.00  0.00    +0.105 C 
ENDROOT
BRANCH   3   7
ATOM      7  C   UNL     1       7.599  -5.435  -3.704  0.00  0.00    -0.012 A 
ATOM      8  C   UNL     1       6.593  -6.097  -3.026  0.00  0.00    +0.115 A 
ATOM      9  N   UNL     1       5.337  -5.708  -3.134  0.00  0.00    -0.263 NA
ATOM     10  C   UNL     1       4.992  -4.681  -3.885  0.00  0.00    +0.111 A 
ATOM     11  C   UNL     1       5.943  -3.970  -4.592  0.00  0.00    +0.020 A 
ATOM     12  C   UNL     1       7.274  -4.346  -4.500  0.00  0.00    +0.008 A 
ENDBRANCH   3   7
TORSDOF 1
ENDMDL
MODEL 3
REMARK VINA RESULT:    -2.852      1.311      2.081
REMARK INTER + INTRA:          -3.233
REMARK INTER:                  -2.979
REMARK INTRA:                  -0.254
REMARK UNBOUND:                -0.214
REMARK  Name = Nicotine.pdb
REMARK  2 active torsions:
REMARK  status: ('A' for Active; 'I' for Inactive)
REMARK    1  A    between atoms: C_3  and  C_6
REMARK    2  A    between atoms: N_4  and  C_12
REMARK                            x       y       z     vdW  Elec       q    Type
REMARK                         _______ _______ _______ _____ _____    ______ ____
ROOT
ATOM      1  C   UNL     1       6.840  -4.689  -6.417  0.00  0.00    +0.017 C 
ATOM      2  C   UNL     1       8.176  -5.257  -5.869  0.00  0.00    +0.025 C 
ATOM      3  C   UNL     1       7.790  -5.754  -4.460  0.00  0.00    +0.088 C 
ATOM      4  N   UNL     1       6.575  -5.023  -4.056  0.00  0.00    -0.298 NA
ATOM      5  C   UNL     1       6.210  -4.083  -5.138  0.00  0.00    +0.085 C 
ATOM      6  C   UNL     1       5.473  -5.950  -3.769  0.00  0.00    +0.105 C 
ENDROOT
BRANCH   3   7
ATOM      7  C   UNL     1       8.908  -5.467  -3.491  0.00  0.00    -0.012 A 
ATOM      8  C   UNL     1       8.924  -6.063  -2.245  0.00  0.00    +0.115 A 
ATOM      9  N   UNL     1       9.898  -5.818  -1.391  0.00  0.00    -0.263 NA
ATOM     10  C   UNL     1      10.889  -5.000  -1.687  0.00  0.00    +0.111 A 
ATOM     11  C   UNL     1      10.942  -4.367  -2.915  0.00  0.00    +0.020 A 
ATOM     12  C   UNL     1       9.937  -4.605  -3.840  0.00  0.00    +0.008 A 
ENDBRANCH   3   7
TORSDOF 1
ENDMDL
MODEL 4
REMARK VINA RESULT:    -2.511      1.696      4.423
REMARK INTER + INTRA:          -2.872
REMARK INTER:                  -2.657
REMARK INTRA:                  -0.215
REMARK UNBOUND:                -0.214
REMARK  Name = Nicotine.pdb
REMARK  2 active torsions:
REMARK  status: ('A' for Active; 'I' for Inactive)
REMARK    1  A    between atoms: C_3  and  C_6
REMARK    2  A    between atoms: N_4  and  C_12
REMARK                            x       y       z     vdW  Elec       q    Type
REMARK                         _______ _______ _______ _____ _____    ______ ____
ROOT
ATOM      1  C   UNL     1      10.769  -4.309  -4.472  0.00  0.00    +0.017 C 
ATOM      2  C   UNL     1       9.668  -5.104  -3.721  0.00  0.00    +0.025 C 
ATOM      3  C   UNL     1       8.995  -5.915  -4.849  0.00  0.00    +0.088 C 
ATOM      4  N   UNL     1       9.278  -5.218  -6.117  0.00  0.00    -0.298 NA
ATOM      5  C   UNL     1      10.070  -4.005  -5.821  0.00  0.00    +0.085 C 
ATOM      6  C   UNL     1       9.989  -6.096  -7.054  0.00  0.00    +0.105 C 
ENDROOT
BRANCH   3   7
ATOM      7  C   UNL     1       7.508  -5.978  -4.618  0.00  0.00    -0.012 A 
ATOM      8  C   UNL     1       6.636  -6.041  -5.688  0.00  0.00    +0.115 A 
ATOM      9  N   UNL     1       5.333  -6.097  -5.495  0.00  0.00    -0.263 NA
ATOM     10  C   UNL     1       4.811  -6.095  -4.284  0.00  0.00    +0.111 A 
ATOM     11  C   UNL     1       5.621  -6.035  -3.165  0.00  0.00    +0.020 A 
ATOM     12  C   UNL     1       6.996  -5.980  -3.329  0.00  0.00    +0.008 A 
ENDBRANCH   3   7
TORSDOF 1
ENDMDL
MODEL 5
REMARK VINA RESULT:    -2.259      1.803      2.763
REMARK INTER + INTRA:          -2.605
REMARK INTER:                  -2.435
REMARK INTRA:                  -0.170
REMARK UNBOUND:                -0.214
REMARK  Name = Nicotine.pdb
REMARK  2 active torsions:
REMARK  status: ('A' for Active; 'I' for Inactive)
REMARK    1  A    between atoms: C_3  and  C_6
REMARK    2  A    between atoms: N_4  and  C_12
REMARK                            x       y       z     vdW  Elec       q    Type
REMARK                         _______ _______ _______ _____ _____    ______ ____
ROOT
ATOM      1  C   UNL     1       5.426  -5.964  -3.212  0.00  0.00    +0.017 C 
ATOM      2  C   UNL     1       6.947  -6.097  -3.483  0.00  0.00    +0.025 C 
ATOM      3  C   UNL     1       7.360  -4.658  -3.860  0.00  0.00    +0.088 C 
ATOM      4  N   UNL     1       6.145  -3.962  -4.320  0.00  0.00    -0.298 NA
ATOM      5  C   UNL     1       5.011  -4.909  -4.267  0.00  0.00    +0.085 C 
ATOM      6  C   UNL     1       5.877  -2.773  -3.500  0.00  0.00    +0.105 C 
ENDROOT
BRANCH   3   7
ATOM      7  C   UNL     1       8.383  -4.692  -4.966  0.00  0.00    -0.012 A 
ATOM      8  C   UNL     1       7.985  -4.833  -6.282  0.00  0.00    +0.115 A 
ATOM      9  N   UNL     1       8.874  -4.864  -7.256  0.00  0.00    -0.263 NA
ATOM     10  C   UNL     1      10.166  -4.762  -7.018  0.00  0.00    +0.111 A 
ATOM     11  C   UNL     1      10.639  -4.617  -5.727  0.00  0.00    +0.020 A 
ATOM     12  C   UNL     1       9.734  -4.576  -4.677  0.00  0.00    +0.008 A 
ENDBRANCH   3   7
TORSDOF 1
ENDMDL
MODEL 6
REMARK VINA RESULT:    -1.982      1.277      4.669
REMARK INTER + INTRA:          -2.312
REMARK INTER:                  -2.101
REMARK INTRA:                  -0.211
REMARK UNBOUND:                -0.214
REMARK  Name = Nicotine.pdb
REMARK  2 active torsions:
REMARK  status: ('A' for Active; 'I' for Inactive)
REMARK    1  A    between atoms: C_3  and  C_6
REMARK    2  A    between atoms: N_4  and  C_12
REMARK                            x       y       z     vdW  Elec       q    Type
REMARK                         _______ _______ _______ _____ _____    ______ ____
ROOT
ATOM      1  C   UNL     1      10.880  -5.430  -4.973  0.00  0.00    +0.017 C 
ATOM      2  C   UNL     1       9.462  -4.958  -5.392  0.00  0.00    +0.025 C 
ATOM      3  C   UNL     1       8.823  -4.546  -4.050  0.00  0.00    +0.088 C 
ATOM      4  N   UNL     1       9.554  -5.251  -2.982  0.00  0.00    -0.298 NA
ATOM      5  C   UNL     1      10.595  -6.097  -3.604  0.00  0.00    +0.085 C 
ATOM      6  C   UNL     1      10.146  -4.301  -2.031  0.00  0.00    +0.105 C 
ENDROOT
BRANCH   3   7
ATOM      7  C   UNL     1       7.370  -4.946  -4.029  0.00  0.00    -0.012 A 
ATOM      8  C   UNL     1       6.512  -4.514  -5.023  0.00  0.00    +0.115 A 
ATOM      9  N   UNL     1       5.240  -4.861  -5.012  0.00  0.00    -0.263 NA
ATOM     10  C   UNL     1       4.737  -5.625  -4.063  0.00  0.00    +0.111 A 
ATOM     11  C   UNL     1       5.535  -6.095  -3.037  0.00  0.00    +0.020 A 
ATOM     12  C   UNL     1       6.879  -5.757  -3.017  0.00  0.00    +0.008 A 
ENDBRANCH   3   7
TORSDOF 1
ENDMDL
