MODEL 1
REMARK VINA RESULT:    -0.142      0.000      0.000
REMARK INTER + INTRA:          -0.407
REMARK INTER:                  -0.150
REMARK INTRA:                  -0.256
REMARK UNBOUND:                -0.256
REMARK  Name = Nicotine.pdb
REMARK  2 active torsions:
REMARK  status: ('A' for Active; 'I' for Inactive)
REMARK    1  A    between atoms: C_3  and  C_6
REMARK    2  A    between atoms: N_4  and  C_12
REMARK                            x       y       z     vdW  Elec       q    Type
REMARK                         _______ _______ _______ _____ _____    ______ ____
ROOT
ATOM      1  C   UNL     1       3.427   0.306  -5.748  0.00  0.00    +0.017 C 
ATOM      2  C   UNL     1       2.757  -1.008  -5.266  0.00  0.00    +0.025 C 
ATOM      3  C   UNL     1       3.519  -2.096  -6.052  0.00  0.00    +0.088 C 
ATOM      4  N   UNL     1       4.104  -1.447  -7.239  0.00  0.00    -0.298 NA
ATOM      5  C   UNL     1       3.719  -0.020  -7.235  0.00  0.00    +0.085 C 
ATOM      6  C   UNL     1       5.565  -1.598  -7.256  0.00  0.00    +0.105 C 
ENDROOT
BRANCH   3   7
ATOM      7  C   UNL     1       2.566  -3.183  -6.478  0.00  0.00    -0.012 A 
ATOM      8  C   UNL     1       3.041  -4.435  -6.818  0.00  0.00    +0.115 A 
ATOM      9  N   UNL     1       2.215  -5.392  -7.192  0.00  0.00    -0.263 NA
ATOM     10  C   UNL     1       0.912  -5.197  -7.256  0.00  0.00    +0.111 A 
ATOM     11  C   UNL     1       0.364  -3.970  -6.930  0.00  0.00    +0.020 A 
ATOM     12  C   UNL     1       1.201  -2.942  -6.528  0.00  0.00    +0.008 A 
ENDBRANCH   3   7
TORSDOF 1
ENDMDL
MODEL 2
REMARK VINA RESULT:    -0.137      1.660      2.365
REMARK INTER + INTRA:          -0.401
REMARK INTER:                  -0.146
REMARK INTRA:                  -0.255
REMARK UNBOUND:                -0.256
REMARK  Name = Nicotine.pdb
REMARK  2 active torsions:
REMARK  status: ('A' for Active; 'I' for Inactive)
REMARK    1  A    between atoms: C_3  and  C_6
REMARK    2  A    between atoms: N_4  and  C_12
REMARK                            x       y       z     vdW  Elec       q    Type
REMARK                         _______ _______ _______ _____ _____    ______ ____
ROOT
ATOM      1  C   UNL     1       5.954  -1.428  -5.409  0.00  0.00    +0.017 C 
ATOM      2  C   UNL     1       4.456  -1.486  -5.010  0.00  0.00    +0.025 C 
ATOM      3  C   UNL     1       3.931  -2.699  -5.806  0.00  0.00    +0.088 C 
ATOM      4  N   UNL     1       4.850  -2.909  -6.939  0.00  0.00    -0.298 NA
ATOM      5  C   UNL     1       5.900  -1.869  -6.893  0.00  0.00    +0.085 C 
ATOM      6  C   UNL     1       5.439  -4.254  -6.898  0.00  0.00    +0.105 C 
ENDROOT
BRANCH   3   7
ATOM      7  C   UNL     1       2.542  -2.416  -6.317  0.00  0.00    -0.012 A 
ATOM      8  C   UNL     1       1.755  -3.441  -6.806  0.00  0.00    +0.115 A 
ATOM      9  N   UNL     1       0.538  -3.201  -7.255  0.00  0.00    -0.263 NA
ATOM     10  C   UNL     1       0.026  -1.986  -7.256  0.00  0.00    +0.111 A 
ATOM     11  C   UNL     1       0.754  -0.911  -6.781  0.00  0.00    +0.020 A 
ATOM     12  C   UNL     1       2.036  -1.125  -6.296  0.00  0.00    +0.008 A 
ENDBRANCH   3   7
TORSDOF 1
ENDMDL
MODEL 3
REMARK VINA RESULT:    -0.133      1.637      2.669
REMARK INTER + INTRA:          -0.397
REMARK INTER:                  -0.142
REMARK INTRA:                  -0.256
REMARK UNBOUND:                -0.256
REMARK  Name = Nicotine.pdb
REMARK  2 active torsions:
REMARK  status: ('A' for Active; 'I' for Inactive)
REMARK    1  A    between atoms: C_3  and  C_6
REMARK    2  A    between atoms: N_4  and  C_12
REMARK                            x       y       z     vdW  Elec       q    Type
REMARK                         _______ _______ _______ _____ _____    ______ ____
ROOT
ATOM      1  C   UNL     1       6.189  -3.000  -5.638  0.00  0.00    +0.017 C 
ATOM      2  C   UNL     1       5.185  -3.392  -6.754  0.00  0.00    +0.025 C 
ATOM      3  C   UNL     1       4.045  -2.368  -6.571  0.00  0.00    +0.088 C 
ATOM      4  N   UNL     1       4.120  -1.875  -5.184  0.00  0.00    -0.298 NA
ATOM      5  C   UNL     1       5.234  -2.563  -4.499  0.00  0.00    +0.085 C 
ATOM      6  C   UNL     1       4.301  -0.418  -5.152  0.00  0.00    +0.105 C 
ENDROOT
BRANCH   3   7
ATOM      7  C   UNL     1       2.714  -3.035  -6.808  0.00  0.00    -0.012 A 
ATOM      8  C   UNL     1       1.583  -2.276  -7.037  0.00  0.00    +0.115 A 
ATOM      9  N   UNL     1       0.415  -2.851  -7.245  0.00  0.00    -0.263 NA
ATOM     10  C   UNL     1       0.278  -4.163  -7.244  0.00  0.00    +0.111 A 
ATOM     11  C   UNL     1       1.365  -4.987  -7.022  0.00  0.00    +0.020 A 
ATOM     12  C   UNL     1       2.611  -4.418  -6.804  0.00  0.00    +0.008 A 
ENDBRANCH   3   7
TORSDOF 1
ENDMDL
MODEL 4
REMARK VINA RESULT:    -0.129      1.817      2.715
REMARK INTER + INTRA:          -0.393
REMARK INTER:                  -0.137
REMARK INTRA:                  -0.256
REMARK UNBOUND:                -0.256
REMARK  Name = Nicotine.pdb
REMARK  2 active torsions:
REMARK  status: ('A' for Active; 'I' for Inactive)
REMARK    1  A    between atoms: C_3  and  C_6
REMARK    2  A    between atoms: N_4  and  C_12
REMARK                            x       y       z     vdW  Elec       q    Type
REMARK                         _______ _______ _______ _____ _____    ______ ____
ROOT
ATOM      1  C   UNL     1       0.641  -1.605  -5.501  0.00  0.00    +0.017 C 
ATOM      2  C   UNL     1       1.680  -2.676  -5.077  0.00  0.00    +0.025 C 
ATOM      3  C   UNL     1       2.892  -2.360  -5.980  0.00  0.00    +0.088 C 
ATOM      4  N   UNL     1       2.384  -1.618  -7.148  0.00  0.00    -0.298 NA
ATOM      5  C   UNL     1       0.917  -1.485  -7.021  0.00  0.00    +0.085 C 
ATOM      6  C   UNL     1       3.026  -0.301  -7.256  0.00  0.00    +0.105 C 
ENDROOT
BRANCH   3   7
ATOM      7  C   UNL     1       3.545  -3.641  -6.429  0.00  0.00    -0.012 A 
ATOM      8  C   UNL     1       4.882  -3.660  -6.778  0.00  0.00    +0.115 A 
ATOM      9  N   UNL     1       5.461  -4.777  -7.172  0.00  0.00    -0.263 NA
ATOM     10  C   UNL     1       4.796  -5.913  -7.249  0.00  0.00    +0.111 A 
ATOM     11  C   UNL     1       3.456  -5.972  -6.915  0.00  0.00    +0.020 A 
ATOM     12  C   UNL     1       2.814  -4.818  -6.492  0.00  0.00    +0.008 A 
ENDBRANCH   3   7
TORSDOF 1
ENDMDL
MODEL 5
REMARK VINA RESULT:    -0.124      2.127      3.783
REMARK INTER + INTRA:          -0.387
REMARK INTER:                  -0.134
REMARK INTRA:                  -0.253
REMARK UNBOUND:                -0.256
REMARK  Name = Nicotine.pdb
REMARK  2 active torsions:
REMARK  status: ('A' for Active; 'I' for Inactive)
REMARK    1  A    between atoms: C_3  and  C_6
REMARK    2  A    between atoms: N_4  and  C_12
REMARK                            x       y       z     vdW  Elec       q    Type
REMARK                         _______ _______ _______ _____ _____    ______ ____
ROOT
ATOM      1  C   UNL     1       3.413  -4.590  -6.211  0.00  0.00    +0.017 C 
ATOM      2  C   UNL     1       2.585  -3.749  -7.219  0.00  0.00    +0.025 C 
ATOM      3  C   UNL     1       3.118  -2.318  -6.997  0.00  0.00    +0.088 C 
ATOM      4  N   UNL     1       3.714  -2.277  -5.650  0.00  0.00    -0.298 NA
ATOM      5  C   UNL     1       3.550  -3.606  -5.022  0.00  0.00    +0.085 C 
ATOM      6  C   UNL     1       5.130  -1.894  -5.711  0.00  0.00    +0.105 C 
ENDROOT
BRANCH   3   7
ATOM      7  C   UNL     1       1.985  -1.329  -7.088  0.00  0.00    -0.012 A 
ATOM      8  C   UNL     1       2.244   0.026  -7.175  0.00  0.00    +0.115 A 
ATOM      9  N   UNL     1       1.258   0.898  -7.255  0.00  0.00    -0.263 NA
ATOM     10  C   UNL     1      -0.004   0.518  -7.256  0.00  0.00    +0.111 A 
ATOM     11  C   UNL     1      -0.341  -0.820  -7.172  0.00  0.00    +0.020 A 
ATOM     12  C   UNL     1       0.669  -1.766  -7.092  0.00  0.00    +0.008 A 
ENDBRANCH   3   7
TORSDOF 1
ENDMDL
MODEL 6
REMARK VINA RESULT:    -0.124      1.944      4.265
REMARK INTER + INTRA:          -0.387
REMARK INTER:                  -0.132
REMARK INTRA:                  -0.256
REMARK UNBOUND:                -0.256
REMARK  Name = Nicotine.pdb
REMARK  2 active torsions:
REMARK  status: ('A' for Active; 'I' for Inactive)
REMARK    1  A    between atoms: C_3  and  C_6
REMARK    2  A    between atoms: N_4  and  C_12
REMARK                            x       y       z     vdW  Elec       q    Type
REMARK                         _______ _______ _______ _____ _____    ______ ____
ROOT
ATOM      1  C   UNL     1       1.219  -4.236  -5.931  0.00  0.00    +0.017 C 
ATOM      2  C   UNL     1       2.689  -4.357  -5.450  0.00  0.00    +0.025 C 
ATOM      3  C   UNL     1       3.309  -3.013  -5.889  0.00  0.00    +0.088 C 
ATOM      4  N   UNL     1       2.474  -2.483  -6.982  0.00  0.00    -0.298 NA
ATOM      5  C   UNL     1       1.386  -3.446  -7.253  0.00  0.00    +0.085 C 
ATOM      6  C   UNL     1       1.934  -1.161  -6.638  0.00  0.00    +0.105 C 
ENDROOT
BRANCH   3   7
ATOM      7  C   UNL     1       4.717  -3.234  -6.380  0.00  0.00    -0.012 A 
ATOM      8  C   UNL     1       5.593  -2.171  -6.492  0.00  0.00    +0.115 A 
ATOM      9  N   UNL     1       6.827  -2.356  -6.921  0.00  0.00    -0.263 NA
ATOM     10  C   UNL     1       7.272  -3.550  -7.256  0.00  0.00    +0.111 A 
ATOM     11  C   UNL     1       6.454  -4.661  -7.169  0.00  0.00    +0.020 A 
ATOM     12  C   UNL     1       5.152  -4.506  -6.718  0.00  0.00    +0.008 A 
ENDBRANCH   3   7
TORSDOF 1
ENDMDL
MODEL 7
REMARK VINA RESULT:    -0.111      1.815      4.569
REMARK INTER + INTRA:          -0.374
REMARK INTER:                  -0.119
REMARK INTRA:                  -0.255
REMARK UNBOUND:                -0.256
REMARK  Name = Nicotine.pdb
REMARK  2 active torsions:
REMARK  status: ('A' for Active; 'I' for Inactive)
REMARK    1  A    between atoms: C_3  and  C_6
REMARK    2  A    between atoms: N_4  and  C_12
REMARK                            x       y       z     vdW  Elec       q    Type
REMARK                         _______ _______ _______ _____ _____    ______ ____
ROOT
ATOM      1  C   UNL     1      -1.726  -4.246  -6.173  0.00  0.00    +0.017 C 
ATOM      2  C   UNL     1      -0.591  -3.973  -7.195  0.00  0.00    +0.025 C 
ATOM      3  C   UNL     1       0.665  -4.501  -6.469  0.00  0.00    +0.088 C 
ATOM      4  N   UNL     1       0.365  -4.507  -5.026  0.00  0.00    -0.298 NA
ATOM      5  C   UNL     1      -1.004  -3.985  -4.827  0.00  0.00    +0.085 C 
ATOM      6  C   UNL     1       0.500  -5.858  -4.466  0.00  0.00    +0.105 C 
ENDROOT
BRANCH   3   7
ATOM      7  C   UNL     1       1.836  -3.595  -6.747  0.00  0.00    -0.012 A 
ATOM      8  C   UNL     1       3.121  -4.103  -6.777  0.00  0.00    +0.115 A 
ATOM      9  N   UNL     1       4.152  -3.317  -7.019  0.00  0.00    -0.263 NA
ATOM     10  C   UNL     1       4.002  -2.026  -7.240  0.00  0.00    +0.111 A 
ATOM     11  C   UNL     1       2.747  -1.446  -7.226  0.00  0.00    +0.020 A 
ATOM     12  C   UNL     1       1.639  -2.242  -6.980  0.00  0.00    +0.008 A 
ENDBRANCH   3   7
TORSDOF 1
ENDMDL
MODEL 8
REMARK VINA RESULT:    -0.110      2.335      3.451
REMARK INTER + INTRA:          -0.372
REMARK INTER:                  -0.123
REMARK INTRA:                  -0.249
REMARK UNBOUND:                -0.256
REMARK  Name = Nicotine.pdb
REMARK  2 active torsions:
REMARK  status: ('A' for Active; 'I' for Inactive)
REMARK    1  A    between atoms: C_3  and  C_6
REMARK    2  A    between atoms: N_4  and  C_12
REMARK                            x       y       z     vdW  Elec       q    Type
REMARK                         _______ _______ _______ _____ _____    ______ ____
ROOT
ATOM      1  C   UNL     1       7.364  -3.357  -5.216  0.00  0.00    +0.017 C 
ATOM      2  C   UNL     1       5.913  -2.925  -4.875  0.00  0.00    +0.025 C 
ATOM      3  C   UNL     1       5.056  -3.996  -5.582  0.00  0.00    +0.088 C 
ATOM      4  N   UNL     1       5.883  -4.579  -6.654  0.00  0.00    -0.298 NA
ATOM      5  C   UNL     1       7.197  -3.901  -6.657  0.00  0.00    +0.085 C 
ATOM      6  C   UNL     1       6.038  -6.028  -6.471  0.00  0.00    +0.105 C 
ENDROOT
BRANCH   3   7
ATOM      7  C   UNL     1       3.824  -3.360  -6.172  0.00  0.00    -0.012 A 
ATOM      8  C   UNL     1       2.828  -4.143  -6.723  0.00  0.00    +0.115 A 
ATOM      9  N   UNL     1       1.747  -3.595  -7.241  0.00  0.00    -0.263 NA
ATOM     10  C   UNL     1       1.572  -2.288  -7.256  0.00  0.00    +0.111 A 
ATOM     11  C   UNL     1       2.525  -1.440  -6.722  0.00  0.00    +0.020 A 
ATOM     12  C   UNL     1       3.673  -1.981  -6.164  0.00  0.00    +0.008 A 
ENDBRANCH   3   7
TORSDOF 1
ENDMDL
MODEL 9
REMARK VINA RESULT:    -0.091      1.699      3.039
REMARK INTER + INTRA:          -0.352
REMARK INTER:                  -0.137
REMARK INTRA:                  -0.215
REMARK UNBOUND:                -0.256
REMARK  Name = Nicotine.pdb
REMARK  2 active torsions:
REMARK  status: ('A' for Active; 'I' for Inactive)
REMARK    1  A    between atoms: C_3  and  C_6
REMARK    2  A    between atoms: N_4  and  C_12
REMARK                            x       y       z     vdW  Elec       q    Type
REMARK                         _______ _______ _______ _____ _____    ______ ____
ROOT
ATOM      1  C   UNL     1       4.596  -4.680  -6.211  0.00  0.00    +0.017 C 
ATOM      2  C   UNL     1       3.392  -4.812  -7.181  0.00  0.00    +0.025 C 
ATOM      3  C   UNL     1       2.599  -3.512  -6.931  0.00  0.00    +0.088 C 
ATOM      4  N   UNL     1       2.977  -3.021  -5.593  0.00  0.00    -0.298 NA
ATOM      5  C   UNL     1       3.944  -3.969  -4.999  0.00  0.00    +0.085 C 
ATOM      6  C   UNL     1       3.544  -1.668  -5.669  0.00  0.00    +0.105 C 
ENDROOT
BRANCH   3   7
ATOM      7  C   UNL     1       1.120  -3.796  -6.975  0.00  0.00    -0.012 A 
ATOM      8  C   UNL     1       0.649  -5.079  -6.767  0.00  0.00    +0.115 A 
ATOM      9  N   UNL     1      -0.644  -5.336  -6.804  0.00  0.00    -0.263 NA
ATOM     10  C   UNL     1      -1.533  -4.391  -7.039  0.00  0.00    +0.111 A 
ATOM     11  C   UNL     1      -1.136  -3.085  -7.256  0.00  0.00    +0.020 A 
ATOM     12  C   UNL     1       0.215  -2.775  -7.219  0.00  0.00    +0.008 A 
ENDBRANCH   3   7
TORSDOF 1
ENDMDL
MODEL 10
REMARK VINA RESULT:    -0.087      1.596      4.840
REMARK INTER + INTRA:          -0.348
REMARK INTER:                  -0.093
REMARK INTRA:                  -0.256
REMARK UNBOUND:                -0.256
REMARK  Name = Nicotine.pdb
REMARK  2 active torsions:
REMARK  status: ('A' for Active; 'I' for Inactive)
REMARK    1  A    between atoms: C_3  and  C_6
REMARK    2  A    between atoms: N_4  and  C_12
REMARK                            x       y       z     vdW  Elec       q    Type
REMARK                         _______ _______ _______ _____ _____    ______ ____
ROOT
ATOM      1  C   UNL     1       2.418  -3.918  -5.486  0.00  0.00    +0.017 C 
ATOM      2  C   UNL     1       3.355  -2.756  -5.065  0.00  0.00    +0.025 C 
ATOM      3  C   UNL     1       2.862  -1.580  -5.935  0.00  0.00    +0.088 C 
ATOM      4  N   UNL     1       2.165  -2.160  -7.097  0.00  0.00    -0.298 NA
ATOM      5  C   UNL     1       2.226  -3.633  -6.997  0.00  0.00    +0.085 C 
ATOM      6  C   UNL     1       0.774  -1.693  -7.163  0.00  0.00    +0.105 C 
ENDROOT
BRANCH   3   7
ATOM      7  C   UNL     1       4.037  -0.758  -6.399  0.00  0.00    -0.012 A 
ATOM      8  C   UNL     1       3.852   0.539  -6.838  0.00  0.00    +0.115 A 
ATOM      9  N   UNL     1       4.875   1.266  -7.245  0.00  0.00    -0.263 NA
ATOM     10  C   UNL     1       6.105   0.790  -7.250  0.00  0.00    +0.111 A 
ATOM     11  C   UNL     1       6.367  -0.499  -6.824  0.00  0.00    +0.020 A 
ATOM     12  C   UNL     1       5.317  -1.291  -6.384  0.00  0.00    +0.008 A 
ENDBRANCH   3   7
TORSDOF 1
ENDMDL
