MODEL 1
REMARK VINA RESULT:     0.000      0.000      0.000
REMARK INTER + INTRA:          -0.256
REMARK INTER:                   0.000
REMARK INTRA:                  -0.256
REMARK UNBOUND:                -0.256
REMARK  Name = Nicotine.pdb
REMARK  2 active torsions:
REMARK  status: ('A' for Active; 'I' for Inactive)
REMARK    1  A    between atoms: C_3  and  C_6
REMARK    2  A    between atoms: N_4  and  C_12
REMARK                            x       y       z     vdW  Elec       q    Type
REMARK                         _______ _______ _______ _____ _____    ______ ____
ROOT
ATOM      1  C   UNL     1       4.191  -5.328  -5.252  0.00  0.00    +0.017 C 
ATOM      2  C   UNL     1       3.623  -4.820  -3.901  0.00  0.00    +0.025 C 
ATOM      3  C   UNL     1       2.381  -4.010  -4.329  0.00  0.00    +0.088 C 
ATOM      4  N   UNL     1       2.577  -3.622  -5.737  0.00  0.00    -0.298 NA
ATOM      5  C   UNL     1       3.889  -4.131  -6.188  0.00  0.00    +0.085 C 
ATOM      6  C   UNL     1       1.492  -4.138  -6.582  0.00  0.00    +0.105 C 
ENDROOT
BRANCH   3   7
ATOM      7  C   UNL     1       2.250  -2.779  -3.470  0.00  0.00    -0.012 A 
ATOM      8  C   UNL     1       1.031  -2.140  -3.346  0.00  0.00    +0.115 A 
ATOM      9  N   UNL     1       0.908  -1.062  -2.596  0.00  0.00    -0.263 NA
ATOM     10  C   UNL     1       1.932  -0.553  -1.940  0.00  0.00    +0.111 A 
ATOM     11  C   UNL     1       3.182  -1.139  -2.015  0.00  0.00    +0.020 A 
ATOM     12  C   UNL     1       3.349  -2.277  -2.790  0.00  0.00    +0.008 A 
ENDBRANCH   3   7
TORSDOF 1
ENDMDL
MODEL 2
REMARK VINA RESULT:     0.000      4.832      6.457
REMARK INTER + INTRA:          -0.256
REMARK INTER:                   0.000
REMARK INTRA:                  -0.256
REMARK UNBOUND:                -0.256
REMARK  Name = Nicotine.pdb
REMARK  2 active torsions:
REMARK  status: ('A' for Active; 'I' for Inactive)
REMARK    1  A    between atoms: C_3  and  C_6
REMARK    2  A    between atoms: N_4  and  C_12
REMARK                            x       y       z     vdW  Elec       q    Type
REMARK                         _______ _______ _______ _____ _____    ______ ____
ROOT
ATOM      1  C   UNL     1      -0.278  -2.837  -0.834  0.00  0.00    +0.017 C 
ATOM      2  C   UNL     1      -0.515  -1.810  -1.972  0.00  0.00    +0.025 C 
ATOM      3  C   UNL     1      -0.361  -0.453  -1.252  0.00  0.00    +0.088 C 
ATOM      4  N   UNL     1      -0.605  -0.690   0.183  0.00  0.00    -0.298 NA
ATOM      5  C   UNL     1      -0.926  -2.120   0.376  0.00  0.00    +0.085 C 
ATOM      6  C   UNL     1       0.560  -0.297   0.987  0.00  0.00    +0.105 C 
ENDROOT
BRANCH   3   7
ATOM      7  C   UNL     1      -1.368   0.530  -1.789  0.00  0.00    -0.012 A 
ATOM      8  C   UNL     1      -1.164   1.889  -1.646  0.00  0.00    +0.115 A 
ATOM      9  N   UNL     1      -2.040   2.757  -2.114  0.00  0.00    -0.263 NA
ATOM     10  C   UNL     1      -3.138   2.368  -2.731  0.00  0.00    +0.111 A 
ATOM     11  C   UNL     1      -3.410   1.024  -2.912  0.00  0.00    +0.020 A 
ATOM     12  C   UNL     1      -2.509   0.083  -2.439  0.00  0.00    +0.008 A 
ENDBRANCH   3   7
TORSDOF 1
ENDMDL
MODEL 3
REMARK VINA RESULT:     0.000      4.571      7.458
REMARK INTER + INTRA:          -0.256
REMARK INTER:                   0.000
REMARK INTRA:                  -0.256
REMARK UNBOUND:                -0.256
REMARK  Name = Nicotine.pdb
REMARK  2 active torsions:
REMARK  status: ('A' for Active; 'I' for Inactive)
REMARK    1  A    between atoms: C_3  and  C_6
REMARK    2  A    between atoms: N_4  and  C_12
REMARK                            x       y       z     vdW  Elec       q    Type
REMARK                         _______ _______ _______ _____ _____    ______ ____
ROOT
ATOM      1  C   UNL     1       5.919   2.773   1.517  0.00  0.00    +0.017 C 
ATOM      2  C   UNL     1       5.547   1.821   0.350  0.00  0.00    +0.025 C 
ATOM      3  C   UNL     1       4.221   1.190   0.825  0.00  0.00    +0.088 C 
ATOM      4  N   UNL     1       4.180   1.315   2.293  0.00  0.00    -0.298 NA
ATOM      5  C   UNL     1       5.426   1.968   2.746  0.00  0.00    +0.085 C 
ATOM      6  C   UNL     1       3.000   2.074   2.725  0.00  0.00    +0.105 C 
ENDROOT
BRANCH   3   7
ATOM      7  C   UNL     1       4.175  -0.263   0.431  0.00  0.00    -0.012 A 
ATOM      8  C   UNL     1       2.965  -0.925   0.340  0.00  0.00    +0.115 A 
ATOM      9  N   UNL     1       2.916  -2.197  -0.005  0.00  0.00    -0.263 NA
ATOM     10  C   UNL     1       4.008  -2.885  -0.274  0.00  0.00    +0.111 A 
ATOM     11  C   UNL     1       5.254  -2.290  -0.205  0.00  0.00    +0.020 A 
ATOM     12  C   UNL     1       5.345  -0.953   0.149  0.00  0.00    +0.008 A 
ENDBRANCH   3   7
TORSDOF 1
ENDMDL
MODEL 4
REMARK VINA RESULT:     0.000      6.039      8.114
REMARK INTER + INTRA:          -0.256
REMARK INTER:                   0.000
REMARK INTRA:                  -0.256
REMARK UNBOUND:                -0.256
REMARK  Name = Nicotine.pdb
REMARK  2 active torsions:
REMARK  status: ('A' for Active; 'I' for Inactive)
REMARK    1  A    between atoms: C_3  and  C_6
REMARK    2  A    between atoms: N_4  and  C_12
REMARK                            x       y       z     vdW  Elec       q    Type
REMARK                         _______ _______ _______ _____ _____    ______ ____
ROOT
ATOM      1  C   UNL     1      -0.623  -0.689   4.119  0.00  0.00    +0.017 C 
ATOM      2  C   UNL     1      -0.555  -1.337   2.711  0.00  0.00    +0.025 C 
ATOM      3  C   UNL     1      -0.209  -0.143   1.796  0.00  0.00    +0.088 C 
ATOM      4  N   UNL     1      -0.622   1.083   2.503  0.00  0.00    -0.298 NA
ATOM      5  C   UNL     1      -1.228   0.700   3.796  0.00  0.00    +0.085 C 
ATOM      6  C   UNL     1       0.519   1.986   2.703  0.00  0.00    +0.105 C 
ENDROOT
BRANCH   3   7
ATOM      7  C   UNL     1      -0.956  -0.262   0.494  0.00  0.00    -0.012 A 
ATOM      8  C   UNL     1      -0.508   0.403  -0.632  0.00  0.00    +0.115 A 
ATOM      9  N   UNL     1      -1.156   0.304  -1.777  0.00  0.00    -0.263 NA
ATOM     10  C   UNL     1      -2.248  -0.425  -1.894  0.00  0.00    +0.111 A 
ATOM     11  C   UNL     1      -2.756  -1.119  -0.811  0.00  0.00    +0.020 A 
ATOM     12  C   UNL     1      -2.098  -1.043   0.407  0.00  0.00    +0.008 A 
ENDBRANCH   3   7
TORSDOF 1
ENDMDL
MODEL 5
REMARK VINA RESULT:     0.000      5.319      6.610
REMARK INTER + INTRA:          -0.256
REMARK INTER:                   0.000
REMARK INTRA:                  -0.256
REMARK UNBOUND:                -0.256
REMARK  Name = Nicotine.pdb
REMARK  2 active torsions:
REMARK  status: ('A' for Active; 'I' for Inactive)
REMARK    1  A    between atoms: C_3  and  C_6
REMARK    2  A    between atoms: N_4  and  C_12
REMARK                            x       y       z     vdW  Elec       q    Type
REMARK                         _______ _______ _______ _____ _____    ______ ____
ROOT
ATOM      1  C   UNL     1      -0.324  -0.238  -1.706  0.00  0.00    +0.017 C 
ATOM      2  C   UNL     1       0.053  -0.513  -0.226  0.00  0.00    +0.025 C 
ATOM      3  C   UNL     1       0.534   0.866   0.272  0.00  0.00    +0.088 C 
ATOM      4  N   UNL     1       0.938   1.642  -0.914  0.00  0.00    -0.298 NA
ATOM      5  C   UNL     1       0.752   0.799  -2.114  0.00  0.00    +0.085 C 
ATOM      6  C   UNL     1       0.164   2.886  -1.018  0.00  0.00    +0.105 C 
ENDROOT
BRANCH   3   7
ATOM      7  C   UNL     1       1.710   0.694   1.199  0.00  0.00    -0.012 A 
ATOM      8  C   UNL     1       2.040   1.687   2.101  0.00  0.00    +0.115 A 
ATOM      9  N   UNL     1       3.067   1.545   2.916  0.00  0.00    -0.263 NA
ATOM     10  C   UNL     1       3.816   0.460   2.904  0.00  0.00    +0.111 A 
ATOM     11  C   UNL     1       3.547  -0.576   2.029  0.00  0.00    +0.020 A 
ATOM     12  C   UNL     1       2.471  -0.464   1.161  0.00  0.00    +0.008 A 
ENDBRANCH   3   7
TORSDOF 1
ENDMDL
MODEL 6
REMARK VINA RESULT:     0.000      3.712      5.153
REMARK INTER + INTRA:          -0.256
REMARK INTER:                   0.000
REMARK INTRA:                  -0.256
REMARK UNBOUND:                -0.256
REMARK  Name = Nicotine.pdb
REMARK  2 active torsions:
REMARK  status: ('A' for Active; 'I' for Inactive)
REMARK    1  A    between atoms: C_3  and  C_6
REMARK    2  A    between atoms: N_4  and  C_12
REMARK                            x       y       z     vdW  Elec       q    Type
REMARK                         _______ _______ _______ _____ _____    ______ ____
ROOT
ATOM      1  C   UNL     1      -1.205  -1.729  -1.745  0.00  0.00    +0.017 C 
ATOM      2  C   UNL     1      -0.028  -1.800  -2.754  0.00  0.00    +0.025 C 
ATOM      3  C   UNL     1       1.164  -1.261  -1.935  0.00  0.00    +0.088 C 
ATOM      4  N   UNL     1       0.608  -0.448  -0.838  0.00  0.00    -0.298 NA
ATOM      5  C   UNL     1      -0.865  -0.439  -0.958  0.00  0.00    +0.085 C 
ATOM      6  C   UNL     1       1.028  -0.969   0.469  0.00  0.00    +0.105 C 
ENDROOT
BRANCH   3   7
ATOM      7  C   UNL     1       2.044  -0.408  -2.812  0.00  0.00    -0.012 A 
ATOM      8  C   UNL     1       3.362  -0.179  -2.466  0.00  0.00    +0.115 A 
ATOM      9  N   UNL     1       4.140   0.566  -3.227  0.00  0.00    -0.263 NA
ATOM     10  C   UNL     1       3.697   1.118  -4.340  0.00  0.00    +0.111 A 
ATOM     11  C   UNL     1       2.391   0.932  -4.751  0.00  0.00    +0.020 A 
ATOM     12  C   UNL     1       1.545   0.151  -3.978  0.00  0.00    +0.008 A 
ENDBRANCH   3   7
TORSDOF 1
ENDMDL
MODEL 7
REMARK VINA RESULT:     0.000      4.474      7.158
REMARK INTER + INTRA:          -0.256
REMARK INTER:                   0.000
REMARK INTRA:                  -0.256
REMARK UNBOUND:                -0.256
REMARK  Name = Nicotine.pdb
REMARK  2 active torsions:
REMARK  status: ('A' for Active; 'I' for Inactive)
REMARK    1  A    between atoms: C_3  and  C_6
REMARK    2  A    between atoms: N_4  and  C_12
REMARK                            x       y       z     vdW  Elec       q    Type
REMARK                         _______ _______ _______ _____ _____    ______ ____
ROOT
ATOM      1  C   UNL     1       4.257   0.095   3.835  0.00  0.00    +0.017 C 
ATOM      2  C   UNL     1       4.234   0.273   2.294  0.00  0.00    +0.025 C 
ATOM      3  C   UNL     1       3.693  -1.084   1.796  0.00  0.00    +0.088 C 
ATOM      4  N   UNL     1       3.952  -2.074   2.857  0.00  0.00    -0.298 NA
ATOM      5  C   UNL     1       4.648  -1.398   3.972  0.00  0.00    +0.085 C 
ATOM      6  C   UNL     1       2.702  -2.695   3.315  0.00  0.00    +0.105 C 
ENDROOT
BRANCH   3   7
ATOM      7  C   UNL     1       4.406  -1.488   0.531  0.00  0.00    -0.012 A 
ATOM      8  C   UNL     1       3.832  -2.399  -0.335  0.00  0.00    +0.115 A 
ATOM      9  N   UNL     1       4.450  -2.757  -1.444  0.00  0.00    -0.263 NA
ATOM     10  C   UNL     1       5.629  -2.267  -1.770  0.00  0.00    +0.111 A 
ATOM     11  C   UNL     1       6.265  -1.350  -0.953  0.00  0.00    +0.020 A 
ATOM     12  C   UNL     1       5.644  -0.946   0.219  0.00  0.00    +0.008 A 
ENDBRANCH   3   7
TORSDOF 1
ENDMDL
MODEL 8
REMARK VINA RESULT:     0.000      7.054      8.967
REMARK INTER + INTRA:          -0.256
REMARK INTER:                   0.000
REMARK INTRA:                  -0.256
REMARK UNBOUND:                -0.256
REMARK  Name = Nicotine.pdb
REMARK  2 active torsions:
REMARK  status: ('A' for Active; 'I' for Inactive)
REMARK    1  A    between atoms: C_3  and  C_6
REMARK    2  A    between atoms: N_4  and  C_12
REMARK                            x       y       z     vdW  Elec       q    Type
REMARK                         _______ _______ _______ _____ _____    ______ ____
ROOT
ATOM      1  C   UNL     1       0.010  -0.042   0.920  0.00  0.00    +0.017 C 
ATOM      2  C   UNL     1       0.959   0.259   2.110  0.00  0.00    +0.025 C 
ATOM      3  C   UNL     1       0.293   1.476   2.787  0.00  0.00    +0.088 C 
ATOM      4  N   UNL     1      -0.559   2.126   1.775  0.00  0.00    -0.298 NA
ATOM      5  C   UNL     1      -0.430   1.383   0.503  0.00  0.00    +0.085 C 
ATOM      6  C   UNL     1      -1.959   2.174   2.217  0.00  0.00    +0.105 C 
ENDROOT
BRANCH   3   7
ATOM      7  C   UNL     1       1.349   2.438   3.265  0.00  0.00    -0.012 A 
ATOM      8  C   UNL     1       1.061   3.354   4.259  0.00  0.00    +0.115 A 
ATOM      9  N   UNL     1       1.980   4.200   4.684  0.00  0.00    -0.263 NA
ATOM     10  C   UNL     1       3.199   4.208   4.182  0.00  0.00    +0.111 A 
ATOM     11  C   UNL     1       3.560   3.321   3.185  0.00  0.00    +0.020 A 
ATOM     12  C   UNL     1       2.623   2.413   2.717  0.00  0.00    +0.008 A 
ENDBRANCH   3   7
TORSDOF 1
ENDMDL
MODEL 9
REMARK VINA RESULT:     0.000      2.607      4.135
REMARK INTER + INTRA:          -0.256
REMARK INTER:                   0.000
REMARK INTRA:                  -0.256
REMARK UNBOUND:                -0.256
REMARK  Name = Nicotine.pdb
REMARK  2 active torsions:
REMARK  status: ('A' for Active; 'I' for Inactive)
REMARK    1  A    between atoms: C_3  and  C_6
REMARK    2  A    between atoms: N_4  and  C_12
REMARK                            x       y       z     vdW  Elec       q    Type
REMARK                         _______ _______ _______ _____ _____    ______ ____
ROOT
ATOM      1  C   UNL     1       2.941  -2.672  -2.725  0.00  0.00    +0.017 C 
ATOM      2  C   UNL     1       1.920  -3.670  -3.333  0.00  0.00    +0.025 C 
ATOM      3  C   UNL     1       1.570  -3.025  -4.691  0.00  0.00    +0.088 C 
ATOM      4  N   UNL     1       1.883  -1.589  -4.586  0.00  0.00    -0.298 NA
ATOM      5  C   UNL     1       2.384  -1.314  -3.222  0.00  0.00    +0.085 C 
ATOM      6  C   UNL     1       2.867  -1.188  -5.600  0.00  0.00    +0.105 C 
ENDROOT
BRANCH   3   7
ATOM      7  C   UNL     1       0.104  -3.212  -4.984  0.00  0.00    -0.012 A 
ATOM      8  C   UNL     1      -0.365  -3.130  -6.282  0.00  0.00    +0.115 A 
ATOM      9  N   UNL     1      -1.647  -3.293  -6.547  0.00  0.00    -0.263 NA
ATOM     10  C   UNL     1      -2.526  -3.537  -5.596  0.00  0.00    +0.111 A 
ATOM     11  C   UNL     1      -2.131  -3.633  -4.275  0.00  0.00    +0.020 A 
ATOM     12  C   UNL     1      -0.791  -3.473  -3.958  0.00  0.00    +0.008 A 
ENDBRANCH   3   7
TORSDOF 1
ENDMDL
MODEL 10
REMARK VINA RESULT:     0.000      6.510      7.949
REMARK INTER + INTRA:          -0.256
REMARK INTER:                   0.000
REMARK INTRA:                  -0.256
REMARK UNBOUND:                -0.256
REMARK  Name = Nicotine.pdb
REMARK  2 active torsions:
REMARK  status: ('A' for Active; 'I' for Inactive)
REMARK    1  A    between atoms: C_3  and  C_6
REMARK    2  A    between atoms: N_4  and  C_12
REMARK                            x       y       z     vdW  Elec       q    Type
REMARK                         _______ _______ _______ _____ _____    ______ ____
ROOT
ATOM      1  C   UNL     1       8.093  -1.261   3.630  0.00  0.00    +0.017 C 
ATOM      2  C   UNL     1       6.886  -0.286   3.639  0.00  0.00    +0.025 C 
ATOM      3  C   UNL     1       6.182  -0.593   2.300  0.00  0.00    +0.088 C 
ATOM      4  N   UNL     1       7.184  -1.210   1.411  0.00  0.00    -0.298 NA
ATOM      5  C   UNL     1       8.475  -1.273   2.129  0.00  0.00    +0.085 C 
ATOM      6  C   UNL     1       6.755  -2.546   0.980  0.00  0.00    +0.105 C 
ENDROOT
BRANCH   3   7
ATOM      7  C   UNL     1       5.667   0.683   1.687  0.00  0.00    -0.012 A 
ATOM      8  C   UNL     1       4.650   0.648   0.751  0.00  0.00    +0.115 A 
ATOM      9  N   UNL     1       4.194   1.761   0.209  0.00  0.00    -0.263 NA
ATOM     10  C   UNL     1       4.683   2.941   0.534  0.00  0.00    +0.111 A 
ATOM     11  C   UNL     1       5.700   3.054   1.463  0.00  0.00    +0.020 A 
ATOM     12  C   UNL     1       6.202   1.907   2.057  0.00  0.00    +0.008 A 
ENDBRANCH   3   7
TORSDOF 1
ENDMDL
