MODEL 1
REMARK VINA RESULT:    -3.544      0.000      0.000
REMARK INTER + INTRA:          -3.990
REMARK INTER:                  -3.751
REMARK INTRA:                  -0.239
REMARK UNBOUND:                -0.239
REMARK  Name = Nicotine.pdb
REMARK  2 active torsions:
REMARK  status: ('A' for Active; 'I' for Inactive)
REMARK    1  A    between atoms: C_3  and  C_6
REMARK    2  A    between atoms: N_4  and  C_12
REMARK                            x       y       z     vdW  Elec       q    Type
REMARK                         _______ _______ _______ _____ _____    ______ ____
ROOT
ATOM      1  C   UNL     1       0.073  -0.108  -6.462  0.00  0.00    +0.017 C 
ATOM      2  C   UNL     1      -0.656  -1.471  -6.333  0.00  0.00    +0.025 C 
ATOM      3  C   UNL     1      -0.545  -1.783  -4.825  0.00  0.00    +0.088 C 
ATOM      4  N   UNL     1       0.597  -1.011  -4.302  0.00  0.00    -0.298 NA
ATOM      5  C   UNL     1       1.208  -0.260  -5.419  0.00  0.00    +0.085 C 
ATOM      6  C   UNL     1       0.172  -0.105  -3.228  0.00  0.00    +0.105 C 
ENDROOT
BRANCH   3   7
ATOM      7  C   UNL     1      -0.306  -3.257  -4.623  0.00  0.00    -0.012 A 
ATOM      8  C   UNL     1      -0.168  -3.774  -3.348  0.00  0.00    +0.115 A 
ATOM      9  N   UNL     1       0.042  -5.062  -3.162  0.00  0.00    -0.263 NA
ATOM     10  C   UNL     1       0.129  -5.903  -4.174  0.00  0.00    +0.111 A 
ATOM     11  C   UNL     1       0.001  -5.459  -5.477  0.00  0.00    +0.020 A 
ATOM     12  C   UNL     1      -0.226  -4.112  -5.711  0.00  0.00    +0.008 A 
ENDBRANCH   3   7
TORSDOF 1
ENDMDL
MODEL 2
REMARK VINA RESULT:    -3.528      1.646      4.526
REMARK INTER + INTRA:          -3.973
REMARK INTER:                  -3.764
REMARK INTRA:                  -0.209
REMARK UNBOUND:                -0.239
REMARK  Name = Nicotine.pdb
REMARK  2 active torsions:
REMARK  status: ('A' for Active; 'I' for Inactive)
REMARK    1  A    between atoms: C_3  and  C_6
REMARK    2  A    between atoms: N_4  and  C_12
REMARK                            x       y       z     vdW  Elec       q    Type
REMARK                         _______ _______ _______ _____ _____    ______ ____
ROOT
ATOM      1  C   UNL     1      -1.828  -3.633  -5.745  0.00  0.00    +0.017 C 
ATOM      2  C   UNL     1      -0.694  -2.628  -6.079  0.00  0.00    +0.025 C 
ATOM      3  C   UNL     1       0.090  -2.536  -4.753  0.00  0.00    +0.088 C 
ATOM      4  N   UNL     1      -0.824  -2.955  -3.675  0.00  0.00    -0.298 NA
ATOM      5  C   UNL     1      -2.139  -3.276  -4.270  0.00  0.00    +0.085 C 
ATOM      6  C   UNL     1      -0.282  -4.107  -2.943  0.00  0.00    +0.105 C 
ENDROOT
BRANCH   3   7
ATOM      7  C   UNL     1       0.542  -1.117  -4.521  0.00  0.00    -0.012 A 
ATOM      8  C   UNL     1       1.550  -0.570  -5.292  0.00  0.00    +0.115 A 
ATOM      9  N   UNL     1       1.951   0.671  -5.096  0.00  0.00    -0.263 NA
ATOM     10  C   UNL     1       1.413   1.434  -4.166  0.00  0.00    +0.111 A 
ATOM     11  C   UNL     1       0.399   0.956  -3.357  0.00  0.00    +0.020 A 
ATOM     12  C   UNL     1      -0.053  -0.342  -3.537  0.00  0.00    +0.008 A 
ENDBRANCH   3   7
TORSDOF 1
ENDMDL
MODEL 3
REMARK VINA RESULT:    -3.438      2.076      4.798
REMARK INTER + INTRA:          -3.879
REMARK INTER:                  -3.623
REMARK INTRA:                  -0.256
REMARK UNBOUND:                -0.239
REMARK  Name = Nicotine.pdb
REMARK  2 active torsions:
REMARK  status: ('A' for Active; 'I' for Inactive)
REMARK    1  A    between atoms: C_3  and  C_6
REMARK    2  A    between atoms: N_4  and  C_12
REMARK                            x       y       z     vdW  Elec       q    Type
REMARK                         _______ _______ _______ _____ _____    ______ ____
ROOT
ATOM      1  C   UNL     1      -2.912  -1.493  -6.882  0.00  0.00    +0.017 C 
ATOM      2  C   UNL     1      -1.791  -0.438  -7.078  0.00  0.00    +0.025 C 
ATOM      3  C   UNL     1      -0.578  -1.086  -6.377  0.00  0.00    +0.088 C 
ATOM      4  N   UNL     1      -1.105  -2.071  -5.415  0.00  0.00    -0.298 NA
ATOM      5  C   UNL     1      -2.582  -2.042  -5.472  0.00  0.00    +0.085 C 
ATOM      6  C   UNL     1      -0.592  -3.416  -5.704  0.00  0.00    +0.105 C 
ENDROOT
BRANCH   3   7
ATOM      7  C   UNL     1       0.217  -0.033  -5.651  0.00  0.00    -0.012 A 
ATOM      8  C   UNL     1       1.527  -0.276  -5.282  0.00  0.00    +0.115 A 
ATOM      9  N   UNL     1       2.230   0.640  -4.646  0.00  0.00    -0.263 NA
ATOM     10  C   UNL     1       1.720   1.816  -4.339  0.00  0.00    +0.111 A 
ATOM     11  C   UNL     1       0.417   2.132  -4.677  0.00  0.00    +0.020 A 
ATOM     12  C   UNL     1      -0.352   1.195  -5.350  0.00  0.00    +0.008 A 
ENDBRANCH   3   7
TORSDOF 1
ENDMDL
MODEL 4
REMARK VINA RESULT:    -3.114      1.764      4.366
REMARK INTER + INTRA:          -3.536
REMARK INTER:                  -3.318
REMARK INTRA:                  -0.217
REMARK UNBOUND:                -0.239
REMARK  Name = Nicotine.pdb
REMARK  2 active torsions:
REMARK  status: ('A' for Active; 'I' for Inactive)
REMARK    1  A    between atoms: C_3  and  C_6
REMARK    2  A    between atoms: N_4  and  C_12
REMARK                            x       y       z     vdW  Elec       q    Type
REMARK                         _______ _______ _______ _____ _____    ______ ____
ROOT
ATOM      1  C   UNL     1      -3.664  -4.154  -5.098  0.00  0.00    +0.017 C 
ATOM      2  C   UNL     1      -2.889  -3.176  -6.020  0.00  0.00    +0.025 C 
ATOM      3  C   UNL     1      -1.413  -3.505  -5.713  0.00  0.00    +0.088 C 
ATOM      4  N   UNL     1      -1.375  -4.140  -4.383  0.00  0.00    -0.298 NA
ATOM      5  C   UNL     1      -2.752  -4.194  -3.847  0.00  0.00    +0.085 C 
ATOM      6  C   UNL     1      -0.785  -5.482  -4.457  0.00  0.00    +0.105 C 
ENDROOT
BRANCH   3   7
ATOM      7  C   UNL     1      -0.597  -2.239  -5.702  0.00  0.00    -0.012 A 
ATOM      8  C   UNL     1       0.401  -2.058  -4.763  0.00  0.00    +0.115 A 
ATOM      9  N   UNL     1       1.120  -0.953  -4.746  0.00  0.00    -0.263 NA
ATOM     10  C   UNL     1       0.919   0.018  -5.615  0.00  0.00    +0.111 A 
ATOM     11  C   UNL     1      -0.061  -0.092  -6.584  0.00  0.00    +0.020 A 
ATOM     12  C   UNL     1      -0.833  -1.242  -6.636  0.00  0.00    +0.008 A 
ENDBRANCH   3   7
TORSDOF 1
ENDMDL
MODEL 5
REMARK VINA RESULT:    -3.011      1.815      2.553
REMARK INTER + INTRA:          -3.426
REMARK INTER:                  -3.172
REMARK INTRA:                  -0.254
REMARK UNBOUND:                -0.239
REMARK  Name = Nicotine.pdb
REMARK  2 active torsions:
REMARK  status: ('A' for Active; 'I' for Inactive)
REMARK    1  A    between atoms: C_3  and  C_6
REMARK    2  A    between atoms: N_4  and  C_12
REMARK                            x       y       z     vdW  Elec       q    Type
REMARK                         _______ _______ _______ _____ _____    ______ ____
ROOT
ATOM      1  C   UNL     1       1.594   0.756  -4.598  0.00  0.00    +0.017 C 
ATOM      2  C   UNL     1       1.294  -0.429  -5.554  0.00  0.00    +0.025 C 
ATOM      3  C   UNL     1      -0.246  -0.417  -5.649  0.00  0.00    +0.088 C 
ATOM      4  N   UNL     1      -0.752   0.280  -4.452  0.00  0.00    -0.298 NA
ATOM      5  C   UNL     1       0.400   0.673  -3.614  0.00  0.00    +0.085 C 
ATOM      6  C   UNL     1      -1.558   1.450  -4.824  0.00  0.00    +0.105 C 
ENDROOT
BRANCH   3   7
ATOM      7  C   UNL     1      -0.769  -1.829  -5.681  0.00  0.00    -0.012 A 
ATOM      8  C   UNL     1      -2.086  -2.080  -6.017  0.00  0.00    +0.115 A 
ATOM      9  N   UNL     1      -2.552  -3.313  -6.048  0.00  0.00    -0.263 NA
ATOM     10  C   UNL     1      -1.788  -4.350  -5.762  0.00  0.00    +0.111 A 
ATOM     11  C   UNL     1      -0.460  -4.177  -5.419  0.00  0.00    +0.020 A 
ATOM     12  C   UNL     1       0.066  -2.895  -5.381  0.00  0.00    +0.008 A 
ENDBRANCH   3   7
TORSDOF 1
ENDMDL
MODEL 6
REMARK VINA RESULT:    -2.971      3.140      5.131
REMARK INTER + INTRA:          -3.384
REMARK INTER:                  -3.191
REMARK INTRA:                  -0.193
REMARK UNBOUND:                -0.239
REMARK  Name = Nicotine.pdb
REMARK  2 active torsions:
REMARK  status: ('A' for Active; 'I' for Inactive)
REMARK    1  A    between atoms: C_3  and  C_6
REMARK    2  A    between atoms: N_4  and  C_12
REMARK                            x       y       z     vdW  Elec       q    Type
REMARK                         _______ _______ _______ _____ _____    ______ ____
ROOT
ATOM      1  C   UNL     1      -0.645   0.384  -6.586  0.00  0.00    +0.017 C 
ATOM      2  C   UNL     1      -0.733   1.437  -5.451  0.00  0.00    +0.025 C 
ATOM      3  C   UNL     1       0.539   1.161  -4.622  0.00  0.00    +0.088 C 
ATOM      4  N   UNL     1       0.952  -0.225  -4.904  0.00  0.00    -0.298 NA
ATOM      5  C   UNL     1      -0.018  -0.823  -5.845  0.00  0.00    +0.085 C 
ATOM      6  C   UNL     1       2.314  -0.269  -5.451  0.00  0.00    +0.105 C 
ENDROOT
BRANCH   3   7
ATOM      7  C   UNL     1       0.239   1.320  -3.154  0.00  0.00    -0.012 A 
ATOM      8  C   UNL     1       0.557   2.495  -2.499  0.00  0.00    +0.115 A 
ATOM      9  N   UNL     1       0.297   2.642  -1.214  0.00  0.00    -0.263 NA
ATOM     10  C   UNL     1      -0.270   1.685  -0.507  0.00  0.00    +0.111 A 
ATOM     11  C   UNL     1      -0.616   0.482  -1.095  0.00  0.00    +0.020 A 
ATOM     12  C   UNL     1      -0.364   0.293  -2.445  0.00  0.00    +0.008 A 
ENDBRANCH   3   7
TORSDOF 1
ENDMDL
MODEL 7
REMARK VINA RESULT:    -2.932      1.115      4.493
REMARK INTER + INTRA:          -3.343
REMARK INTER:                  -3.128
REMARK INTRA:                  -0.215
REMARK UNBOUND:                -0.239
REMARK  Name = Nicotine.pdb
REMARK  2 active torsions:
REMARK  status: ('A' for Active; 'I' for Inactive)
REMARK    1  A    between atoms: C_3  and  C_6
REMARK    2  A    between atoms: N_4  and  C_12
REMARK                            x       y       z     vdW  Elec       q    Type
REMARK                         _______ _______ _______ _____ _____    ______ ____
ROOT
ATOM      1  C   UNL     1      -1.063  -4.597  -2.125  0.00  0.00    +0.017 C 
ATOM      2  C   UNL     1      -1.315  -3.145  -2.608  0.00  0.00    +0.025 C 
ATOM      3  C   UNL     1      -1.181  -3.260  -4.141  0.00  0.00    +0.088 C 
ATOM      4  N   UNL     1      -0.377  -4.464  -4.419  0.00  0.00    -0.298 NA
ATOM      5  C   UNL     1       0.010  -5.080  -3.132  0.00  0.00    +0.085 C 
ATOM      6  C   UNL     1      -1.123  -5.414  -5.255  0.00  0.00    +0.105 C 
ENDROOT
BRANCH   3   7
ATOM      7  C   UNL     1      -0.485  -2.041  -4.688  0.00  0.00    -0.012 A 
ATOM      8  C   UNL     1       0.388  -1.319  -3.896  0.00  0.00    +0.115 A 
ATOM      9  N   UNL     1       1.000  -0.251  -4.367  0.00  0.00    -0.263 NA
ATOM     10  C   UNL     1       0.807   0.171  -5.601  0.00  0.00    +0.111 A 
ATOM     11  C   UNL     1      -0.051  -0.500  -6.452  0.00  0.00    +0.020 A 
ATOM     12  C   UNL     1      -0.709  -1.631  -5.993  0.00  0.00    +0.008 A 
ENDBRANCH   3   7
TORSDOF 1
ENDMDL
MODEL 8
REMARK VINA RESULT:    -2.890      1.369      2.133
REMARK INTER + INTRA:          -3.298
REMARK INTER:                  -3.089
REMARK INTRA:                  -0.209
REMARK UNBOUND:                -0.239
REMARK  Name = Nicotine.pdb
REMARK  2 active torsions:
REMARK  status: ('A' for Active; 'I' for Inactive)
REMARK    1  A    between atoms: C_3  and  C_6
REMARK    2  A    between atoms: N_4  and  C_12
REMARK                            x       y       z     vdW  Elec       q    Type
REMARK                         _______ _______ _______ _____ _____    ______ ____
ROOT
ATOM      1  C   UNL     1      -0.311   1.256  -4.150  0.00  0.00    +0.017 C 
ATOM      2  C   UNL     1       0.436  -0.077  -3.880  0.00  0.00    +0.025 C 
ATOM      3  C   UNL     1       0.155  -0.897  -5.157  0.00  0.00    +0.088 C 
ATOM      4  N   UNL     1      -1.063  -0.342  -5.774  0.00  0.00    -0.298 NA
ATOM      5  C   UNL     1      -1.558   0.763  -4.925  0.00  0.00    +0.085 C 
ATOM      6  C   UNL     1      -0.797   0.122  -7.141  0.00  0.00    +0.105 C 
ENDROOT
BRANCH   3   7
ATOM      7  C   UNL     1      -0.064  -2.344  -4.798  0.00  0.00    -0.012 A 
ATOM      8  C   UNL     1      -0.130  -2.734  -3.474  0.00  0.00    +0.115 A 
ATOM      9  N   UNL     1      -0.322  -3.998  -3.152  0.00  0.00    -0.263 NA
ATOM     10  C   UNL     1      -0.457  -4.935  -4.070  0.00  0.00    +0.111 A 
ATOM     11  C   UNL     1      -0.403  -4.620  -5.415  0.00  0.00    +0.020 A 
ATOM     12  C   UNL     1      -0.208  -3.301  -5.792  0.00  0.00    +0.008 A 
ENDBRANCH   3   7
TORSDOF 1
ENDMDL
MODEL 9
REMARK VINA RESULT:    -2.866      3.320      4.898
REMARK INTER + INTRA:          -3.273
REMARK INTER:                  -3.105
REMARK INTRA:                  -0.169
REMARK UNBOUND:                -0.239
REMARK  Name = Nicotine.pdb
REMARK  2 active torsions:
REMARK  status: ('A' for Active; 'I' for Inactive)
REMARK    1  A    between atoms: C_3  and  C_6
REMARK    2  A    between atoms: N_4  and  C_12
REMARK                            x       y       z     vdW  Elec       q    Type
REMARK                         _______ _______ _______ _____ _____    ______ ____
ROOT
ATOM      1  C   UNL     1      -2.121   2.856  -1.877  0.00  0.00    +0.017 C 
ATOM      2  C   UNL     1      -1.886   1.826  -3.013  0.00  0.00    +0.025 C 
ATOM      3  C   UNL     1      -0.838   0.871  -2.405  0.00  0.00    +0.088 C 
ATOM      4  N   UNL     1      -0.147   1.607  -1.331  0.00  0.00    -0.298 NA
ATOM      5  C   UNL     1      -0.702   2.976  -1.266  0.00  0.00    +0.085 C 
ATOM      6  C   UNL     1      -0.292   0.918  -0.042  0.00  0.00    +0.105 C 
ENDROOT
BRANCH   3   7
ATOM      7  C   UNL     1       0.152   0.456  -3.463  0.00  0.00    -0.012 A 
ATOM      8  C   UNL     1       1.075   1.362  -3.950  0.00  0.00    +0.115 A 
ATOM      9  N   UNL     1       1.945   1.006  -4.876  0.00  0.00    -0.263 NA
ATOM     10  C   UNL     1       1.971  -0.215  -5.370  0.00  0.00    +0.111 A 
ATOM     11  C   UNL     1       1.079  -1.176  -4.931  0.00  0.00    +0.020 A 
ATOM     12  C   UNL     1       0.153  -0.841  -3.955  0.00  0.00    +0.008 A 
ENDBRANCH   3   7
TORSDOF 1
ENDMDL
MODEL 10
REMARK VINA RESULT:    -2.761      1.775      2.207
REMARK INTER + INTRA:          -3.162
REMARK INTER:                  -2.935
REMARK INTRA:                  -0.227
REMARK UNBOUND:                -0.239
REMARK  Name = Nicotine.pdb
REMARK  2 active torsions:
REMARK  status: ('A' for Active; 'I' for Inactive)
REMARK    1  A    between atoms: C_3  and  C_6
REMARK    2  A    between atoms: N_4  and  C_12
REMARK                            x       y       z     vdW  Elec       q    Type
REMARK                         _______ _______ _______ _____ _____    ______ ____
ROOT
ATOM      1  C   UNL     1      -1.909   0.574  -6.190  0.00  0.00    +0.017 C 
ATOM      2  C   UNL     1      -2.393  -0.760  -5.562  0.00  0.00    +0.025 C 
ATOM      3  C   UNL     1      -1.073  -1.509  -5.279  0.00  0.00    +0.088 C 
ATOM      4  N   UNL     1      -0.047  -0.938  -6.170  0.00  0.00    -0.298 NA
ATOM      5  C   UNL     1      -0.676   0.108  -7.004  0.00  0.00    +0.085 C 
ATOM      6  C   UNL     1       1.076  -0.391  -5.398  0.00  0.00    +0.105 C 
ENDROOT
BRANCH   3   7
ATOM      7  C   UNL     1      -1.245  -2.978  -5.569  0.00  0.00    -0.012 A 
ATOM      8  C   UNL     1      -0.148  -3.818  -5.593  0.00  0.00    +0.115 A 
ATOM      9  N   UNL     1      -0.290  -5.105  -5.845  0.00  0.00    -0.263 NA
ATOM     10  C   UNL     1      -1.472  -5.638  -6.083  0.00  0.00    +0.111 A 
ATOM     11  C   UNL     1      -2.615  -4.860  -6.074  0.00  0.00    +0.020 A 
ATOM     12  C   UNL     1      -2.505  -3.504  -5.808  0.00  0.00    +0.008 A 
ENDBRANCH   3   7
TORSDOF 1
ENDMDL
