MODEL 1
REMARK VINA RESULT:    -3.407      0.000      0.000
REMARK INTER + INTRA:          -3.826
REMARK INTER:                  -3.606
REMARK INTRA:                  -0.220
REMARK UNBOUND:                -0.220
REMARK  Name = Nicotine.pdb
REMARK  2 active torsions:
REMARK  status: ('A' for Active; 'I' for Inactive)
REMARK    1  A    between atoms: C_3  and  C_6
REMARK    2  A    between atoms: N_4  and  C_12
REMARK                            x       y       z     vdW  Elec       q    Type
REMARK                         _______ _______ _______ _____ _____    ______ ____
ROOT
ATOM      1  C   UNL     1       3.097  -2.244  -7.255  0.00  0.00    +0.017 C 
ATOM      2  C   UNL     1       4.634  -2.263  -7.051  0.00  0.00    +0.025 C 
ATOM      3  C   UNL     1       4.840  -3.441  -6.075  0.00  0.00    +0.088 C 
ATOM      4  N   UNL     1       3.563  -3.654  -5.371  0.00  0.00    -0.298 NA
ATOM      5  C   UNL     1       2.589  -2.649  -5.849  0.00  0.00    +0.085 C 
ATOM      6  C   UNL     1       3.062  -5.017  -5.589  0.00  0.00    +0.105 C 
ENDROOT
BRANCH   3   7
ATOM      7  C   UNL     1       5.923  -3.101  -5.083  0.00  0.00    -0.012 A 
ATOM      8  C   UNL     1       6.052  -3.826  -3.913  0.00  0.00    +0.115 A 
ATOM      9  N   UNL     1       6.996  -3.536  -3.040  0.00  0.00    -0.263 NA
ATOM     10  C   UNL     1       7.849  -2.551  -3.243  0.00  0.00    +0.111 A 
ATOM     11  C   UNL     1       7.781  -1.782  -4.390  0.00  0.00    +0.020 A 
ATOM     12  C   UNL     1       6.805  -2.061  -5.334  0.00  0.00    +0.008 A 
ENDBRANCH   3   7
TORSDOF 1
ENDMDL
MODEL 2
REMARK VINA RESULT:    -3.293      1.347      4.769
REMARK INTER + INTRA:          -3.705
REMARK INTER:                  -3.451
REMARK INTRA:                  -0.255
REMARK UNBOUND:                -0.220
REMARK  Name = Nicotine.pdb
REMARK  2 active torsions:
REMARK  status: ('A' for Active; 'I' for Inactive)
REMARK    1  A    between atoms: C_3  and  C_6
REMARK    2  A    between atoms: N_4  and  C_12
REMARK                            x       y       z     vdW  Elec       q    Type
REMARK                         _______ _______ _______ _____ _____    ______ ____
ROOT
ATOM      1  C   UNL     1       8.241  -2.956  -2.823  0.00  0.00    +0.017 C 
ATOM      2  C   UNL     1       7.345  -3.806  -3.761  0.00  0.00    +0.025 C 
ATOM      3  C   UNL     1       7.051  -2.839  -4.929  0.00  0.00    +0.088 C 
ATOM      4  N   UNL     1       7.249  -1.469  -4.422  0.00  0.00    -0.298 NA
ATOM      5  C   UNL     1       7.626  -1.545  -2.994  0.00  0.00    +0.085 C 
ATOM      6  C   UNL     1       8.275  -0.763  -5.201  0.00  0.00    +0.105 C 
ENDROOT
BRANCH   3   7
ATOM      7  C   UNL     1       5.629  -3.014  -5.394  0.00  0.00    -0.012 A 
ATOM      8  C   UNL     1       5.216  -2.479  -6.599  0.00  0.00    +0.115 A 
ATOM      9  N   UNL     1       3.973  -2.627  -7.013  0.00  0.00    -0.263 NA
ATOM     10  C   UNL     1       3.080  -3.287  -6.302  0.00  0.00    +0.111 A 
ATOM     11  C   UNL     1       3.419  -3.851  -5.087  0.00  0.00    +0.020 A 
ATOM     12  C   UNL     1       4.718  -3.719  -4.621  0.00  0.00    +0.008 A 
ENDBRANCH   3   7
TORSDOF 1
ENDMDL
MODEL 3
REMARK VINA RESULT:    -3.168      2.163      5.443
REMARK INTER + INTRA:          -3.574
REMARK INTER:                  -3.372
REMARK INTRA:                  -0.202
REMARK UNBOUND:                -0.220
REMARK  Name = Nicotine.pdb
REMARK  2 active torsions:
REMARK  status: ('A' for Active; 'I' for Inactive)
REMARK    1  A    between atoms: C_3  and  C_6
REMARK    2  A    between atoms: N_4  and  C_12
REMARK                            x       y       z     vdW  Elec       q    Type
REMARK                         _______ _______ _______ _____ _____    ______ ____
ROOT
ATOM      1  C   UNL     1      10.503  -5.034  -3.045  0.00  0.00    +0.017 C 
ATOM      2  C   UNL     1       9.805  -4.379  -4.266  0.00  0.00    +0.025 C 
ATOM      3  C   UNL     1       8.898  -3.312  -3.617  0.00  0.00    +0.088 C 
ATOM      4  N   UNL     1       8.671  -3.724  -2.220  0.00  0.00    -0.298 NA
ATOM      5  C   UNL     1       9.373  -5.003  -1.986  0.00  0.00    +0.085 C 
ATOM      6  C   UNL     1       9.133  -2.690  -1.284  0.00  0.00    +0.105 C 
ENDROOT
BRANCH   3   7
ATOM      7  C   UNL     1       7.584  -3.240  -4.351  0.00  0.00    -0.012 A 
ATOM      8  C   UNL     1       7.485  -2.544  -5.541  0.00  0.00    +0.115 A 
ATOM      9  N   UNL     1       6.339  -2.476  -6.190  0.00  0.00    -0.263 NA
ATOM     10  C   UNL     1       5.250  -3.064  -5.736  0.00  0.00    +0.111 A 
ATOM     11  C   UNL     1       5.272  -3.778  -4.553  0.00  0.00    +0.020 A 
ATOM     12  C   UNL     1       6.460  -3.876  -3.845  0.00  0.00    +0.008 A 
ENDBRANCH   3   7
TORSDOF 1
ENDMDL
MODEL 4
REMARK VINA RESULT:    -3.125      1.513      4.770
REMARK INTER + INTRA:          -3.528
REMARK INTER:                  -3.347
REMARK INTRA:                  -0.181
REMARK UNBOUND:                -0.220
REMARK  Name = Nicotine.pdb
REMARK  2 active torsions:
REMARK  status: ('A' for Active; 'I' for Inactive)
REMARK    1  A    between atoms: C_3  and  C_6
REMARK    2  A    between atoms: N_4  and  C_12
REMARK                            x       y       z     vdW  Elec       q    Type
REMARK                         _______ _______ _______ _____ _____    ______ ____
ROOT
ATOM      1  C   UNL     1       8.714  -1.880  -2.607  0.00  0.00    +0.017 C 
ATOM      2  C   UNL     1       7.223  -1.788  -3.026  0.00  0.00    +0.025 C 
ATOM      3  C   UNL     1       6.900  -3.228  -3.477  0.00  0.00    +0.088 C 
ATOM      4  N   UNL     1       8.178  -3.873  -3.829  0.00  0.00    -0.298 NA
ATOM      5  C   UNL     1       9.268  -2.892  -3.641  0.00  0.00    +0.085 C 
ATOM      6  C   UNL     1       8.404  -5.074  -3.015  0.00  0.00    +0.105 C 
ENDROOT
BRANCH   3   7
ATOM      7  C   UNL     1       5.992  -3.197  -4.679  0.00  0.00    -0.012 A 
ATOM      8  C   UNL     1       6.386  -2.553  -5.836  0.00  0.00    +0.115 A 
ATOM      9  N   UNL     1       5.597  -2.521  -6.893  0.00  0.00    -0.263 NA
ATOM     10  C   UNL     1       4.411  -3.097  -6.889  0.00  0.00    +0.111 A 
ATOM     11  C   UNL     1       3.950  -3.761  -5.768  0.00  0.00    +0.020 A 
ATOM     12  C   UNL     1       4.754  -3.820  -4.640  0.00  0.00    +0.008 A 
ENDBRANCH   3   7
TORSDOF 1
ENDMDL
MODEL 5
REMARK VINA RESULT:    -3.102      2.903      5.200
REMARK INTER + INTRA:          -3.503
REMARK INTER:                  -3.291
REMARK INTRA:                  -0.212
REMARK UNBOUND:                -0.220
REMARK  Name = Nicotine.pdb
REMARK  2 active torsions:
REMARK  status: ('A' for Active; 'I' for Inactive)
REMARK    1  A    between atoms: C_3  and  C_6
REMARK    2  A    between atoms: N_4  and  C_12
REMARK                            x       y       z     vdW  Elec       q    Type
REMARK                         _______ _______ _______ _____ _____    ______ ____
ROOT
ATOM      1  C   UNL     1       7.002   2.458  -2.660  0.00  0.00    +0.017 C 
ATOM      2  C   UNL     1       7.161   0.990  -2.184  0.00  0.00    +0.025 C 
ATOM      3  C   UNL     1       8.012   0.353  -3.303  0.00  0.00    +0.088 C 
ATOM      4  N   UNL     1       7.837   1.180  -4.510  0.00  0.00    -0.298 NA
ATOM      5  C   UNL     1       6.900   2.280  -4.195  0.00  0.00    +0.085 C 
ATOM      6  C   UNL     1       9.125   1.704  -4.982  0.00  0.00    +0.105 C 
ENDROOT
BRANCH   3   7
ATOM      7  C   UNL     1       7.538  -1.052  -3.570  0.00  0.00    -0.012 A 
ATOM      8  C   UNL     1       7.513  -1.987  -2.552  0.00  0.00    +0.115 A 
ATOM      9  N   UNL     1       7.099  -3.219  -2.777  0.00  0.00    -0.263 NA
ATOM     10  C   UNL     1       6.697  -3.607  -3.971  0.00  0.00    +0.111 A 
ATOM     11  C   UNL     1       6.693  -2.728  -5.038  0.00  0.00    +0.020 A 
ATOM     12  C   UNL     1       7.116  -1.423  -4.838  0.00  0.00    +0.008 A 
ENDBRANCH   3   7
TORSDOF 1
ENDMDL
MODEL 6
REMARK VINA RESULT:    -3.080      2.842      4.624
REMARK INTER + INTRA:          -3.480
REMARK INTER:                  -3.259
REMARK INTRA:                  -0.221
REMARK UNBOUND:                -0.220
REMARK  Name = Nicotine.pdb
REMARK  2 active torsions:
REMARK  status: ('A' for Active; 'I' for Inactive)
REMARK    1  A    between atoms: C_3  and  C_6
REMARK    2  A    between atoms: N_4  and  C_12
REMARK                            x       y       z     vdW  Elec       q    Type
REMARK                         _______ _______ _______ _____ _____    ______ ____
ROOT
ATOM      1  C   UNL     1       6.699  -3.070  -5.089  0.00  0.00    +0.017 C 
ATOM      2  C   UNL     1       7.061  -1.567  -5.226  0.00  0.00    +0.025 C 
ATOM      3  C   UNL     1       7.872  -1.287  -3.943  0.00  0.00    +0.088 C 
ATOM      4  N   UNL     1       7.499  -2.317  -2.956  0.00  0.00    -0.298 NA
ATOM      5  C   UNL     1       6.480  -3.201  -3.561  0.00  0.00    +0.085 C 
ATOM      6  C   UNL     1       8.674  -3.085  -2.526  0.00  0.00    +0.105 C 
ENDROOT
BRANCH   3   7
ATOM      7  C   UNL     1       7.533   0.081  -3.411  0.00  0.00    -0.012 A 
ATOM      8  C   UNL     1       7.208   0.253  -2.079  0.00  0.00    +0.115 A 
ATOM      9  N   UNL     1       6.911   1.447  -1.605  0.00  0.00    -0.263 NA
ATOM     10  C   UNL     1       6.910   2.517  -2.374  0.00  0.00    +0.111 A 
ATOM     11  C   UNL     1       7.225   2.424  -3.717  0.00  0.00    +0.020 A 
ATOM     12  C   UNL     1       7.549   1.185  -4.250  0.00  0.00    +0.008 A 
ENDBRANCH   3   7
TORSDOF 1
ENDMDL
MODEL 7
REMARK VINA RESULT:    -3.049      3.531      5.202
REMARK INTER + INTRA:          -3.448
REMARK INTER:                  -3.273
REMARK INTRA:                  -0.175
REMARK UNBOUND:                -0.220
REMARK  Name = Nicotine.pdb
REMARK  2 active torsions:
REMARK  status: ('A' for Active; 'I' for Inactive)
REMARK    1  A    between atoms: C_3  and  C_6
REMARK    2  A    between atoms: N_4  and  C_12
REMARK                            x       y       z     vdW  Elec       q    Type
REMARK                         _______ _______ _______ _____ _____    ______ ____
ROOT
ATOM      1  C   UNL     1       7.605  -3.906  -3.529  0.00  0.00    +0.017 C 
ATOM      2  C   UNL     1       6.867  -2.589  -3.887  0.00  0.00    +0.025 C 
ATOM      3  C   UNL     1       8.018  -1.569  -4.016  0.00  0.00    +0.088 C 
ATOM      4  N   UNL     1       9.160  -2.100  -3.250  0.00  0.00    -0.298 NA
ATOM      5  C   UNL     1       8.759  -3.384  -2.636  0.00  0.00    +0.085 C 
ATOM      6  C   UNL     1      10.337  -2.273  -4.111  0.00  0.00    +0.105 C 
ENDROOT
BRANCH   3   7
ATOM      7  C   UNL     1       7.592  -0.240  -3.449  0.00  0.00    -0.012 A 
ATOM      8  C   UNL     1       7.279  -0.121  -2.108  0.00  0.00    +0.115 A 
ATOM      9  N   UNL     1       6.905   1.039  -1.603  0.00  0.00    -0.263 NA
ATOM     10  C   UNL     1       6.814   2.122  -2.349  0.00  0.00    +0.111 A 
ATOM     11  C   UNL     1       7.112   2.080  -3.698  0.00  0.00    +0.020 A 
ATOM     12  C   UNL     1       7.514   0.879  -4.263  0.00  0.00    +0.008 A 
ENDBRANCH   3   7
TORSDOF 1
ENDMDL
MODEL 8
REMARK VINA RESULT:    -2.962      4.257      5.785
REMARK INTER + INTRA:          -3.355
REMARK INTER:                  -3.100
REMARK INTRA:                  -0.255
REMARK UNBOUND:                -0.220
REMARK  Name = Nicotine.pdb
REMARK  2 active torsions:
REMARK  status: ('A' for Active; 'I' for Inactive)
REMARK    1  A    between atoms: C_3  and  C_6
REMARK    2  A    between atoms: N_4  and  C_12
REMARK                            x       y       z     vdW  Elec       q    Type
REMARK                         _______ _______ _______ _____ _____    ______ ____
ROOT
ATOM      1  C   UNL     1      10.158  -5.410  -3.582  0.00  0.00    +0.017 C 
ATOM      2  C   UNL     1      10.233  -3.876  -3.799  0.00  0.00    +0.025 C 
ATOM      3  C   UNL     1       9.867  -3.311  -2.410  0.00  0.00    +0.088 C 
ATOM      4  N   UNL     1       9.112  -4.357  -1.697  0.00  0.00    -0.298 NA
ATOM      5  C   UNL     1       8.974  -5.528  -2.589  0.00  0.00    +0.085 C 
ATOM      6  C   UNL     1       9.779  -4.726  -0.442  0.00  0.00    +0.105 C 
ENDROOT
BRANCH   3   7
ATOM      7  C   UNL     1       9.015  -2.078  -2.567  0.00  0.00    -0.012 A 
ATOM      8  C   UNL     1       9.054  -1.075  -1.617  0.00  0.00    +0.115 A 
ATOM      9  N   UNL     1       8.311   0.007  -1.746  0.00  0.00    -0.263 NA
ATOM     10  C   UNL     1       7.507   0.176  -2.777  0.00  0.00    +0.111 A 
ATOM     11  C   UNL     1       7.415  -0.784  -3.768  0.00  0.00    +0.020 A 
ATOM     12  C   UNL     1       8.185  -1.933  -3.668  0.00  0.00    +0.008 A 
ENDBRANCH   3   7
TORSDOF 1
ENDMDL
MODEL 9
REMARK VINA RESULT:    -2.949      3.975      6.015
REMARK INTER + INTRA:          -3.342
REMARK INTER:                  -3.144
REMARK INTRA:                  -0.198
REMARK UNBOUND:                -0.220
REMARK  Name = Nicotine.pdb
REMARK  2 active torsions:
REMARK  status: ('A' for Active; 'I' for Inactive)
REMARK    1  A    between atoms: C_3  and  C_6
REMARK    2  A    between atoms: N_4  and  C_12
REMARK                            x       y       z     vdW  Elec       q    Type
REMARK                         _______ _______ _______ _____ _____    ______ ____
ROOT
ATOM      1  C   UNL     1       8.464  -2.610  -2.414  0.00  0.00    +0.017 C 
ATOM      2  C   UNL     1       7.709  -1.410  -1.782  0.00  0.00    +0.025 C 
ATOM      3  C   UNL     1       7.479  -0.472  -2.986  0.00  0.00    +0.088 C 
ATOM      4  N   UNL     1       8.485  -0.817  -4.007  0.00  0.00    -0.298 NA
ATOM      5  C   UNL     1       9.338  -1.903  -3.480  0.00  0.00    +0.085 C 
ATOM      6  C   UNL     1       7.842  -1.214  -5.266  0.00  0.00    +0.105 C 
ENDROOT
BRANCH   3   7
ATOM      7  C   UNL     1       7.651   0.962  -2.558  0.00  0.00    -0.012 A 
ATOM      8  C   UNL     1       6.603   1.648  -1.973  0.00  0.00    +0.115 A 
ATOM      9  N   UNL     1       6.745   2.903  -1.596  0.00  0.00    -0.263 NA
ATOM     10  C   UNL     1       7.882   3.552  -1.759  0.00  0.00    +0.111 A 
ATOM     11  C   UNL     1       8.974   2.931  -2.336  0.00  0.00    +0.020 A 
ATOM     12  C   UNL     1       8.864   1.610  -2.740  0.00  0.00    +0.008 A 
ENDBRANCH   3   7
TORSDOF 1
ENDMDL
MODEL 10
REMARK VINA RESULT:    -2.894      5.687      7.548
REMARK INTER + INTRA:          -3.284
REMARK INTER:                  -3.069
REMARK INTRA:                  -0.215
REMARK UNBOUND:                -0.220
REMARK  Name = Nicotine.pdb
REMARK  2 active torsions:
REMARK  status: ('A' for Active; 'I' for Inactive)
REMARK    1  A    between atoms: C_3  and  C_6
REMARK    2  A    between atoms: N_4  and  C_12
REMARK                            x       y       z     vdW  Elec       q    Type
REMARK                         _______ _______ _______ _____ _____    ______ ____
ROOT
ATOM      1  C   UNL     1       7.478  -0.119  -2.083  0.00  0.00    +0.017 C 
ATOM      2  C   UNL     1       6.772   1.262  -2.065  0.00  0.00    +0.025 C 
ATOM      3  C   UNL     1       7.370   1.974  -3.298  0.00  0.00    +0.088 C 
ATOM      4  N   UNL     1       8.656   1.319  -3.599  0.00  0.00    -0.298 NA
ATOM      5  C   UNL     1       8.890   0.258  -2.597  0.00  0.00    +0.085 C 
ATOM      6  C   UNL     1       8.661   0.769  -4.961  0.00  0.00    +0.105 C 
ENDROOT
BRANCH   3   7
ATOM      7  C   UNL     1       7.594   3.431  -2.990  0.00  0.00    -0.012 A 
ATOM      8  C   UNL     1       7.769   3.851  -1.685  0.00  0.00    +0.115 A 
ATOM      9  N   UNL     1       7.966   5.125  -1.407  0.00  0.00    -0.263 NA
ATOM     10  C   UNL     1       8.004   6.043  -2.353  0.00  0.00    +0.111 A 
ATOM     11  C   UNL     1       7.837   5.698  -3.681  0.00  0.00    +0.020 A 
ATOM     12  C   UNL     1       7.633   4.368  -4.012  0.00  0.00    +0.008 A 
ENDBRANCH   3   7
TORSDOF 1
ENDMDL
