MODEL 1
REMARK VINA RESULT:    -5.291      0.000      0.000
REMARK INTER + INTRA:          -5.855
REMARK INTER:                  -5.601
REMARK INTRA:                  -0.255
REMARK UNBOUND:                -0.255
REMARK  Name = Nicotine.pdb
REMARK  2 active torsions:
REMARK  status: ('A' for Active; 'I' for Inactive)
REMARK    1  A    between atoms: C_3  and  C_6
REMARK    2  A    between atoms: N_4  and  C_12
REMARK                            x       y       z     vdW  Elec       q    Type
REMARK                         _______ _______ _______ _____ _____    ______ ____
ROOT
ATOM      1  C   UNL     1      -0.110  -5.099   5.436  0.00  0.00    +0.017 C 
ATOM      2  C   UNL     1      -0.787  -3.878   4.760  0.00  0.00    +0.025 C 
ATOM      3  C   UNL     1       0.403  -2.942   4.462  0.00  0.00    +0.088 C 
ATOM      4  N   UNL     1       1.494  -3.317   5.380  0.00  0.00    -0.298 NA
ATOM      5  C   UNL     1       1.024  -4.421   6.244  0.00  0.00    +0.085 C 
ATOM      6  C   UNL     1       2.699  -3.707   4.635  0.00  0.00    +0.105 C 
ENDROOT
BRANCH   3   7
ATOM      7  C   UNL     1       0.001  -1.509   4.700  0.00  0.00    -0.012 A 
ATOM      8  C   UNL     1       0.567  -0.492   3.956  0.00  0.00    +0.115 A 
ATOM      9  N   UNL     1       0.221   0.765   4.158  0.00  0.00    -0.263 NA
ATOM     10  C   UNL     1      -0.671   1.100   5.069  0.00  0.00    +0.111 A 
ATOM     11  C   UNL     1      -1.279   0.136   5.852  0.00  0.00    +0.020 A 
ATOM     12  C   UNL     1      -0.944  -1.196   5.664  0.00  0.00    +0.008 A 
ENDBRANCH   3   7
TORSDOF 1
ENDMDL
MODEL 2
REMARK VINA RESULT:    -5.117      1.136      1.904
REMARK INTER + INTRA:          -5.671
REMARK INTER:                  -5.461
REMARK INTRA:                  -0.210
REMARK UNBOUND:                -0.255
REMARK  Name = Nicotine.pdb
REMARK  2 active torsions:
REMARK  status: ('A' for Active; 'I' for Inactive)
REMARK    1  A    between atoms: C_3  and  C_6
REMARK    2  A    between atoms: N_4  and  C_12
REMARK                            x       y       z     vdW  Elec       q    Type
REMARK                         _______ _______ _______ _____ _____    ______ ____
ROOT
ATOM      1  C   UNL     1       2.515  -4.227   5.841  0.00  0.00    +0.017 C 
ATOM      2  C   UNL     1       2.141  -2.776   6.244  0.00  0.00    +0.025 C 
ATOM      3  C   UNL     1       0.602  -2.768   6.125  0.00  0.00    +0.088 C 
ATOM      4  N   UNL     1       0.229  -3.863   5.212  0.00  0.00    -0.298 NA
ATOM      5  C   UNL     1       1.464  -4.528   4.743  0.00  0.00    +0.085 C 
ATOM      6  C   UNL     1      -0.666  -4.821   5.875  0.00  0.00    +0.105 C 
ENDROOT
BRANCH   3   7
ATOM      7  C   UNL     1       0.139  -1.449   5.564  0.00  0.00    -0.012 A 
ATOM      8  C   UNL     1       0.860  -0.822   4.566  0.00  0.00    +0.115 A 
ATOM      9  N   UNL     1       0.461   0.332   4.068  0.00  0.00    -0.263 NA
ATOM     10  C   UNL     1      -0.632   0.931   4.498  0.00  0.00    +0.111 A 
ATOM     11  C   UNL     1      -1.405   0.363   5.494  0.00  0.00    +0.020 A 
ATOM     12  C   UNL     1      -1.020  -0.852   6.037  0.00  0.00    +0.008 A 
ENDBRANCH   3   7
TORSDOF 1
ENDMDL
MODEL 3
REMARK VINA RESULT:    -4.594     10.744     12.394
REMARK INTER + INTRA:          -5.117
REMARK INTER:                  -4.865
REMARK INTRA:                  -0.252
REMARK UNBOUND:                -0.255
REMARK  Name = Nicotine.pdb
REMARK  2 active torsions:
REMARK  status: ('A' for Active; 'I' for Inactive)
REMARK    1  A    between atoms: C_3  and  C_6
REMARK    2  A    between atoms: N_4  and  C_12
REMARK                            x       y       z     vdW  Elec       q    Type
REMARK                         _______ _______ _______ _____ _____    ______ ____
ROOT
ATOM      1  C   UNL     1       1.488  -2.133  -7.196  0.00  0.00    +0.017 C 
ATOM      2  C   UNL     1       1.980  -3.515  -6.689  0.00  0.00    +0.025 C 
ATOM      3  C   UNL     1       2.957  -3.140  -5.554  0.00  0.00    +0.088 C 
ATOM      4  N   UNL     1       3.402  -1.756  -5.799  0.00  0.00    -0.298 NA
ATOM      5  C   UNL     1       2.766  -1.270  -7.042  0.00  0.00    +0.085 C 
ATOM      6  C   UNL     1       3.070  -0.887  -4.663  0.00  0.00    +0.105 C 
ENDROOT
BRANCH   3   7
ATOM      7  C   UNL     1       4.142  -4.071  -5.570  0.00  0.00    -0.012 A 
ATOM      8  C   UNL     1       5.041  -4.075  -4.520  0.00  0.00    +0.115 A 
ATOM      9  N   UNL     1       6.081  -4.887  -4.526  0.00  0.00    -0.263 NA
ATOM     10  C   UNL     1       6.305  -5.719  -5.523  0.00  0.00    +0.111 A 
ATOM     11  C   UNL     1       5.449  -5.771  -6.608  0.00  0.00    +0.020 A 
ATOM     12  C   UNL     1       4.342  -4.937  -6.634  0.00  0.00    +0.008 A 
ENDBRANCH   3   7
TORSDOF 1
ENDMDL
MODEL 4
REMARK VINA RESULT:    -4.319     10.495     12.171
REMARK INTER + INTRA:          -4.826
REMARK INTER:                  -4.606
REMARK INTRA:                  -0.220
REMARK UNBOUND:                -0.255
REMARK  Name = Nicotine.pdb
REMARK  2 active torsions:
REMARK  status: ('A' for Active; 'I' for Inactive)
REMARK    1  A    between atoms: C_3  and  C_6
REMARK    2  A    between atoms: N_4  and  C_12
REMARK                            x       y       z     vdW  Elec       q    Type
REMARK                         _______ _______ _______ _____ _____    ______ ____
ROOT
ATOM      1  C   UNL     1       2.592  -1.347  -5.544  0.00  0.00    +0.017 C 
ATOM      2  C   UNL     1       3.026  -2.606  -6.341  0.00  0.00    +0.025 C 
ATOM      3  C   UNL     1       3.403  -3.608  -5.228  0.00  0.00    +0.088 C 
ATOM      4  N   UNL     1       3.711  -2.822  -4.020  0.00  0.00    -0.298 NA
ATOM      5  C   UNL     1       3.567  -1.387  -4.341  0.00  0.00    +0.085 C 
ATOM      6  C   UNL     1       2.834  -3.204  -2.905  0.00  0.00    +0.105 C 
ENDROOT
BRANCH   3   7
ATOM      7  C   UNL     1       4.611  -4.405  -5.645  0.00  0.00    -0.012 A 
ATOM      8  C   UNL     1       5.658  -4.600  -4.764  0.00  0.00    +0.115 A 
ATOM      9  N   UNL     1       6.719  -5.297  -5.121  0.00  0.00    -0.263 NA
ATOM     10  C   UNL     1       6.825  -5.832  -6.321  0.00  0.00    +0.111 A 
ATOM     11  C   UNL     1       5.818  -5.680  -7.256  0.00  0.00    +0.020 A 
ATOM     12  C   UNL     1       4.685  -4.958  -6.915  0.00  0.00    +0.008 A 
ENDBRANCH   3   7
TORSDOF 1
ENDMDL
MODEL 5
REMARK VINA RESULT:    -3.353     10.839     12.491
REMARK INTER + INTRA:          -3.803
REMARK INTER:                  -3.600
REMARK INTRA:                  -0.203
REMARK UNBOUND:                -0.255
REMARK  Name = Nicotine.pdb
REMARK  2 active torsions:
REMARK  status: ('A' for Active; 'I' for Inactive)
REMARK    1  A    between atoms: C_3  and  C_6
REMARK    2  A    between atoms: N_4  and  C_12
REMARK                            x       y       z     vdW  Elec       q    Type
REMARK                         _______ _______ _______ _____ _____    ______ ____
ROOT
ATOM      1  C   UNL     1       2.463  -0.515  -4.733  0.00  0.00    +0.017 C 
ATOM      2  C   UNL     1       3.324  -1.748  -4.353  0.00  0.00    +0.025 C 
ATOM      3  C   UNL     1       4.260  -1.907  -5.570  0.00  0.00    +0.088 C 
ATOM      4  N   UNL     1       3.609  -1.241  -6.712  0.00  0.00    -0.298 NA
ATOM      5  C   UNL     1       2.307  -0.702  -6.263  0.00  0.00    +0.085 C 
ATOM      6  C   UNL     1       4.460  -0.175  -7.256  0.00  0.00    +0.105 C 
ENDROOT
BRANCH   3   7
ATOM      7  C   UNL     1       4.462  -3.369  -5.874  0.00  0.00    -0.012 A 
ATOM      8  C   UNL     1       3.847  -3.946  -6.969  0.00  0.00    +0.115 A 
ATOM      9  N   UNL     1       4.018  -5.225  -7.243  0.00  0.00    -0.263 NA
ATOM     10  C   UNL     1       4.775  -5.999  -6.491  0.00  0.00    +0.111 A 
ATOM     11  C   UNL     1       5.422  -5.492  -5.379  0.00  0.00    +0.020 A 
ATOM     12  C   UNL     1       5.270  -4.151  -5.063  0.00  0.00    +0.008 A 
ENDBRANCH   3   7
TORSDOF 1
ENDMDL
MODEL 6
REMARK VINA RESULT:    -2.982      1.194      4.427
REMARK INTER + INTRA:          -3.411
REMARK INTER:                  -3.201
REMARK INTRA:                  -0.210
REMARK UNBOUND:                -0.255
REMARK  Name = Nicotine.pdb
REMARK  2 active torsions:
REMARK  status: ('A' for Active; 'I' for Inactive)
REMARK    1  A    between atoms: C_3  and  C_6
REMARK    2  A    between atoms: N_4  and  C_12
REMARK                            x       y       z     vdW  Elec       q    Type
REMARK                         _______ _______ _______ _____ _____    ______ ____
ROOT
ATOM      1  C   UNL     1      -0.499   0.587   5.731  0.00  0.00    +0.017 C 
ATOM      2  C   UNL     1       0.310  -0.637   6.236  0.00  0.00    +0.025 C 
ATOM      3  C   UNL     1       0.642  -1.395   4.933  0.00  0.00    +0.088 C 
ATOM      4  N   UNL     1      -0.349  -0.982   3.923  0.00  0.00    -0.298 NA
ATOM      5  C   UNL     1      -1.288  -0.027   4.548  0.00  0.00    +0.085 C 
ATOM      6  C   UNL     1       0.309  -0.386   2.753  0.00  0.00    +0.105 C 
ENDROOT
BRANCH   3   7
ATOM      7  C   UNL     1       0.549  -2.881   5.166  0.00  0.00    -0.012 A 
ATOM      8  C   UNL     1       1.667  -3.681   5.029  0.00  0.00    +0.115 A 
ATOM      9  N   UNL     1       1.595  -4.983   5.232  0.00  0.00    -0.263 NA
ATOM     10  C   UNL     1       0.463  -5.569   5.570  0.00  0.00    +0.111 A 
ATOM     11  C   UNL     1      -0.696  -4.833   5.726  0.00  0.00    +0.020 A 
ATOM     12  C   UNL     1      -0.657  -3.462   5.526  0.00  0.00    +0.008 A 
ENDBRANCH   3   7
TORSDOF 1
ENDMDL
