MODEL 1
REMARK VINA RESULT:    -2.001      0.000      0.000
REMARK INTER + INTRA:          -2.306
REMARK INTER:                  -2.118
REMARK INTRA:                  -0.187
REMARK UNBOUND:                -0.187
REMARK  Name = Nicotine.pdb
REMARK  2 active torsions:
REMARK  status: ('A' for Active; 'I' for Inactive)
REMARK    1  A    between atoms: C_3  and  C_6
REMARK    2  A    between atoms: N_4  and  C_12
REMARK                            x       y       z     vdW  Elec       q    Type
REMARK                         _______ _______ _______ _____ _____    ______ ____
ROOT
ATOM      1  C   UNL     1      -4.195   6.265  -0.930  0.00  0.00    +0.017 C 
ATOM      2  C   UNL     1      -4.975   6.172  -2.268  0.00  0.00    +0.025 C 
ATOM      3  C   UNL     1      -4.189   5.102  -3.054  0.00  0.00    +0.088 C 
ATOM      4  N   UNL     1      -2.831   5.051  -2.485  0.00  0.00    -0.298 NA
ATOM      5  C   UNL     1      -2.735   6.055  -1.404  0.00  0.00    +0.085 C 
ATOM      6  C   UNL     1      -2.520   3.706  -1.984  0.00  0.00    +0.105 C 
ENDROOT
BRANCH   3   7
ATOM      7  C   UNL     1      -4.122   5.481  -4.511  0.00  0.00    -0.012 A 
ATOM      8  C   UNL     1      -3.011   6.132  -5.013  0.00  0.00    +0.115 A 
ATOM      9  N   UNL     1      -2.944   6.468  -6.287  0.00  0.00    -0.263 NA
ATOM     10  C   UNL     1      -3.924   6.201  -7.126  0.00  0.00    +0.111 A 
ATOM     11  C   UNL     1      -5.067   5.552  -6.697  0.00  0.00    +0.020 A 
ATOM     12  C   UNL     1      -5.171   5.178  -5.366  0.00  0.00    +0.008 A 
ENDBRANCH   3   7
TORSDOF 1
ENDMDL
MODEL 2
REMARK VINA RESULT:    -1.963      1.532      4.396
REMARK INTER + INTRA:          -2.265
REMARK INTER:                  -2.055
REMARK INTRA:                  -0.210
REMARK UNBOUND:                -0.187
REMARK  Name = Nicotine.pdb
REMARK  2 active torsions:
REMARK  status: ('A' for Active; 'I' for Inactive)
REMARK    1  A    between atoms: C_3  and  C_6
REMARK    2  A    between atoms: N_4  and  C_12
REMARK                            x       y       z     vdW  Elec       q    Type
REMARK                         _______ _______ _______ _____ _____    ______ ____
ROOT
ATOM      1  C   UNL     1      -2.412   6.173  -7.205  0.00  0.00    +0.017 C 
ATOM      2  C   UNL     1      -2.146   5.978  -5.689  0.00  0.00    +0.025 C 
ATOM      3  C   UNL     1      -3.281   5.024  -5.258  0.00  0.00    +0.088 C 
ATOM      4  N   UNL     1      -4.363   5.156  -6.250  0.00  0.00    -0.298 NA
ATOM      5  C   UNL     1      -3.960   6.162  -7.256  0.00  0.00    +0.085 C 
ATOM      6  C   UNL     1      -4.656   3.865  -6.885  0.00  0.00    +0.105 C 
ENDROOT
BRANCH   3   7
ATOM      7  C   UNL     1      -3.785   5.412  -3.892  0.00  0.00    -0.012 A 
ATOM      8  C   UNL     1      -3.345   6.574  -3.289  0.00  0.00    +0.115 A 
ATOM      9  N   UNL     1      -3.781   6.921  -2.093  0.00  0.00    -0.263 NA
ATOM     10  C   UNL     1      -4.647   6.180  -1.430  0.00  0.00    +0.111 A 
ATOM     11  C   UNL     1      -5.133   5.004  -1.971  0.00  0.00    +0.020 A 
ATOM     12  C   UNL     1      -4.701   4.610  -3.228  0.00  0.00    +0.008 A 
ENDBRANCH   3   7
TORSDOF 1
ENDMDL
MODEL 3
REMARK VINA RESULT:    -1.909      1.492      4.263
REMARK INTER + INTRA:          -2.208
REMARK INTER:                  -1.971
REMARK INTRA:                  -0.237
REMARK UNBOUND:                -0.187
REMARK  Name = Nicotine.pdb
REMARK  2 active torsions:
REMARK  status: ('A' for Active; 'I' for Inactive)
REMARK    1  A    between atoms: C_3  and  C_6
REMARK    2  A    between atoms: N_4  and  C_12
REMARK                            x       y       z     vdW  Elec       q    Type
REMARK                         _______ _______ _______ _____ _____    ______ ____
ROOT
ATOM      1  C   UNL     1      -3.478   4.448  -7.051  0.00  0.00    +0.017 C 
ATOM      2  C   UNL     1      -4.442   5.061  -6.002  0.00  0.00    +0.025 C 
ATOM      3  C   UNL     1      -3.546   6.074  -5.258  0.00  0.00    +0.088 C 
ATOM      4  N   UNL     1      -2.149   5.651  -5.457  0.00  0.00    -0.298 NA
ATOM      5  C   UNL     1      -2.143   4.413  -6.266  0.00  0.00    +0.085 C 
ATOM      6  C   UNL     1      -1.365   6.709  -6.107  0.00  0.00    +0.105 C 
ENDROOT
BRANCH   3   7
ATOM      7  C   UNL     1      -3.879   6.071  -3.788  0.00  0.00    -0.012 A 
ATOM      8  C   UNL     1      -3.172   6.869  -2.909  0.00  0.00    +0.115 A 
ATOM      9  N   UNL     1      -3.458   6.872  -1.622  0.00  0.00    -0.263 NA
ATOM     10  C   UNL     1      -4.420   6.121  -1.123  0.00  0.00    +0.111 A 
ATOM     11  C   UNL     1      -5.170   5.297  -1.942  0.00  0.00    +0.020 A 
ATOM     12  C   UNL     1      -4.902   5.271  -3.302  0.00  0.00    +0.008 A 
ENDBRANCH   3   7
TORSDOF 1
ENDMDL
MODEL 4
REMARK VINA RESULT:    -1.826      1.438      4.427
REMARK INTER + INTRA:          -2.120
REMARK INTER:                  -1.905
REMARK INTRA:                  -0.215
REMARK UNBOUND:                -0.187
REMARK  Name = Nicotine.pdb
REMARK  2 active torsions:
REMARK  status: ('A' for Active; 'I' for Inactive)
REMARK    1  A    between atoms: C_3  and  C_6
REMARK    2  A    between atoms: N_4  and  C_12
REMARK                            x       y       z     vdW  Elec       q    Type
REMARK                         _______ _______ _______ _____ _____    ______ ____
ROOT
ATOM      1  C   UNL     1      -0.600   5.680  -6.219  0.00  0.00    +0.017 C 
ATOM      2  C   UNL     1      -1.254   5.064  -4.955  0.00  0.00    +0.025 C 
ATOM      3  C   UNL     1      -2.739   5.458  -5.106  0.00  0.00    +0.088 C 
ATOM      4  N   UNL     1      -2.792   6.630  -5.999  0.00  0.00    -0.298 NA
ATOM      5  C   UNL     1      -1.410   6.990  -6.384  0.00  0.00    +0.085 C 
ATOM      6  C   UNL     1      -3.614   6.353  -7.183  0.00  0.00    +0.105 C 
ENDROOT
BRANCH   3   7
ATOM      7  C   UNL     1      -3.314   5.812  -3.759  0.00  0.00    -0.012 A 
ATOM      8  C   UNL     1      -2.481   6.044  -2.681  0.00  0.00    +0.115 A 
ATOM      9  N   UNL     1      -2.976   6.355  -1.499  0.00  0.00    -0.263 NA
ATOM     10  C   UNL     1      -4.275   6.456  -1.297  0.00  0.00    +0.111 A 
ATOM     11  C   UNL     1      -5.170   6.239  -2.328  0.00  0.00    +0.020 A 
ATOM     12  C   UNL     1      -4.686   5.916  -3.586  0.00  0.00    +0.008 A 
ENDBRANCH   3   7
TORSDOF 1
ENDMDL
MODEL 5
REMARK VINA RESULT:    -1.687      1.518      2.258
REMARK INTER + INTRA:          -1.973
REMARK INTER:                  -1.719
REMARK INTRA:                  -0.253
REMARK UNBOUND:                -0.187
REMARK  Name = Nicotine.pdb
REMARK  2 active torsions:
REMARK  status: ('A' for Active; 'I' for Inactive)
REMARK    1  A    between atoms: C_3  and  C_6
REMARK    2  A    between atoms: N_4  and  C_12
REMARK                            x       y       z     vdW  Elec       q    Type
REMARK                         _______ _______ _______ _____ _____    ______ ____
ROOT
ATOM      1  C   UNL     1      -2.015   6.942  -1.520  0.00  0.00    +0.017 C 
ATOM      2  C   UNL     1      -2.294   7.028  -3.044  0.00  0.00    +0.025 C 
ATOM      3  C   UNL     1      -3.730   6.476  -3.166  0.00  0.00    +0.088 C 
ATOM      4  N   UNL     1      -3.982   5.645  -1.975  0.00  0.00    -0.298 NA
ATOM      5  C   UNL     1      -2.762   5.639  -1.139  0.00  0.00    +0.085 C 
ATOM      6  C   UNL     1      -5.137   6.146  -1.218  0.00  0.00    +0.105 C 
ENDROOT
BRANCH   3   7
ATOM      7  C   UNL     1      -3.852   5.637  -4.412  0.00  0.00    -0.012 A 
ATOM      8  C   UNL     1      -5.035   5.618  -5.128  0.00  0.00    +0.115 A 
ATOM      9  N   UNL     1      -5.150   4.887  -6.220  0.00  0.00    -0.263 NA
ATOM     10  C   UNL     1      -4.153   4.151  -6.670  0.00  0.00    +0.111 A 
ATOM     11  C   UNL     1      -2.941   4.121  -6.007  0.00  0.00    +0.020 A 
ATOM     12  C   UNL     1      -2.780   4.880  -4.859  0.00  0.00    +0.008 A 
ENDBRANCH   3   7
TORSDOF 1
ENDMDL
MODEL 6
REMARK VINA RESULT:    -1.645      1.812      3.031
REMARK INTER + INTRA:          -1.929
REMARK INTER:                  -1.708
REMARK INTRA:                  -0.220
REMARK UNBOUND:                -0.187
REMARK  Name = Nicotine.pdb
REMARK  2 active torsions:
REMARK  status: ('A' for Active; 'I' for Inactive)
REMARK    1  A    between atoms: C_3  and  C_6
REMARK    2  A    between atoms: N_4  and  C_12
REMARK                            x       y       z     vdW  Elec       q    Type
REMARK                         _______ _______ _______ _____ _____    ______ ____
ROOT
ATOM      1  C   UNL     1      -1.986   5.750   0.747  0.00  0.00    +0.017 C 
ATOM      2  C   UNL     1      -1.920   6.379  -0.670  0.00  0.00    +0.025 C 
ATOM      3  C   UNL     1      -3.405   6.627  -1.009  0.00  0.00    +0.088 C 
ATOM      4  N   UNL     1      -4.203   5.717  -0.167  0.00  0.00    -0.298 NA
ATOM      5  C   UNL     1      -3.280   4.905   0.654  0.00  0.00    +0.085 C 
ATOM      6  C   UNL     1      -5.140   6.468   0.679  0.00  0.00    +0.105 C 
ENDROOT
BRANCH   3   7
ATOM      7  C   UNL     1      -3.655   6.331  -2.465  0.00  0.00    -0.012 A 
ATOM      8  C   UNL     1      -4.943   6.147  -2.930  0.00  0.00    +0.115 A 
ATOM      9  N   UNL     1      -5.171   5.888  -4.203  0.00  0.00    -0.263 NA
ATOM     10  C   UNL     1      -4.189   5.795  -5.077  0.00  0.00    +0.111 A 
ATOM     11  C   UNL     1      -2.874   5.968  -4.686  0.00  0.00    +0.020 A 
ATOM     12  C   UNL     1      -2.597   6.247  -3.357  0.00  0.00    +0.008 A 
ENDBRANCH   3   7
TORSDOF 1
ENDMDL
MODEL 7
REMARK VINA RESULT:    -1.599      2.522      4.341
REMARK INTER + INTRA:          -1.879
REMARK INTER:                  -1.695
REMARK INTRA:                  -0.184
REMARK UNBOUND:                -0.187
REMARK  Name = Nicotine.pdb
REMARK  2 active torsions:
REMARK  status: ('A' for Active; 'I' for Inactive)
REMARK    1  A    between atoms: C_3  and  C_6
REMARK    2  A    between atoms: N_4  and  C_12
REMARK                            x       y       z     vdW  Elec       q    Type
REMARK                         _______ _______ _______ _____ _____    ______ ____
ROOT
ATOM      1  C   UNL     1       0.038   4.685  -6.784  0.00  0.00    +0.017 C 
ATOM      2  C   UNL     1      -1.417   5.223  -6.758  0.00  0.00    +0.025 C 
ATOM      3  C   UNL     1      -1.383   6.263  -5.618  0.00  0.00    +0.088 C 
ATOM      4  N   UNL     1      -0.247   5.916  -4.744  0.00  0.00    -0.298 NA
ATOM      5  C   UNL     1       0.403   4.699  -5.278  0.00  0.00    +0.085 C 
ATOM      6  C   UNL     1       0.708   7.027  -4.655  0.00  0.00    +0.105 C 
ENDROOT
BRANCH   3   7
ATOM      7  C   UNL     1      -2.669   6.207  -4.835  0.00  0.00    -0.012 A 
ATOM      8  C   UNL     1      -3.828   5.745  -5.427  0.00  0.00    +0.115 A 
ATOM      9  N   UNL     1      -4.958   5.693  -4.749  0.00  0.00    -0.263 NA
ATOM     10  C   UNL     1      -5.029   6.076  -3.490  0.00  0.00    +0.111 A 
ATOM     11  C   UNL     1      -3.910   6.550  -2.830  0.00  0.00    +0.020 A 
ATOM     12  C   UNL     1      -2.703   6.614  -3.509  0.00  0.00    +0.008 A 
ENDBRANCH   3   7
TORSDOF 1
ENDMDL
MODEL 8
REMARK VINA RESULT:    -1.548      1.637      2.639
REMARK INTER + INTRA:          -1.826
REMARK INTER:                  -1.621
REMARK INTRA:                  -0.205
REMARK UNBOUND:                -0.187
REMARK  Name = Nicotine.pdb
REMARK  2 active torsions:
REMARK  status: ('A' for Active; 'I' for Inactive)
REMARK    1  A    between atoms: C_3  and  C_6
REMARK    2  A    between atoms: N_4  and  C_12
REMARK                            x       y       z     vdW  Elec       q    Type
REMARK                         _______ _______ _______ _____ _____    ______ ____
ROOT
ATOM      1  C   UNL     1      -0.008   5.066  -1.561  0.00  0.00    +0.017 C 
ATOM      2  C   UNL     1      -0.389   5.600  -2.967  0.00  0.00    +0.025 C 
ATOM      3  C   UNL     1      -1.670   6.416  -2.694  0.00  0.00    +0.088 C 
ATOM      4  N   UNL     1      -2.250   5.910  -1.436  0.00  0.00    -0.298 NA
ATOM      5  C   UNL     1      -1.402   4.807  -0.937  0.00  0.00    +0.085 C 
ATOM      6  C   UNL     1      -2.361   6.983  -0.439  0.00  0.00    +0.105 C 
ENDROOT
BRANCH   3   7
ATOM      7  C   UNL     1      -2.649   6.227  -3.824  0.00  0.00    -0.012 A 
ATOM      8  C   UNL     1      -2.243   6.390  -5.135  0.00  0.00    +0.115 A 
ATOM      9  N   UNL     1      -3.093   6.227  -6.130  0.00  0.00    -0.263 NA
ATOM     10  C   UNL     1      -4.354   5.905  -5.918  0.00  0.00    +0.111 A 
ATOM     11  C   UNL     1      -4.832   5.725  -4.633  0.00  0.00    +0.020 A 
ATOM     12  C   UNL     1      -3.966   5.883  -3.562  0.00  0.00    +0.008 A 
ENDBRANCH   3   7
TORSDOF 1
ENDMDL
