MODEL 1
REMARK VINA RESULT:    -4.016      0.000      0.000
REMARK INTER + INTRA:          -4.472
REMARK INTER:                  -4.250
REMARK INTRA:                  -0.222
REMARK UNBOUND:                -0.222
REMARK  Name = Nicotine.pdb
REMARK  2 active torsions:
REMARK  status: ('A' for Active; 'I' for Inactive)
REMARK    1  A    between atoms: C_3  and  C_6
REMARK    2  A    between atoms: N_4  and  C_12
REMARK                            x       y       z     vdW  Elec       q    Type
REMARK                         _______ _______ _______ _____ _____    ______ ____
ROOT
ATOM      1  C   UNL     1       7.854  -3.776   5.278  0.00  0.00    +0.017 C 
ATOM      2  C   UNL     1       7.656  -2.279   4.922  0.00  0.00    +0.025 C 
ATOM      3  C   UNL     1       9.060  -1.846   4.450  0.00  0.00    +0.088 C 
ATOM      4  N   UNL     1      10.028  -2.794   5.031  0.00  0.00    -0.298 NA
ATOM      5  C   UNL     1       9.291  -3.773   5.857  0.00  0.00    +0.085 C 
ATOM      6  C   UNL     1      10.802  -3.467   3.980  0.00  0.00    +0.105 C 
ENDROOT
BRANCH   3   7
ATOM      7  C   UNL     1       9.355  -0.449   4.932  0.00  0.00    -0.012 A 
ATOM      8  C   UNL     1      10.529  -0.177   5.609  0.00  0.00    +0.115 A 
ATOM      9  N   UNL     1      10.795   1.043   6.034  0.00  0.00    -0.263 NA
ATOM     10  C   UNL     1       9.960   2.044   5.835  0.00  0.00    +0.111 A 
ATOM     11  C   UNL     1       8.767   1.847   5.166  0.00  0.00    +0.020 A 
ATOM     12  C   UNL     1       8.455   0.579   4.699  0.00  0.00    +0.008 A 
ENDBRANCH   3   7
TORSDOF 1
ENDMDL
MODEL 2
REMARK VINA RESULT:    -3.935      1.704      4.527
REMARK INTER + INTRA:          -4.387
REMARK INTER:                  -4.171
REMARK INTRA:                  -0.216
REMARK UNBOUND:                -0.222
REMARK  Name = Nicotine.pdb
REMARK  2 active torsions:
REMARK  status: ('A' for Active; 'I' for Inactive)
REMARK    1  A    between atoms: C_3  and  C_6
REMARK    2  A    between atoms: N_4  and  C_12
REMARK                            x       y       z     vdW  Elec       q    Type
REMARK                         _______ _______ _______ _____ _____    ______ ____
ROOT
ATOM      1  C   UNL     1       8.554   2.068   5.241  0.00  0.00    +0.017 C 
ATOM      2  C   UNL     1       9.498   0.889   4.885  0.00  0.00    +0.025 C 
ATOM      3  C   UNL     1       8.515  -0.239   4.505  0.00  0.00    +0.088 C 
ATOM      4  N   UNL     1       7.222   0.076   5.138  0.00  0.00    -0.298 NA
ATOM      5  C   UNL     1       7.368   1.328   5.909  0.00  0.00    +0.085 C 
ATOM      6  C   UNL     1       6.159   0.197   4.132  0.00  0.00    +0.105 C 
ENDROOT
BRANCH   3   7
ATOM      7  C   UNL     1       9.029  -1.561   5.015  0.00  0.00    -0.012 A 
ATOM      8  C   UNL     1       8.147  -2.543   5.424  0.00  0.00    +0.115 A 
ATOM      9  N   UNL     1       8.589  -3.702   5.872  0.00  0.00    -0.263 NA
ATOM     10  C   UNL     1       9.877  -3.970   5.948  0.00  0.00    +0.111 A 
ATOM     11  C   UNL     1      10.819  -3.037   5.556  0.00  0.00    +0.020 A 
ATOM     12  C   UNL     1      10.392  -1.809   5.075  0.00  0.00    +0.008 A 
ENDBRANCH   3   7
TORSDOF 1
ENDMDL
MODEL 3
REMARK VINA RESULT:    -3.855      2.050      5.135
REMARK INTER + INTRA:          -4.303
REMARK INTER:                  -4.102
REMARK INTRA:                  -0.200
REMARK UNBOUND:                -0.222
REMARK  Name = Nicotine.pdb
REMARK  2 active torsions:
REMARK  status: ('A' for Active; 'I' for Inactive)
REMARK    1  A    between atoms: C_3  and  C_6
REMARK    2  A    between atoms: N_4  and  C_12
REMARK                            x       y       z     vdW  Elec       q    Type
REMARK                         _______ _______ _______ _____ _____    ______ ____
ROOT
ATOM      1  C   UNL     1       7.965  -0.129   5.621  0.00  0.00    +0.017 C 
ATOM      2  C   UNL     1       7.346  -1.428   6.203  0.00  0.00    +0.025 C 
ATOM      3  C   UNL     1       8.426  -2.490   5.905  0.00  0.00    +0.088 C 
ATOM      4  N   UNL     1       9.246  -1.979   4.791  0.00  0.00    -0.298 NA
ATOM      5  C   UNL     1       8.707  -0.668   4.373  0.00  0.00    +0.085 C 
ATOM      6  C   UNL     1      10.657  -1.869   5.182  0.00  0.00    +0.105 C 
ENDROOT
BRANCH   3   7
ATOM      7  C   UNL     1       7.773  -3.788   5.509  0.00  0.00    -0.012 A 
ATOM      8  C   UNL     1       6.395  -3.904   5.502  0.00  0.00    +0.115 A 
ATOM      9  N   UNL     1       5.815  -5.037   5.157  0.00  0.00    -0.263 NA
ATOM     10  C   UNL     1       6.517  -6.097   4.808  0.00  0.00    +0.111 A 
ATOM     11  C   UNL     1       7.899  -6.056   4.791  0.00  0.00    +0.020 A 
ATOM     12  C   UNL     1       8.544  -4.880   5.142  0.00  0.00    +0.008 A 
ENDBRANCH   3   7
TORSDOF 1
ENDMDL
MODEL 4
REMARK VINA RESULT:    -3.815      2.220      4.046
REMARK INTER + INTRA:          -4.260
REMARK INTER:                  -4.037
REMARK INTRA:                  -0.222
REMARK UNBOUND:                -0.222
REMARK  Name = Nicotine.pdb
REMARK  2 active torsions:
REMARK  status: ('A' for Active; 'I' for Inactive)
REMARK    1  A    between atoms: C_3  and  C_6
REMARK    2  A    between atoms: N_4  and  C_12
REMARK                            x       y       z     vdW  Elec       q    Type
REMARK                         _______ _______ _______ _____ _____    ______ ____
ROOT
ATOM      1  C   UNL     1       5.422  -5.073   4.471  0.00  0.00    +0.017 C 
ATOM      2  C   UNL     1       6.856  -5.100   5.064  0.00  0.00    +0.025 C 
ATOM      3  C   UNL     1       7.029  -3.669   5.618  0.00  0.00    +0.088 C 
ATOM      4  N   UNL     1       6.074  -2.805   4.902  0.00  0.00    -0.298 NA
ATOM      5  C   UNL     1       5.340  -3.628   3.917  0.00  0.00    +0.085 C 
ATOM      6  C   UNL     1       5.149  -2.153   5.838  0.00  0.00    +0.105 C 
ENDROOT
BRANCH   3   7
ATOM      7  C   UNL     1       8.437  -3.192   5.374  0.00  0.00    -0.012 A 
ATOM      8  C   UNL     1       8.754  -1.854   5.506  0.00  0.00    +0.115 A 
ATOM      9  N   UNL     1       9.985  -1.428   5.295  0.00  0.00    -0.263 NA
ATOM     10  C   UNL     1      10.954  -2.252   4.950  0.00  0.00    +0.111 A 
ATOM     11  C   UNL     1      10.712  -3.605   4.799  0.00  0.00    +0.020 A 
ATOM     12  C   UNL     1       9.432  -4.090   5.018  0.00  0.00    +0.008 A 
ENDBRANCH   3   7
TORSDOF 1
ENDMDL
MODEL 5
REMARK VINA RESULT:    -3.716      1.938      4.040
REMARK INTER + INTRA:          -4.155
REMARK INTER:                  -3.935
REMARK INTRA:                  -0.220
REMARK UNBOUND:                -0.222
REMARK  Name = Nicotine.pdb
REMARK  2 active torsions:
REMARK  status: ('A' for Active; 'I' for Inactive)
REMARK    1  A    between atoms: C_3  and  C_6
REMARK    2  A    between atoms: N_4  and  C_12
REMARK                            x       y       z     vdW  Elec       q    Type
REMARK                         _______ _______ _______ _____ _____    ______ ____
ROOT
ATOM      1  C   UNL     1       5.110  -0.878   5.035  0.00  0.00    +0.017 C 
ATOM      2  C   UNL     1       6.150  -1.847   5.659  0.00  0.00    +0.025 C 
ATOM      3  C   UNL     1       7.383  -0.943   5.870  0.00  0.00    +0.088 C 
ATOM      4  N   UNL     1       7.252   0.198   4.946  0.00  0.00    -0.298 NA
ATOM      5  C   UNL     1       6.012   0.027   4.159  0.00  0.00    +0.085 C 
ATOM      6  C   UNL     1       7.240   1.471   5.678  0.00  0.00    +0.105 C 
ENDROOT
BRANCH   3   7
ATOM      7  C   UNL     1       8.641  -1.712   5.562  0.00  0.00    -0.012 A 
ATOM      8  C   UNL     1       9.830  -1.046   5.334  0.00  0.00    +0.115 A 
ATOM      9  N   UNL     1      10.936  -1.711   5.063  0.00  0.00    -0.263 NA
ATOM     10  C   UNL     1      10.954  -3.028   4.999  0.00  0.00    +0.111 A 
ATOM     11  C   UNL     1       9.803  -3.763   5.216  0.00  0.00    +0.020 A 
ATOM     12  C   UNL     1       8.623  -3.098   5.508  0.00  0.00    +0.008 A 
ENDBRANCH   3   7
TORSDOF 1
ENDMDL
MODEL 6
REMARK VINA RESULT:    -3.691      1.805      2.874
REMARK INTER + INTRA:          -4.129
REMARK INTER:                  -3.928
REMARK INTRA:                  -0.200
REMARK UNBOUND:                -0.222
REMARK  Name = Nicotine.pdb
REMARK  2 active torsions:
REMARK  status: ('A' for Active; 'I' for Inactive)
REMARK    1  A    between atoms: C_3  and  C_6
REMARK    2  A    between atoms: N_4  and  C_12
REMARK                            x       y       z     vdW  Elec       q    Type
REMARK                         _______ _______ _______ _____ _____    ______ ____
ROOT
ATOM      1  C   UNL     1       9.495  -1.959   4.845  0.00  0.00    +0.017 C 
ATOM      2  C   UNL     1      10.145  -0.764   5.590  0.00  0.00    +0.025 C 
ATOM      3  C   UNL     1       8.945   0.168   5.865  0.00  0.00    +0.088 C 
ATOM      4  N   UNL     1       7.895  -0.173   4.888  0.00  0.00    -0.298 NA
ATOM      5  C   UNL     1       8.399  -1.250   4.011  0.00  0.00    +0.085 C 
ATOM      6  C   UNL     1       6.658  -0.581   5.566  0.00  0.00    +0.105 C 
ENDROOT
BRANCH   3   7
ATOM      7  C   UNL     1       9.362   1.605   5.691  0.00  0.00    -0.012 A 
ATOM      8  C   UNL     1      10.543   2.063   6.244  0.00  0.00    +0.115 A 
ATOM      9  N   UNL     1      10.916   3.319   6.096  0.00  0.00    -0.263 NA
ATOM     10  C   UNL     1      10.184   4.184   5.422  0.00  0.00    +0.111 A 
ATOM     11  C   UNL     1       8.990   3.799   4.840  0.00  0.00    +0.020 A 
ATOM     12  C   UNL     1       8.569   2.485   4.970  0.00  0.00    +0.008 A 
ENDBRANCH   3   7
TORSDOF 1
ENDMDL
MODEL 7
REMARK VINA RESULT:    -3.532      1.673      4.616
REMARK INTER + INTRA:          -3.961
REMARK INTER:                  -3.771
REMARK INTRA:                  -0.190
REMARK UNBOUND:                -0.222
REMARK  Name = Nicotine.pdb
REMARK  2 active torsions:
REMARK  status: ('A' for Active; 'I' for Inactive)
REMARK    1  A    between atoms: C_3  and  C_6
REMARK    2  A    between atoms: N_4  and  C_12
REMARK                            x       y       z     vdW  Elec       q    Type
REMARK                         _______ _______ _______ _____ _____    ______ ____
ROOT
ATOM      1  C   UNL     1       6.978   1.020   5.635  0.00  0.00    +0.017 C 
ATOM      2  C   UNL     1       6.952  -0.407   6.242  0.00  0.00    +0.025 C 
ATOM      3  C   UNL     1       8.429  -0.849   6.154  0.00  0.00    +0.088 C 
ATOM      4  N   UNL     1       9.067  -0.033   5.105  0.00  0.00    -0.298 NA
ATOM      5  C   UNL     1       8.050   0.869   4.526  0.00  0.00    +0.085 C 
ATOM      6  C   UNL     1      10.200   0.728   5.646  0.00  0.00    +0.105 C 
ENDROOT
BRANCH   3   7
ATOM      7  C   UNL     1       8.507  -2.308   5.790  0.00  0.00    -0.012 A 
ATOM      8  C   UNL     1       7.373  -3.098   5.820  0.00  0.00    +0.115 A 
ATOM      9  N   UNL     1       7.433  -4.377   5.502  0.00  0.00    -0.263 NA
ATOM     10  C   UNL     1       8.566  -4.950   5.146  0.00  0.00    +0.111 A 
ATOM     11  C   UNL     1       9.741  -4.224   5.093  0.00  0.00    +0.020 A 
ATOM     12  C   UNL     1       9.715  -2.875   5.415  0.00  0.00    +0.008 A 
ENDBRANCH   3   7
TORSDOF 1
ENDMDL
MODEL 8
REMARK VINA RESULT:    -3.506      2.131      3.772
REMARK INTER + INTRA:          -3.933
REMARK INTER:                  -3.748
REMARK INTRA:                  -0.185
REMARK UNBOUND:                -0.222
REMARK  Name = Nicotine.pdb
REMARK  2 active torsions:
REMARK  status: ('A' for Active; 'I' for Inactive)
REMARK    1  A    between atoms: C_3  and  C_6
REMARK    2  A    between atoms: N_4  and  C_12
REMARK                            x       y       z     vdW  Elec       q    Type
REMARK                         _______ _______ _______ _____ _____    ______ ____
ROOT
ATOM      1  C   UNL     1       5.092  -0.620   4.750  0.00  0.00    +0.017 C 
ATOM      2  C   UNL     1       6.593  -0.530   4.367  0.00  0.00    +0.025 C 
ATOM      3  C   UNL     1       7.034  -2.008   4.342  0.00  0.00    +0.088 C 
ATOM      4  N   UNL     1       6.082  -2.763   5.177  0.00  0.00    -0.298 NA
ATOM      5  C   UNL     1       5.092  -1.817   5.734  0.00  0.00    +0.085 C 
ATOM      6  C   UNL     1       5.422  -3.819   4.399  0.00  0.00    +0.105 C 
ENDROOT
BRANCH   3   7
ATOM      7  C   UNL     1       8.426  -2.138   4.905  0.00  0.00    -0.012 A 
ATOM      8  C   UNL     1       9.313  -1.081   4.825  0.00  0.00    +0.115 A 
ATOM      9  N   UNL     1      10.533  -1.186   5.315  0.00  0.00    -0.263 NA
ATOM     10  C   UNL     1      10.954  -2.292   5.896  0.00  0.00    +0.111 A 
ATOM     11  C   UNL     1      10.122  -3.390   6.013  0.00  0.00    +0.020 A 
ATOM     12  C   UNL     1       8.831  -3.315   5.514  0.00  0.00    +0.008 A 
ENDBRANCH   3   7
TORSDOF 1
ENDMDL
MODEL 9
REMARK VINA RESULT:    -3.504      2.350      4.166
REMARK INTER + INTRA:          -3.931
REMARK INTER:                  -3.688
REMARK INTRA:                  -0.243
REMARK UNBOUND:                -0.222
REMARK  Name = Nicotine.pdb
REMARK  2 active torsions:
REMARK  status: ('A' for Active; 'I' for Inactive)
REMARK    1  A    between atoms: C_3  and  C_6
REMARK    2  A    between atoms: N_4  and  C_12
REMARK                            x       y       z     vdW  Elec       q    Type
REMARK                         _______ _______ _______ _____ _____    ______ ____
ROOT
ATOM      1  C   UNL     1       5.954   0.283   4.622  0.00  0.00    +0.017 C 
ATOM      2  C   UNL     1       7.191  -0.480   4.080  0.00  0.00    +0.025 C 
ATOM      3  C   UNL     1       7.079  -1.857   4.769  0.00  0.00    +0.088 C 
ATOM      4  N   UNL     1       6.251  -1.676   5.974  0.00  0.00    -0.298 NA
ATOM      5  C   UNL     1       5.868  -0.251   6.074  0.00  0.00    +0.085 C 
ATOM      6  C   UNL     1       5.063  -2.539   5.931  0.00  0.00    +0.105 C 
ENDROOT
BRANCH   3   7
ATOM      7  C   UNL     1       8.450  -2.349   5.156  0.00  0.00    -0.012 A 
ATOM      8  C   UNL     1       8.606  -3.589   5.745  0.00  0.00    +0.115 A 
ATOM      9  N   UNL     1       9.802  -4.028   6.087  0.00  0.00    -0.263 NA
ATOM     10  C   UNL     1      10.888  -3.308   5.884  0.00  0.00    +0.111 A 
ATOM     11  C   UNL     1      10.810  -2.058   5.299  0.00  0.00    +0.020 A 
ATOM     12  C   UNL     1       9.570  -1.566   4.922  0.00  0.00    +0.008 A 
ENDBRANCH   3   7
TORSDOF 1
ENDMDL
