MODEL 1
REMARK VINA RESULT:    -3.683      0.000      0.000
REMARK INTER + INTRA:          -4.100
REMARK INTER:                  -3.898
REMARK INTRA:                  -0.202
REMARK UNBOUND:                -0.202
REMARK  Name = Nicotine.pdb
REMARK  2 active torsions:
REMARK  status: ('A' for Active; 'I' for Inactive)
REMARK    1  A    between atoms: C_3  and  C_6
REMARK    2  A    between atoms: N_4  and  C_12
REMARK                            x       y       z     vdW  Elec       q    Type
REMARK                         _______ _______ _______ _____ _____    ______ ____
ROOT
ATOM      1  C   UNL     1       3.727  -4.961  -4.168  0.00  0.00    +0.017 C 
ATOM      2  C   UNL     1       2.263  -5.024  -4.677  0.00  0.00    +0.025 C 
ATOM      3  C   UNL     1       2.392  -4.598  -6.155  0.00  0.00    +0.088 C 
ATOM      4  N   UNL     1       3.644  -3.830  -6.281  0.00  0.00    -0.298 NA
ATOM      5  C   UNL     1       4.279  -3.742  -4.949  0.00  0.00    +0.085 C 
ATOM      6  C   UNL     1       4.548  -4.454  -7.256  0.00  0.00    +0.105 C 
ENDROOT
BRANCH   3   7
ATOM      7  C   UNL     1       1.219  -3.735  -6.544  0.00  0.00    -0.012 A 
ATOM      8  C   UNL     1       0.002  -4.311  -6.857  0.00  0.00    +0.115 A 
ATOM      9  N   UNL     1      -1.030  -3.563  -7.198  0.00  0.00    -0.263 NA
ATOM     10  C   UNL     1      -0.945  -2.249  -7.254  0.00  0.00    +0.111 A 
ATOM     11  C   UNL     1       0.240  -1.603  -6.954  0.00  0.00    +0.020 A 
ATOM     12  C   UNL     1       1.344  -2.355  -6.586  0.00  0.00    +0.008 A 
ENDBRANCH   3   7
TORSDOF 1
ENDMDL
MODEL 2
REMARK VINA RESULT:    -3.648      1.194      2.410
REMARK INTER + INTRA:          -4.063
REMARK INTER:                  -3.850
REMARK INTRA:                  -0.213
REMARK UNBOUND:                -0.202
REMARK  Name = Nicotine.pdb
REMARK  2 active torsions:
REMARK  status: ('A' for Active; 'I' for Inactive)
REMARK    1  A    between atoms: C_3  and  C_6
REMARK    2  A    between atoms: N_4  and  C_12
REMARK                            x       y       z     vdW  Elec       q    Type
REMARK                         _______ _______ _______ _____ _____    ______ ____
ROOT
ATOM      1  C   UNL     1       4.386  -4.038  -7.151  0.00  0.00    +0.017 C 
ATOM      2  C   UNL     1       3.100  -3.177  -7.256  0.00  0.00    +0.025 C 
ATOM      3  C   UNL     1       2.246  -3.684  -6.074  0.00  0.00    +0.088 C 
ATOM      4  N   UNL     1       2.726  -5.036  -5.736  0.00  0.00    -0.298 NA
ATOM      5  C   UNL     1       3.816  -5.395  -6.669  0.00  0.00    +0.085 C 
ATOM      6  C   UNL     1       3.182  -5.101  -4.342  0.00  0.00    +0.105 C 
ENDROOT
BRANCH   3   7
ATOM      7  C   UNL     1       0.795  -3.740  -6.477  0.00  0.00    -0.012 A 
ATOM      8  C   UNL     1       0.143  -2.597  -6.901  0.00  0.00    +0.115 A 
ATOM      9  N   UNL     1      -1.127  -2.637  -7.255  0.00  0.00    -0.263 NA
ATOM     10  C   UNL     1      -1.821  -3.757  -7.220  0.00  0.00    +0.111 A 
ATOM     11  C   UNL     1      -1.236  -4.940  -6.807  0.00  0.00    +0.020 A 
ATOM     12  C   UNL     1       0.099  -4.938  -6.432  0.00  0.00    +0.008 A 
ENDBRANCH   3   7
TORSDOF 1
ENDMDL
MODEL 3
REMARK VINA RESULT:    -3.409      1.903      3.190
REMARK INTER + INTRA:          -3.810
REMARK INTER:                  -3.609
REMARK INTRA:                  -0.201
REMARK UNBOUND:                -0.202
REMARK  Name = Nicotine.pdb
REMARK  2 active torsions:
REMARK  status: ('A' for Active; 'I' for Inactive)
REMARK    1  A    between atoms: C_3  and  C_6
REMARK    2  A    between atoms: N_4  and  C_12
REMARK                            x       y       z     vdW  Elec       q    Type
REMARK                         _______ _______ _______ _____ _____    ______ ____
ROOT
ATOM      1  C   UNL     1      -0.590  -5.692  -6.292  0.00  0.00    +0.017 C 
ATOM      2  C   UNL     1      -1.139  -4.582  -7.226  0.00  0.00    +0.025 C 
ATOM      3  C   UNL     1       0.006  -3.547  -7.246  0.00  0.00    +0.088 C 
ATOM      4  N   UNL     1       0.810  -3.763  -6.030  0.00  0.00    -0.298 NA
ATOM      5  C   UNL     1       0.201  -4.862  -5.251  0.00  0.00    +0.085 C 
ATOM      6  C   UNL     1       2.207  -4.068  -6.368  0.00  0.00    +0.105 C 
ENDROOT
BRANCH   3   7
ATOM      7  C   UNL     1      -0.563  -2.152  -7.245  0.00  0.00    -0.012 A 
ATOM      8  C   UNL     1      -1.931  -1.955  -7.256  0.00  0.00    +0.115 A 
ATOM      9  N   UNL     1      -2.437  -0.738  -7.255  0.00  0.00    -0.263 NA
ATOM     10  C   UNL     1      -1.668   0.333  -7.244  0.00  0.00    +0.111 A 
ATOM     11  C   UNL     1      -0.291   0.214  -7.232  0.00  0.00    +0.020 A 
ATOM     12  C   UNL     1       0.278  -1.050  -7.227  0.00  0.00    +0.008 A 
ENDBRANCH   3   7
TORSDOF 1
ENDMDL
MODEL 4
REMARK VINA RESULT:    -2.950      1.521      4.345
REMARK INTER + INTRA:          -3.324
REMARK INTER:                  -3.131
REMARK INTRA:                  -0.194
REMARK UNBOUND:                -0.202
REMARK  Name = Nicotine.pdb
REMARK  2 active torsions:
REMARK  status: ('A' for Active; 'I' for Inactive)
REMARK    1  A    between atoms: C_3  and  C_6
REMARK    2  A    between atoms: N_4  and  C_12
REMARK                            x       y       z     vdW  Elec       q    Type
REMARK                         _______ _______ _______ _____ _____    ______ ____
ROOT
ATOM      1  C   UNL     1      -1.445  -2.499  -6.972  0.00  0.00    +0.017 C 
ATOM      2  C   UNL     1      -0.552  -3.710  -6.598  0.00  0.00    +0.025 C 
ATOM      3  C   UNL     1       0.622  -3.055  -5.839  0.00  0.00    +0.088 C 
ATOM      4  N   UNL     1       0.678  -1.643  -6.258  0.00  0.00    -0.298 NA
ATOM      5  C   UNL     1      -0.386  -1.404  -7.256  0.00  0.00    +0.085 C 
ATOM      6  C   UNL     1       0.531  -0.745  -5.105  0.00  0.00    +0.105 C 
ENDROOT
BRANCH   3   7
ATOM      7  C   UNL     1       1.912  -3.748  -6.192  0.00  0.00    -0.012 A 
ATOM      8  C   UNL     1       1.899  -4.909  -6.942  0.00  0.00    +0.115 A 
ATOM      9  N   UNL     1       3.024  -5.522  -7.256  0.00  0.00    -0.263 NA
ATOM     10  C   UNL     1       4.197  -5.058  -6.871  0.00  0.00    +0.111 A 
ATOM     11  C   UNL     1       4.288  -3.902  -6.118  0.00  0.00    +0.020 A 
ATOM     12  C   UNL     1       3.127  -3.227  -5.774  0.00  0.00    +0.008 A 
ENDBRANCH   3   7
TORSDOF 1
ENDMDL
MODEL 5
REMARK VINA RESULT:    -2.783      1.530      4.698
REMARK INTER + INTRA:          -3.148
REMARK INTER:                  -2.933
REMARK INTRA:                  -0.215
REMARK UNBOUND:                -0.202
REMARK  Name = Nicotine.pdb
REMARK  2 active torsions:
REMARK  status: ('A' for Active; 'I' for Inactive)
REMARK    1  A    between atoms: C_3  and  C_6
REMARK    2  A    between atoms: N_4  and  C_12
REMARK                            x       y       z     vdW  Elec       q    Type
REMARK                         _______ _______ _______ _____ _____    ______ ____
ROOT
ATOM      1  C   UNL     1      -0.312   0.276  -7.061  0.00  0.00    +0.017 C 
ATOM      2  C   UNL     1       0.862  -0.719  -7.256  0.00  0.00    +0.025 C 
ATOM      3  C   UNL     1       0.169  -2.096  -7.164  0.00  0.00    +0.088 C 
ATOM      4  N   UNL     1      -1.092  -1.901  -6.426  0.00  0.00    -0.298 NA
ATOM      5  C   UNL     1      -1.196  -0.479  -6.037  0.00  0.00    +0.085 C 
ATOM      6  C   UNL     1      -2.246  -2.312  -7.236  0.00  0.00    +0.105 C 
ENDROOT
BRANCH   3   7
ATOM      7  C   UNL     1       1.053  -3.067  -6.426  0.00  0.00    -0.012 A 
ATOM      8  C   UNL     1       0.499  -4.116  -5.716  0.00  0.00    +0.115 A 
ATOM      9  N   UNL     1       1.266  -4.970  -5.067  0.00  0.00    -0.263 NA
ATOM     10  C   UNL     1       2.580  -4.861  -5.068  0.00  0.00    +0.111 A 
ATOM     11  C   UNL     1       3.205  -3.838  -5.755  0.00  0.00    +0.020 A 
ATOM     12  C   UNL     1       2.432  -2.923  -6.454  0.00  0.00    +0.008 A 
ENDBRANCH   3   7
TORSDOF 1
ENDMDL
MODEL 6
REMARK VINA RESULT:    -2.329      2.741      4.995
REMARK INTER + INTRA:          -2.667
REMARK INTER:                  -2.469
REMARK INTRA:                  -0.198
REMARK UNBOUND:                -0.202
REMARK  Name = Nicotine.pdb
REMARK  2 active torsions:
REMARK  status: ('A' for Active; 'I' for Inactive)
REMARK    1  A    between atoms: C_3  and  C_6
REMARK    2  A    between atoms: N_4  and  C_12
REMARK                            x       y       z     vdW  Elec       q    Type
REMARK                         _______ _______ _______ _____ _____    ______ ____
ROOT
ATOM      1  C   UNL     1       0.230   0.587  -6.201  0.00  0.00    +0.017 C 
ATOM      2  C   UNL     1       0.598  -0.715  -6.960  0.00  0.00    +0.025 C 
ATOM      3  C   UNL     1      -0.780  -1.346  -7.256  0.00  0.00    +0.088 C 
ATOM      4  N   UNL     1      -1.734  -0.788  -6.280  0.00  0.00    -0.298 NA
ATOM      5  C   UNL     1      -1.005   0.134  -5.383  0.00  0.00    +0.085 C 
ATOM      6  C   UNL     1      -2.840  -0.101  -6.958  0.00  0.00    +0.105 C 
ENDROOT
BRANCH   3   7
ATOM      7  C   UNL     1      -0.702  -2.842  -7.102  0.00  0.00    -0.012 A 
ATOM      8  C   UNL     1       0.503  -3.454  -6.814  0.00  0.00    +0.115 A 
ATOM      9  N   UNL     1       0.580  -4.763  -6.678  0.00  0.00    -0.263 NA
ATOM     10  C   UNL     1      -0.479  -5.537  -6.809  0.00  0.00    +0.111 A 
ATOM     11  C   UNL     1      -1.719  -4.997  -7.097  0.00  0.00    +0.020 A 
ATOM     12  C   UNL     1      -1.839  -3.623  -7.242  0.00  0.00    +0.008 A 
ENDBRANCH   3   7
TORSDOF 1
ENDMDL
MODEL 7
REMARK VINA RESULT:    -1.841      3.164      4.454
REMARK INTER + INTRA:          -2.150
REMARK INTER:                  -1.935
REMARK INTRA:                  -0.216
REMARK UNBOUND:                -0.202
REMARK  Name = Nicotine.pdb
REMARK  2 active torsions:
REMARK  status: ('A' for Active; 'I' for Inactive)
REMARK    1  A    between atoms: C_3  and  C_6
REMARK    2  A    between atoms: N_4  and  C_12
REMARK                            x       y       z     vdW  Elec       q    Type
REMARK                         _______ _______ _______ _____ _____    ______ ____
ROOT
ATOM      1  C   UNL     1       1.493  -1.514  -5.817  0.00  0.00    +0.017 C 
ATOM      2  C   UNL     1       0.633  -2.522  -6.624  0.00  0.00    +0.025 C 
ATOM      3  C   UNL     1      -0.452  -1.625  -7.256  0.00  0.00    +0.088 C 
ATOM      4  N   UNL     1      -0.542  -0.404  -6.436  0.00  0.00    -0.298 NA
ATOM      5  C   UNL     1       0.418  -0.517  -5.317  0.00  0.00    +0.085 C 
ATOM      6  C   UNL     1      -0.272   0.794  -7.242  0.00  0.00    +0.105 C 
ENDROOT
BRANCH   3   7
ATOM      7  C   UNL     1      -1.777  -2.344  -7.253  0.00  0.00    -0.012 A 
ATOM      8  C   UNL     1      -2.960  -1.630  -7.256  0.00  0.00    +0.115 A 
ATOM      9  N   UNL     1      -4.123  -2.251  -7.254  0.00  0.00    -0.263 NA
ATOM     10  C   UNL     1      -4.206  -3.567  -7.249  0.00  0.00    +0.111 A 
ATOM     11  C   UNL     1      -3.065  -4.348  -7.247  0.00  0.00    +0.020 A 
ATOM     12  C   UNL     1      -1.824  -3.730  -7.254  0.00  0.00    +0.008 A 
ENDBRANCH   3   7
TORSDOF 1
ENDMDL
MODEL 8
REMARK VINA RESULT:    -1.539      1.746      2.309
REMARK INTER + INTRA:          -1.830
REMARK INTER:                  -1.590
REMARK INTRA:                  -0.240
REMARK UNBOUND:                -0.202
REMARK  Name = Nicotine.pdb
REMARK  2 active torsions:
REMARK  status: ('A' for Active; 'I' for Inactive)
REMARK    1  A    between atoms: C_3  and  C_6
REMARK    2  A    between atoms: N_4  and  C_12
REMARK                            x       y       z     vdW  Elec       q    Type
REMARK                         _______ _______ _______ _____ _____    ______ ____
ROOT
ATOM      1  C   UNL     1       3.725  -3.661  -5.254  0.00  0.00    +0.017 C 
ATOM      2  C   UNL     1       2.572  -2.745  -4.764  0.00  0.00    +0.025 C 
ATOM      3  C   UNL     1       1.432  -3.063  -5.753  0.00  0.00    +0.088 C 
ATOM      4  N   UNL     1       2.051  -3.616  -6.971  0.00  0.00    -0.298 NA
ATOM      5  C   UNL     1       3.518  -3.629  -6.789  0.00  0.00    +0.085 C 
ATOM      6  C   UNL     1       1.543  -4.964  -7.256  0.00  0.00    +0.105 C 
ENDROOT
BRANCH   3   7
ATOM      7  C   UNL     1       0.676  -1.803  -6.087  0.00  0.00    -0.012 A 
ATOM      8  C   UNL     1      -0.397  -1.841  -6.958  0.00  0.00    +0.115 A 
ATOM      9  N   UNL     1      -1.063  -0.743  -7.256  0.00  0.00    -0.263 NA
ATOM     10  C   UNL     1      -0.738   0.426  -6.741  0.00  0.00    +0.111 A 
ATOM     11  C   UNL     1       0.323   0.542  -5.862  0.00  0.00    +0.020 A 
ATOM     12  C   UNL     1       1.044  -0.592  -5.521  0.00  0.00    +0.008 A 
ENDBRANCH   3   7
TORSDOF 1
ENDMDL
MODEL 9
REMARK VINA RESULT:    -0.876      2.037      5.233
REMARK INTER + INTRA:          -1.129
REMARK INTER:                  -0.944
REMARK INTRA:                  -0.185
REMARK UNBOUND:                -0.202
REMARK  Name = Nicotine.pdb
REMARK  2 active torsions:
REMARK  status: ('A' for Active; 'I' for Inactive)
REMARK    1  A    between atoms: C_3  and  C_6
REMARK    2  A    between atoms: N_4  and  C_12
REMARK                            x       y       z     vdW  Elec       q    Type
REMARK                         _______ _______ _______ _____ _____    ______ ____
ROOT
ATOM      1  C   UNL     1      -3.653  -2.909  -7.003  0.00  0.00    +0.017 C 
ATOM      2  C   UNL     1      -2.152  -2.608  -7.253  0.00  0.00    +0.025 C 
ATOM      3  C   UNL     1      -1.505  -4.009  -7.207  0.00  0.00    +0.088 C 
ATOM      4  N   UNL     1      -2.413  -4.884  -6.445  0.00  0.00    -0.298 NA
ATOM      5  C   UNL     1      -3.573  -4.085  -5.998  0.00  0.00    +0.085 C 
ATOM      6  C   UNL     1      -2.843  -6.031  -7.255  0.00  0.00    +0.105 C 
ENDROOT
BRANCH   3   7
ATOM      7  C   UNL     1      -0.166  -3.933  -6.520  0.00  0.00    -0.012 A 
ATOM      8  C   UNL     1       0.499  -2.726  -6.417  0.00  0.00    +0.115 A 
ATOM      9  N   UNL     1       1.671  -2.650  -5.817  0.00  0.00    -0.263 NA
ATOM     10  C   UNL     1       2.252  -3.713  -5.296  0.00  0.00    +0.111 A 
ATOM     11  C   UNL     1       1.647  -4.954  -5.360  0.00  0.00    +0.020 A 
ATOM     12  C   UNL     1       0.412  -5.071  -5.979  0.00  0.00    +0.008 A 
ENDBRANCH   3   7
TORSDOF 1
ENDMDL
