MODEL 1
REMARK VINA RESULT:     0.058      0.000      0.000
REMARK INTER + INTRA:          -0.190
REMARK INTER:                   0.061
REMARK INTRA:                  -0.251
REMARK UNBOUND:                -0.251
REMARK  Name = Nicotine.pdb
REMARK  2 active torsions:
REMARK  status: ('A' for Active; 'I' for Inactive)
REMARK    1  A    between atoms: C_3  and  C_6
REMARK    2  A    between atoms: N_4  and  C_12
REMARK                            x       y       z     vdW  Elec       q    Type
REMARK                         _______ _______ _______ _____ _____    ______ ____
ROOT
ATOM      1  C   UNL     1      -5.058   5.780   5.253  0.00  0.00    +0.017 C 
ATOM      2  C   UNL     1      -4.519   4.713   6.242  0.00  0.00    +0.025 C 
ATOM      3  C   UNL     1      -2.990   4.812   6.061  0.00  0.00    +0.088 C 
ATOM      4  N   UNL     1      -2.745   5.410   4.736  0.00  0.00    -0.298 NA
ATOM      5  C   UNL     1      -4.048   5.660   4.084  0.00  0.00    +0.085 C 
ATOM      6  C   UNL     1      -1.967   6.651   4.854  0.00  0.00    +0.105 C 
ENDROOT
BRANCH   3   7
ATOM      7  C   UNL     1      -2.376   3.437   6.126  0.00  0.00    -0.012 A 
ATOM      8  C   UNL     1      -1.003   3.287   6.177  0.00  0.00    +0.115 A 
ATOM      9  N   UNL     1      -0.458   2.087   6.234  0.00  0.00    -0.263 NA
ATOM     10  C   UNL     1      -1.191   0.992   6.244  0.00  0.00    +0.111 A 
ATOM     11  C   UNL     1      -2.571   1.064   6.195  0.00  0.00    +0.020 A 
ATOM     12  C   UNL     1      -3.180   2.308   6.140  0.00  0.00    +0.008 A 
ENDBRANCH   3   7
TORSDOF 1
ENDMDL
MODEL 2
REMARK VINA RESULT:     1.687      1.205      2.337
REMARK INTER + INTRA:           1.535
REMARK INTER:                   1.790
REMARK INTRA:                  -0.255
REMARK UNBOUND:                -0.251
REMARK  Name = Nicotine.pdb
REMARK  2 active torsions:
REMARK  status: ('A' for Active; 'I' for Inactive)
REMARK    1  A    between atoms: C_3  and  C_6
REMARK    2  A    between atoms: N_4  and  C_12
REMARK                            x       y       z     vdW  Elec       q    Type
REMARK                         _______ _______ _______ _____ _____    ______ ____
ROOT
ATOM      1  C   UNL     1      -2.520   7.023   4.844  0.00  0.00    +0.017 C 
ATOM      2  C   UNL     1      -2.024   5.636   4.357  0.00  0.00    +0.025 C 
ATOM      3  C   UNL     1      -3.076   4.667   4.939  0.00  0.00    +0.088 C 
ATOM      4  N   UNL     1      -3.714   5.348   6.080  0.00  0.00    -0.298 NA
ATOM      5  C   UNL     1      -3.088   6.678   6.244  0.00  0.00    +0.085 C 
ATOM      6  C   UNL     1      -5.163   5.469   5.878  0.00  0.00    +0.105 C 
ENDROOT
BRANCH   3   7
ATOM      7  C   UNL     1      -2.404   3.402   5.406  0.00  0.00    -0.012 A 
ATOM      8  C   UNL     1      -3.099   2.207   5.424  0.00  0.00    +0.115 A 
ATOM      9  N   UNL     1      -2.519   1.095   5.831  0.00  0.00    -0.263 NA
ATOM     10  C   UNL     1      -1.264   1.076   6.235  0.00  0.00    +0.111 A 
ATOM     11  C   UNL     1      -0.506   2.232   6.244  0.00  0.00    +0.020 A 
ATOM     12  C   UNL     1      -1.080   3.419   5.818  0.00  0.00    +0.008 A 
ENDBRANCH   3   7
TORSDOF 1
ENDMDL
MODEL 3
REMARK VINA RESULT:     1.900      1.422      4.763
REMARK INTER + INTRA:           1.761
REMARK INTER:                   1.992
REMARK INTRA:                  -0.231
REMARK UNBOUND:                -0.251
REMARK  Name = Nicotine.pdb
REMARK  2 active torsions:
REMARK  status: ('A' for Active; 'I' for Inactive)
REMARK    1  A    between atoms: C_3  and  C_6
REMARK    2  A    between atoms: N_4  and  C_12
REMARK                            x       y       z     vdW  Elec       q    Type
REMARK                         _______ _______ _______ _____ _____    ______ ____
ROOT
ATOM      1  C   UNL     1      -0.679   2.412   6.226  0.00  0.00    +0.017 C 
ATOM      2  C   UNL     1      -1.020   3.924   6.175  0.00  0.00    +0.025 C 
ATOM      3  C   UNL     1      -2.550   3.929   5.969  0.00  0.00    +0.088 C 
ATOM      4  N   UNL     1      -2.915   2.625   5.386  0.00  0.00    -0.298 NA
ATOM      5  C   UNL     1      -1.683   1.830   5.200  0.00  0.00    +0.085 C 
ATOM      6  C   UNL     1      -3.876   1.916   6.242  0.00  0.00    +0.105 C 
ENDROOT
BRANCH   3   7
ATOM      7  C   UNL     1      -2.937   5.039   5.028  0.00  0.00    -0.012 A 
ATOM      8  C   UNL     1      -4.241   5.156   4.584  0.00  0.00    +0.115 A 
ATOM      9  N   UNL     1      -4.589   6.125   3.760  0.00  0.00    -0.263 NA
ATOM     10  C   UNL     1      -3.716   7.015   3.329  0.00  0.00    +0.111 A 
ATOM     11  C   UNL     1      -2.395   6.963   3.731  0.00  0.00    +0.020 A 
ATOM     12  C   UNL     1      -1.993   5.961   4.601  0.00  0.00    +0.008 A 
ENDBRANCH   3   7
TORSDOF 1
ENDMDL
