MODEL 1
REMARK VINA RESULT:     0.000      0.000      0.000
REMARK INTER + INTRA:          -0.256
REMARK INTER:                   0.000
REMARK INTRA:                  -0.256
REMARK UNBOUND:                -0.256
REMARK  Name = Nicotine.pdb
REMARK  2 active torsions:
REMARK  status: ('A' for Active; 'I' for Inactive)
REMARK    1  A    between atoms: C_3  and  C_6
REMARK    2  A    between atoms: N_4  and  C_12
REMARK                            x       y       z     vdW  Elec       q    Type
REMARK                         _______ _______ _______ _____ _____    ______ ____
ROOT
ATOM      1  C   UNL     1      -2.622   3.293   2.548  0.00  0.00    +0.017 C 
ATOM      2  C   UNL     1      -1.730   2.493   1.562  0.00  0.00    +0.025 C 
ATOM      3  C   UNL     1      -2.715   1.473   0.952  0.00  0.00    +0.088 C 
ATOM      4  N   UNL     1      -3.836   1.329   1.898  0.00  0.00    -0.298 NA
ATOM      5  C   UNL     1      -3.576   2.191   3.071  0.00  0.00    +0.085 C 
ATOM      6  C   UNL     1      -5.112   1.678   1.260  0.00  0.00    +0.105 C 
ENDROOT
BRANCH   3   7
ATOM      7  C   UNL     1      -2.027   0.146   0.763  0.00  0.00    -0.012 A 
ATOM      8  C   UNL     1      -2.523  -0.776  -0.139  0.00  0.00    +0.115 A 
ATOM      9  N   UNL     1      -1.927  -1.940  -0.311  0.00  0.00    -0.263 NA
ATOM     10  C   UNL     1      -0.845  -2.270   0.366  0.00  0.00    +0.111 A 
ATOM     11  C   UNL     1      -0.291  -1.399   1.286  0.00  0.00    +0.020 A 
ATOM     12  C   UNL     1      -0.887  -0.164   1.489  0.00  0.00    +0.008 A 
ENDBRANCH   3   7
TORSDOF 1
ENDMDL
MODEL 2
REMARK VINA RESULT:     0.000      5.135      6.912
REMARK INTER + INTRA:          -0.256
REMARK INTER:                   0.000
REMARK INTRA:                  -0.256
REMARK UNBOUND:                -0.256
REMARK  Name = Nicotine.pdb
REMARK  2 active torsions:
REMARK  status: ('A' for Active; 'I' for Inactive)
REMARK    1  A    between atoms: C_3  and  C_6
REMARK    2  A    between atoms: N_4  and  C_12
REMARK                            x       y       z     vdW  Elec       q    Type
REMARK                         _______ _______ _______ _____ _____    ______ ____
ROOT
ATOM      1  C   UNL     1       4.499   0.418  -0.399  0.00  0.00    +0.017 C 
ATOM      2  C   UNL     1       3.364  -0.601  -0.118  0.00  0.00    +0.025 C 
ATOM      3  C   UNL     1       3.420  -1.532  -1.348  0.00  0.00    +0.088 C 
ATOM      4  N   UNL     1       4.079  -0.782  -2.433  0.00  0.00    -0.298 NA
ATOM      5  C   UNL     1       4.408   0.572  -1.938  0.00  0.00    +0.085 C 
ATOM      6  C   UNL     1       5.284  -1.480  -2.899  0.00  0.00    +0.105 C 
ENDROOT
BRANCH   3   7
ATOM      7  C   UNL     1       2.024  -1.917  -1.764  0.00  0.00    -0.012 A 
ATOM      8  C   UNL     1       1.809  -3.050  -2.525  0.00  0.00    +0.115 A 
ATOM      9  N   UNL     1       0.590  -3.395  -2.892  0.00  0.00    -0.263 NA
ATOM     10  C   UNL     1      -0.464  -2.680  -2.554  0.00  0.00    +0.111 A 
ATOM     11  C   UNL     1      -0.327  -1.533  -1.793  0.00  0.00    +0.020 A 
ATOM     12  C   UNL     1       0.939  -1.143  -1.383  0.00  0.00    +0.008 A 
ENDBRANCH   3   7
TORSDOF 1
ENDMDL
MODEL 3
REMARK VINA RESULT:     0.000      4.219      5.987
REMARK INTER + INTRA:          -0.256
REMARK INTER:                   0.000
REMARK INTRA:                  -0.256
REMARK UNBOUND:                -0.256
REMARK  Name = Nicotine.pdb
REMARK  2 active torsions:
REMARK  status: ('A' for Active; 'I' for Inactive)
REMARK    1  A    between atoms: C_3  and  C_6
REMARK    2  A    between atoms: N_4  and  C_12
REMARK                            x       y       z     vdW  Elec       q    Type
REMARK                         _______ _______ _______ _____ _____    ______ ____
ROOT
ATOM      1  C   UNL     1      -3.457  -0.588  -4.565  0.00  0.00    +0.017 C 
ATOM      2  C   UNL     1      -3.528  -0.074  -3.103  0.00  0.00    +0.025 C 
ATOM      3  C   UNL     1      -3.896   1.415  -3.276  0.00  0.00    +0.088 C 
ATOM      4  N   UNL     1      -3.493   1.809  -4.638  0.00  0.00    -0.298 NA
ATOM      5  C   UNL     1      -2.872   0.643  -5.302  0.00  0.00    +0.085 C 
ATOM      6  C   UNL     1      -4.643   2.303  -5.407  0.00  0.00    +0.105 C 
ENDROOT
BRANCH   3   7
ATOM      7  C   UNL     1      -3.158   2.247  -2.260  0.00  0.00    -0.012 A 
ATOM      8  C   UNL     1      -3.623   3.502  -1.913  0.00  0.00    +0.115 A 
ATOM      9  N   UNL     1      -2.983   4.236  -1.025  0.00  0.00    -0.263 NA
ATOM     10  C   UNL     1      -1.883   3.810  -0.436  0.00  0.00    +0.111 A 
ATOM     11  C   UNL     1      -1.358   2.566  -0.732  0.00  0.00    +0.020 A 
ATOM     12  C   UNL     1      -2.007   1.763  -1.657  0.00  0.00    +0.008 A 
ENDBRANCH   3   7
TORSDOF 1
ENDMDL
MODEL 4
REMARK VINA RESULT:     0.000      5.641      7.177
REMARK INTER + INTRA:          -0.256
REMARK INTER:                   0.000
REMARK INTRA:                  -0.256
REMARK UNBOUND:                -0.256
REMARK  Name = Nicotine.pdb
REMARK  2 active torsions:
REMARK  status: ('A' for Active; 'I' for Inactive)
REMARK    1  A    between atoms: C_3  and  C_6
REMARK    2  A    between atoms: N_4  and  C_12
REMARK                            x       y       z     vdW  Elec       q    Type
REMARK                         _______ _______ _______ _____ _____    ______ ____
ROOT
ATOM      1  C   UNL     1      -3.247  -2.329  -3.952  0.00  0.00    +0.017 C 
ATOM      2  C   UNL     1      -3.173  -0.909  -3.331  0.00  0.00    +0.025 C 
ATOM      3  C   UNL     1      -3.668  -0.002  -4.478  0.00  0.00    +0.088 C 
ATOM      4  N   UNL     1      -3.468  -0.742  -5.737  0.00  0.00    -0.298 NA
ATOM      5  C   UNL     1      -2.851  -2.048  -5.423  0.00  0.00    +0.085 C 
ATOM      6  C   UNL     1      -4.738  -0.918  -6.453  0.00  0.00    +0.105 C 
ENDROOT
BRANCH   3   7
ATOM      7  C   UNL     1      -2.872   1.277  -4.502  0.00  0.00    -0.012 A 
ATOM      8  C   UNL     1      -3.381   2.406  -5.114  0.00  0.00    +0.115 A 
ATOM      9  N   UNL     1      -2.691   3.530  -5.139  0.00  0.00    -0.263 NA
ATOM     10  C   UNL     1      -1.497   3.622  -4.586  0.00  0.00    +0.111 A 
ATOM     11  C   UNL     1      -0.924   2.534  -3.954  0.00  0.00    +0.020 A 
ATOM     12  C   UNL     1      -1.622   1.338  -3.904  0.00  0.00    +0.008 A 
ENDBRANCH   3   7
TORSDOF 1
ENDMDL
MODEL 5
REMARK VINA RESULT:     0.000      2.808      3.811
REMARK INTER + INTRA:          -0.256
REMARK INTER:                   0.000
REMARK INTRA:                  -0.256
REMARK UNBOUND:                -0.256
REMARK  Name = Nicotine.pdb
REMARK  2 active torsions:
REMARK  status: ('A' for Active; 'I' for Inactive)
REMARK    1  A    between atoms: C_3  and  C_6
REMARK    2  A    between atoms: N_4  and  C_12
REMARK                            x       y       z     vdW  Elec       q    Type
REMARK                         _______ _______ _______ _____ _____    ______ ____
ROOT
ATOM      1  C   UNL     1       1.701   0.534   1.042  0.00  0.00    +0.017 C 
ATOM      2  C   UNL     1       0.777  -0.644   0.634  0.00  0.00    +0.025 C 
ATOM      3  C   UNL     1      -0.048  -0.052  -0.528  0.00  0.00    +0.088 C 
ATOM      4  N   UNL     1      -0.013   1.415  -0.386  0.00  0.00    -0.298 NA
ATOM      5  C   UNL     1       0.771   1.752   0.822  0.00  0.00    +0.085 C 
ATOM      6  C   UNL     1       0.560   2.047  -1.580  0.00  0.00    +0.105 C 
ENDROOT
BRANCH   3   7
ATOM      7  C   UNL     1      -1.470  -0.543  -0.450  0.00  0.00    -0.012 A 
ATOM      8  C   UNL     1      -2.277  -0.528  -1.571  0.00  0.00    +0.115 A 
ATOM      9  N   UNL     1      -3.523  -0.956  -1.512  0.00  0.00    -0.263 NA
ATOM     10  C   UNL     1      -4.047  -1.411  -0.391  0.00  0.00    +0.111 A 
ATOM     11  C   UNL     1      -3.299  -1.457   0.772  0.00  0.00    +0.020 A 
ATOM     12  C   UNL     1      -1.984  -1.020   0.746  0.00  0.00    +0.008 A 
ENDBRANCH   3   7
TORSDOF 1
ENDMDL
MODEL 6
REMARK VINA RESULT:     0.000      4.913      6.962
REMARK INTER + INTRA:          -0.256
REMARK INTER:                   0.000
REMARK INTRA:                  -0.256
REMARK UNBOUND:                -0.256
REMARK  Name = Nicotine.pdb
REMARK  2 active torsions:
REMARK  status: ('A' for Active; 'I' for Inactive)
REMARK    1  A    between atoms: C_3  and  C_6
REMARK    2  A    between atoms: N_4  and  C_12
REMARK                            x       y       z     vdW  Elec       q    Type
REMARK                         _______ _______ _______ _____ _____    ______ ____
ROOT
ATOM      1  C   UNL     1       4.296  -1.575   1.719  0.00  0.00    +0.017 C 
ATOM      2  C   UNL     1       4.572  -1.326   0.213  0.00  0.00    +0.025 C 
ATOM      3  C   UNL     1       3.168  -1.435  -0.419  0.00  0.00    +0.088 C 
ATOM      4  N   UNL     1       2.332  -2.224   0.504  0.00  0.00    -0.298 NA
ATOM      5  C   UNL     1       3.161  -2.628   1.660  0.00  0.00    +0.085 C 
ATOM      6  C   UNL     1       1.158  -1.457   0.939  0.00  0.00    +0.105 C 
ENDROOT
BRANCH   3   7
ATOM      7  C   UNL     1       3.258  -2.130  -1.753  0.00  0.00    -0.012 A 
ATOM      8  C   UNL     1       2.261  -1.967  -2.696  0.00  0.00    +0.115 A 
ATOM      9  N   UNL     1       2.333  -2.572  -3.865  0.00  0.00    -0.263 NA
ATOM     10  C   UNL     1       3.348  -3.350  -4.182  0.00  0.00    +0.111 A 
ATOM     11  C   UNL     1       4.384  -3.560  -3.290  0.00  0.00    +0.020 A 
ATOM     12  C   UNL     1       4.345  -2.937  -2.053  0.00  0.00    +0.008 A 
ENDBRANCH   3   7
TORSDOF 1
ENDMDL
MODEL 7
REMARK VINA RESULT:     0.000      3.339      3.974
REMARK INTER + INTRA:          -0.256
REMARK INTER:                   0.000
REMARK INTRA:                  -0.256
REMARK UNBOUND:                -0.256
REMARK  Name = Nicotine.pdb
REMARK  2 active torsions:
REMARK  status: ('A' for Active; 'I' for Inactive)
REMARK    1  A    between atoms: C_3  and  C_6
REMARK    2  A    between atoms: N_4  and  C_12
REMARK                            x       y       z     vdW  Elec       q    Type
REMARK                         _______ _______ _______ _____ _____    ______ ____
ROOT
ATOM      1  C   UNL     1       0.742   3.038   3.079  0.00  0.00    +0.017 C 
ATOM      2  C   UNL     1       1.324   1.609   3.233  0.00  0.00    +0.025 C 
ATOM      3  C   UNL     1       0.102   0.705   2.964  0.00  0.00    +0.088 C 
ATOM      4  N   UNL     1      -1.104   1.513   3.221  0.00  0.00    -0.298 NA
ATOM      5  C   UNL     1      -0.683   2.860   3.661  0.00  0.00    +0.085 C 
ATOM      6  C   UNL     1      -1.952   1.590   2.025  0.00  0.00    +0.105 C 
ENDROOT
BRANCH   3   7
ATOM      7  C   UNL     1       0.131  -0.485   3.887  0.00  0.00    -0.012 A 
ATOM      8  C   UNL     1      -0.569  -1.633   3.568  0.00  0.00    +0.115 A 
ATOM      9  N   UNL     1      -0.549  -2.680   4.371  0.00  0.00    -0.263 NA
ATOM     10  C   UNL     1       0.132  -2.675   5.500  0.00  0.00    +0.111 A 
ATOM     11  C   UNL     1       0.856  -1.562   5.884  0.00  0.00    +0.020 A 
ATOM     12  C   UNL     1       0.864  -0.445   5.063  0.00  0.00    +0.008 A 
ENDBRANCH   3   7
TORSDOF 1
ENDMDL
MODEL 8
REMARK VINA RESULT:     0.000      6.126      7.761
REMARK INTER + INTRA:          -0.256
REMARK INTER:                   0.000
REMARK INTRA:                  -0.256
REMARK UNBOUND:                -0.256
REMARK  Name = Nicotine.pdb
REMARK  2 active torsions:
REMARK  status: ('A' for Active; 'I' for Inactive)
REMARK    1  A    between atoms: C_3  and  C_6
REMARK    2  A    between atoms: N_4  and  C_12
REMARK                            x       y       z     vdW  Elec       q    Type
REMARK                         _______ _______ _______ _____ _____    ______ ____
ROOT
ATOM      1  C   UNL     1       3.676  -2.923   6.129  0.00  0.00    +0.017 C 
ATOM      2  C   UNL     1       3.385  -1.436   5.794  0.00  0.00    +0.025 C 
ATOM      3  C   UNL     1       3.038  -1.481   4.290  0.00  0.00    +0.088 C 
ATOM      4  N   UNL     1       3.636  -2.710   3.740  0.00  0.00    -0.298 NA
ATOM      5  C   UNL     1       4.356  -3.411   4.825  0.00  0.00    +0.085 C 
ATOM      6  C   UNL     1       2.610  -3.575   3.144  0.00  0.00    +0.105 C 
ENDROOT
BRANCH   3   7
ATOM      7  C   UNL     1       3.613  -0.273   3.596  0.00  0.00    -0.012 A 
ATOM      8  C   UNL     1       3.094   0.150   2.387  0.00  0.00    +0.115 A 
ATOM      9  N   UNL     1       3.591   1.206   1.772  0.00  0.00    -0.263 NA
ATOM     10  C   UNL     1       4.594   1.895   2.280  0.00  0.00    +0.111 A 
ATOM     11  C   UNL     1       5.164   1.531   3.485  0.00  0.00    +0.020 A 
ATOM     12  C   UNL     1       4.664   0.430   4.163  0.00  0.00    +0.008 A 
ENDBRANCH   3   7
TORSDOF 1
ENDMDL
MODEL 9
REMARK VINA RESULT:     0.000      8.396      9.779
REMARK INTER + INTRA:          -0.256
REMARK INTER:                   0.000
REMARK INTRA:                  -0.256
REMARK UNBOUND:                -0.256
REMARK  Name = Nicotine.pdb
REMARK  2 active torsions:
REMARK  status: ('A' for Active; 'I' for Inactive)
REMARK    1  A    between atoms: C_3  and  C_6
REMARK    2  A    between atoms: N_4  and  C_12
REMARK                            x       y       z     vdW  Elec       q    Type
REMARK                         _______ _______ _______ _____ _____    ______ ____
ROOT
ATOM      1  C   UNL     1       5.650   0.488   0.335  0.00  0.00    +0.017 C 
ATOM      2  C   UNL     1       4.924  -0.354  -0.748  0.00  0.00    +0.025 C 
ATOM      3  C   UNL     1       6.027  -1.318  -1.235  0.00  0.00    +0.088 C 
ATOM      4  N   UNL     1       7.324  -0.700  -0.905  0.00  0.00    -0.298 NA
ATOM      5  C   UNL     1       7.073   0.608  -0.264  0.00  0.00    +0.085 C 
ATOM      6  C   UNL     1       8.117  -1.573  -0.030  0.00  0.00    +0.105 C 
ENDROOT
BRANCH   3   7
ATOM      7  C   UNL     1       5.915  -1.516  -2.724  0.00  0.00    -0.012 A 
ATOM      8  C   UNL     1       6.471  -2.629  -3.325  0.00  0.00    +0.115 A 
ATOM      9  N   UNL     1       6.377  -2.810  -4.628  0.00  0.00    -0.263 NA
ATOM     10  C   UNL     1       5.756  -1.945  -5.405  0.00  0.00    +0.111 A 
ATOM     11  C   UNL     1       5.176  -0.807  -4.875  0.00  0.00    +0.020 A 
ATOM     12  C   UNL     1       5.249  -0.586  -3.508  0.00  0.00    +0.008 A 
ENDBRANCH   3   7
TORSDOF 1
ENDMDL
MODEL 10
REMARK VINA RESULT:     0.000      9.473     10.750
REMARK INTER + INTRA:          -0.256
REMARK INTER:                   0.000
REMARK INTRA:                  -0.256
REMARK UNBOUND:                -0.256
REMARK  Name = Nicotine.pdb
REMARK  2 active torsions:
REMARK  status: ('A' for Active; 'I' for Inactive)
REMARK    1  A    between atoms: C_3  and  C_6
REMARK    2  A    between atoms: N_4  and  C_12
REMARK                            x       y       z     vdW  Elec       q    Type
REMARK                         _______ _______ _______ _____ _____    ______ ____
ROOT
ATOM      1  C   UNL     1       6.374   0.591  -1.188  0.00  0.00    +0.017 C 
ATOM      2  C   UNL     1       5.981  -0.798  -1.757  0.00  0.00    +0.025 C 
ATOM      3  C   UNL     1       6.767  -1.776  -0.858  0.00  0.00    +0.088 C 
ATOM      4  N   UNL     1       7.894  -1.025  -0.275  0.00  0.00    -0.298 NA
ATOM      5  C   UNL     1       7.854   0.359  -0.792  0.00  0.00    +0.085 C 
ATOM      6  C   UNL     1       7.837  -1.043   1.192  0.00  0.00    +0.105 C 
ENDROOT
BRANCH   3   7
ATOM      7  C   UNL     1       7.287  -2.926  -1.682  0.00  0.00    -0.012 A 
ATOM      8  C   UNL     1       7.626  -4.122  -1.079  0.00  0.00    +0.115 A 
ATOM      9  N   UNL     1       8.081  -5.133  -1.793  0.00  0.00    -0.263 NA
ATOM     10  C   UNL     1       8.231  -5.046  -3.100  0.00  0.00    +0.111 A 
ATOM     11  C   UNL     1       7.913  -3.881  -3.773  0.00  0.00    +0.020 A 
ATOM     12  C   UNL     1       7.426  -2.799  -3.056  0.00  0.00    +0.008 A 
ENDBRANCH   3   7
TORSDOF 1
ENDMDL
