MODEL 1
REMARK VINA RESULT:    -3.074      0.000      0.000
REMARK INTER + INTRA:          -3.463
REMARK INTER:                  -3.254
REMARK INTRA:                  -0.209
REMARK UNBOUND:                -0.209
REMARK  Name = Nicotine.pdb
REMARK  2 active torsions:
REMARK  status: ('A' for Active; 'I' for Inactive)
REMARK    1  A    between atoms: C_3  and  C_6
REMARK    2  A    between atoms: N_4  and  C_12
REMARK                            x       y       z     vdW  Elec       q    Type
REMARK                         _______ _______ _______ _____ _____    ______ ____
ROOT
ATOM      1  C   UNL     1       3.388  -0.007   3.019  0.00  0.00    +0.017 C 
ATOM      2  C   UNL     1       3.796  -1.405   2.483  0.00  0.00    +0.025 C 
ATOM      3  C   UNL     1       2.548  -2.266   2.774  0.00  0.00    +0.088 C 
ATOM      4  N   UNL     1       1.798  -1.598   3.853  0.00  0.00    -0.298 NA
ATOM      5  C   UNL     1       2.536  -0.383   4.257  0.00  0.00    +0.085 C 
ATOM      6  C   UNL     1       0.434  -1.266   3.420  0.00  0.00    +0.105 C 
ENDROOT
BRANCH   3   7
ATOM      7  C   UNL     1       2.967  -3.644   3.216  0.00  0.00    -0.012 A 
ATOM      8  C   UNL     1       4.052  -3.809   4.056  0.00  0.00    +0.115 A 
ATOM      9  N   UNL     1       4.425  -5.012   4.448  0.00  0.00    -0.263 NA
ATOM     10  C   UNL     1       3.786  -6.097   4.058  0.00  0.00    +0.111 A 
ATOM     11  C   UNL     1       2.692  -6.010   3.218  0.00  0.00    +0.020 A 
ATOM     12  C   UNL     1       2.267  -4.762   2.789  0.00  0.00    +0.008 A 
ENDBRANCH   3   7
TORSDOF 1
ENDMDL
MODEL 2
REMARK VINA RESULT:    -3.030      1.574      4.366
REMARK INTER + INTRA:          -3.416
REMARK INTER:                  -3.201
REMARK INTRA:                  -0.215
REMARK UNBOUND:                -0.209
REMARK  Name = Nicotine.pdb
REMARK  2 active torsions:
REMARK  status: ('A' for Active; 'I' for Inactive)
REMARK    1  A    between atoms: C_3  and  C_6
REMARK    2  A    between atoms: N_4  and  C_12
REMARK                            x       y       z     vdW  Elec       q    Type
REMARK                         _______ _______ _______ _____ _____    ______ ____
ROOT
ATOM      1  C   UNL     1       3.556  -6.097   3.934  0.00  0.00    +0.017 C 
ATOM      2  C   UNL     1       4.264  -4.771   4.318  0.00  0.00    +0.025 C 
ATOM      3  C   UNL     1       3.116  -3.740   4.277  0.00  0.00    +0.088 C 
ATOM      4  N   UNL     1       2.061  -4.296   3.411  0.00  0.00    -0.298 NA
ATOM      5  C   UNL     1       2.514  -5.606   2.898  0.00  0.00    +0.085 C 
ATOM      6  C   UNL     1       0.794  -4.425   4.142  0.00  0.00    +0.105 C 
ENDROOT
BRANCH   3   7
ATOM      7  C   UNL     1       3.617  -2.438   3.706  0.00  0.00    -0.012 A 
ATOM      8  C   UNL     1       2.768  -1.617   2.989  0.00  0.00    +0.115 A 
ATOM      9  N   UNL     1       3.198  -0.476   2.486  0.00  0.00    -0.263 NA
ATOM     10  C   UNL     1       4.444  -0.075   2.645  0.00  0.00    +0.111 A 
ATOM     11  C   UNL     1       5.350  -0.843   3.351  0.00  0.00    +0.020 A 
ATOM     12  C   UNL     1       4.933  -2.046   3.899  0.00  0.00    +0.008 A 
ENDBRANCH   3   7
TORSDOF 1
ENDMDL
MODEL 3
REMARK VINA RESULT:    -2.972      1.985      4.352
REMARK INTER + INTRA:          -3.354
REMARK INTER:                  -3.159
REMARK INTRA:                  -0.195
REMARK UNBOUND:                -0.209
REMARK  Name = Nicotine.pdb
REMARK  2 active torsions:
REMARK  status: ('A' for Active; 'I' for Inactive)
REMARK    1  A    between atoms: C_3  and  C_6
REMARK    2  A    between atoms: N_4  and  C_12
REMARK                            x       y       z     vdW  Elec       q    Type
REMARK                         _______ _______ _______ _____ _____    ______ ____
ROOT
ATOM      1  C   UNL     1       3.740  -5.958   4.344  0.00  0.00    +0.017 C 
ATOM      2  C   UNL     1       2.801  -5.554   3.178  0.00  0.00    +0.025 C 
ATOM      3  C   UNL     1       2.890  -4.013   3.178  0.00  0.00    +0.088 C 
ATOM      4  N   UNL     1       3.332  -3.601   4.523  0.00  0.00    -0.298 NA
ATOM      5  C   UNL     1       3.493  -4.812   5.357  0.00  0.00    +0.085 C 
ATOM      6  C   UNL     1       4.583  -2.837   4.456  0.00  0.00    +0.105 C 
ENDROOT
BRANCH   3   7
ATOM      7  C   UNL     1       1.538  -3.421   2.877  0.00  0.00    -0.012 A 
ATOM      8  C   UNL     1       1.262  -2.910   1.623  0.00  0.00    +0.115 A 
ATOM      9  N   UNL     1       0.080  -2.390   1.351  0.00  0.00    -0.263 NA
ATOM     10  C   UNL     1      -0.877  -2.336   2.256  0.00  0.00    +0.111 A 
ATOM     11  C   UNL     1      -0.674  -2.827   3.532  0.00  0.00    +0.020 A 
ATOM     12  C   UNL     1       0.553  -3.386   3.853  0.00  0.00    +0.008 A 
ENDBRANCH   3   7
TORSDOF 1
ENDMDL
MODEL 4
REMARK VINA RESULT:    -2.906      1.917      4.486
REMARK INTER + INTRA:          -3.284
REMARK INTER:                  -3.061
REMARK INTRA:                  -0.224
REMARK UNBOUND:                -0.209
REMARK  Name = Nicotine.pdb
REMARK  2 active torsions:
REMARK  status: ('A' for Active; 'I' for Inactive)
REMARK    1  A    between atoms: C_3  and  C_6
REMARK    2  A    between atoms: N_4  and  C_12
REMARK                            x       y       z     vdW  Elec       q    Type
REMARK                         _______ _______ _______ _____ _____    ______ ____
ROOT
ATOM      1  C   UNL     1       2.188  -3.938   3.029  0.00  0.00    +0.017 C 
ATOM      2  C   UNL     1       3.431  -3.109   3.449  0.00  0.00    +0.025 C 
ATOM      3  C   UNL     1       2.896  -1.662   3.461  0.00  0.00    +0.088 C 
ATOM      4  N   UNL     1       1.706  -1.629   2.591  0.00  0.00    -0.298 NA
ATOM      5  C   UNL     1       1.498  -2.979   2.026  0.00  0.00    +0.085 C 
ATOM      6  C   UNL     1       0.521  -1.181   3.335  0.00  0.00    +0.105 C 
ENDROOT
BRANCH   3   7
ATOM      7  C   UNL     1       3.947  -0.722   2.929  0.00  0.00    -0.012 A 
ATOM      8  C   UNL     1       3.617   0.577   2.590  0.00  0.00    +0.115 A 
ATOM      9  N   UNL     1       4.531   1.405   2.124  0.00  0.00    -0.263 NA
ATOM     10  C   UNL     1       5.785   1.034   1.963  0.00  0.00    +0.111 A 
ATOM     11  C   UNL     1       6.190  -0.250   2.281  0.00  0.00    +0.020 A 
ATOM     12  C   UNL     1       5.258  -1.147   2.778  0.00  0.00    +0.008 A 
ENDBRANCH   3   7
TORSDOF 1
ENDMDL
MODEL 5
REMARK VINA RESULT:    -2.811      3.307      5.786
REMARK INTER + INTRA:          -3.184
REMARK INTER:                  -2.991
REMARK INTRA:                  -0.193
REMARK UNBOUND:                -0.209
REMARK  Name = Nicotine.pdb
REMARK  2 active torsions:
REMARK  status: ('A' for Active; 'I' for Inactive)
REMARK    1  A    between atoms: C_3  and  C_6
REMARK    2  A    between atoms: N_4  and  C_12
REMARK                            x       y       z     vdW  Elec       q    Type
REMARK                         _______ _______ _______ _____ _____    ______ ____
ROOT
ATOM      1  C   UNL     1       4.331  -2.170   3.639  0.00  0.00    +0.017 C 
ATOM      2  C   UNL     1       5.423  -1.085   3.452  0.00  0.00    +0.025 C 
ATOM      3  C   UNL     1       4.601   0.184   3.138  0.00  0.00    +0.088 C 
ATOM      4  N   UNL     1       3.291  -0.259   2.629  0.00  0.00    -0.298 NA
ATOM      5  C   UNL     1       3.276  -1.737   2.590  0.00  0.00    +0.085 C 
ATOM      6  C   UNL     1       2.199   0.258   3.464  0.00  0.00    +0.105 C 
ENDROOT
BRANCH   3   7
ATOM      7  C   UNL     1       5.308   1.006   2.092  0.00  0.00    -0.012 A 
ATOM      8  C   UNL     1       6.589   0.677   1.692  0.00  0.00    +0.115 A 
ATOM      9  N   UNL     1       7.215   1.392   0.777  0.00  0.00    -0.263 NA
ATOM     10  C   UNL     1       6.650   2.440   0.210  0.00  0.00    +0.111 A 
ATOM     11  C   UNL     1       5.370   2.829   0.559  0.00  0.00    +0.020 A 
ATOM     12  C   UNL     1       4.680   2.099   1.514  0.00  0.00    +0.008 A 
ENDBRANCH   3   7
TORSDOF 1
ENDMDL
MODEL 6
REMARK VINA RESULT:    -2.734      1.596      4.447
REMARK INTER + INTRA:          -3.102
REMARK INTER:                  -2.888
REMARK INTRA:                  -0.214
REMARK UNBOUND:                -0.209
REMARK  Name = Nicotine.pdb
REMARK  2 active torsions:
REMARK  status: ('A' for Active; 'I' for Inactive)
REMARK    1  A    between atoms: C_3  and  C_6
REMARK    2  A    between atoms: N_4  and  C_12
REMARK                            x       y       z     vdW  Elec       q    Type
REMARK                         _______ _______ _______ _____ _____    ______ ____
ROOT
ATOM      1  C   UNL     1       1.435  -5.929   3.948  0.00  0.00    +0.017 C 
ATOM      2  C   UNL     1       2.315  -5.061   3.010  0.00  0.00    +0.025 C 
ATOM      3  C   UNL     1       3.356  -4.454   3.974  0.00  0.00    +0.088 C 
ATOM      4  N   UNL     1       2.774  -4.495   5.328  0.00  0.00    -0.298 NA
ATOM      5  C   UNL     1       1.416  -5.074   5.239  0.00  0.00    +0.085 C 
ATOM      6  C   UNL     1       3.620  -5.272   6.242  0.00  0.00    +0.105 C 
ENDROOT
BRANCH   3   7
ATOM      7  C   UNL     1       3.647  -3.028   3.583  0.00  0.00    -0.012 A 
ATOM      8  C   UNL     1       2.824  -2.366   2.692  0.00  0.00    +0.115 A 
ATOM      9  N   UNL     1       3.071  -1.118   2.344  0.00  0.00    -0.263 NA
ATOM     10  C   UNL     1       4.105  -0.456   2.826  0.00  0.00    +0.111 A 
ATOM     11  C   UNL     1       4.972  -1.053   3.723  0.00  0.00    +0.020 A 
ATOM     12  C   UNL     1       4.740  -2.362   4.116  0.00  0.00    +0.008 A 
ENDBRANCH   3   7
TORSDOF 1
ENDMDL
MODEL 7
REMARK VINA RESULT:    -2.706      2.322      3.623
REMARK INTER + INTRA:          -3.073
REMARK INTER:                  -2.898
REMARK INTRA:                  -0.175
REMARK UNBOUND:                -0.209
REMARK  Name = Nicotine.pdb
REMARK  2 active torsions:
REMARK  status: ('A' for Active; 'I' for Inactive)
REMARK    1  A    between atoms: C_3  and  C_6
REMARK    2  A    between atoms: N_4  and  C_12
REMARK                            x       y       z     vdW  Elec       q    Type
REMARK                         _______ _______ _______ _____ _____    ______ ____
ROOT
ATOM      1  C   UNL     1       5.839   0.858   4.569  0.00  0.00    +0.017 C 
ATOM      2  C   UNL     1       5.022  -0.412   4.925  0.00  0.00    +0.025 C 
ATOM      3  C   UNL     1       5.374  -1.384   3.779  0.00  0.00    +0.088 C 
ATOM      4  N   UNL     1       5.835  -0.569   2.641  0.00  0.00    -0.298 NA
ATOM      5  C   UNL     1       5.759   0.857   3.022  0.00  0.00    +0.085 C 
ATOM      6  C   UNL     1       7.201  -0.938   2.247  0.00  0.00    +0.105 C 
ENDROOT
BRANCH   3   7
ATOM      7  C   UNL     1       4.154  -2.175   3.385  0.00  0.00    -0.012 A 
ATOM      8  C   UNL     1       3.282  -1.686   2.431  0.00  0.00    +0.115 A 
ATOM      9  N   UNL     1       2.212  -2.372   2.080  0.00  0.00    -0.263 NA
ATOM     10  C   UNL     1       1.930  -3.541   2.619  0.00  0.00    +0.111 A 
ATOM     11  C   UNL     1       2.756  -4.095   3.580  0.00  0.00    +0.020 A 
ATOM     12  C   UNL     1       3.894  -3.405   3.970  0.00  0.00    +0.008 A 
ENDBRANCH   3   7
TORSDOF 1
ENDMDL
MODEL 8
REMARK VINA RESULT:    -2.635      2.936      4.306
REMARK INTER + INTRA:          -2.997
REMARK INTER:                  -2.783
REMARK INTRA:                  -0.214
REMARK UNBOUND:                -0.209
REMARK  Name = Nicotine.pdb
REMARK  2 active torsions:
REMARK  status: ('A' for Active; 'I' for Inactive)
REMARK    1  A    between atoms: C_3  and  C_6
REMARK    2  A    between atoms: N_4  and  C_12
REMARK                            x       y       z     vdW  Elec       q    Type
REMARK                         _______ _______ _______ _____ _____    ______ ____
ROOT
ATOM      1  C   UNL     1       8.263  -0.929   2.651  0.00  0.00    +0.017 C 
ATOM      2  C   UNL     1       6.782  -0.812   2.204  0.00  0.00    +0.025 C 
ATOM      3  C   UNL     1       6.010  -0.875   3.540  0.00  0.00    +0.088 C 
ATOM      4  N   UNL     1       6.889  -1.537   4.521  0.00  0.00    -0.298 NA
ATOM      5  C   UNL     1       8.152  -1.907   3.848  0.00  0.00    +0.085 C 
ATOM      6  C   UNL     1       7.142  -0.664   5.674  0.00  0.00    +0.105 C 
ENDROOT
BRANCH   3   7
ATOM      7  C   UNL     1       4.744  -1.672   3.363  0.00  0.00    -0.012 A 
ATOM      8  C   UNL     1       3.769  -1.249   2.480  0.00  0.00    +0.115 A 
ATOM      9  N   UNL     1       2.658  -1.940   2.319  0.00  0.00    -0.263 NA
ATOM     10  C   UNL     1       2.432  -3.053   2.988  0.00  0.00    +0.111 A 
ATOM     11  C   UNL     1       3.361  -3.539   3.889  0.00  0.00    +0.020 A 
ATOM     12  C   UNL     1       4.544  -2.841   4.081  0.00  0.00    +0.008 A 
ENDBRANCH   3   7
TORSDOF 1
ENDMDL
MODEL 9
REMARK VINA RESULT:    -2.555      1.762      2.508
REMARK INTER + INTRA:          -2.913
REMARK INTER:                  -2.659
REMARK INTRA:                  -0.255
REMARK UNBOUND:                -0.209
REMARK  Name = Nicotine.pdb
REMARK  2 active torsions:
REMARK  status: ('A' for Active; 'I' for Inactive)
REMARK    1  A    between atoms: C_3  and  C_6
REMARK    2  A    between atoms: N_4  and  C_12
REMARK                            x       y       z     vdW  Elec       q    Type
REMARK                         _______ _______ _______ _____ _____    ______ ____
ROOT
ATOM      1  C   UNL     1       5.587   0.320   4.580  0.00  0.00    +0.017 C 
ATOM      2  C   UNL     1       5.482  -0.985   3.747  0.00  0.00    +0.025 C 
ATOM      3  C   UNL     1       4.076  -0.883   3.119  0.00  0.00    +0.088 C 
ATOM      4  N   UNL     1       3.288   0.037   3.958  0.00  0.00    -0.298 NA
ATOM      5  C   UNL     1       4.132   0.486   5.086  0.00  0.00    +0.085 C 
ATOM      6  C   UNL     1       2.802   1.180   3.175  0.00  0.00    +0.105 C 
ENDROOT
BRANCH   3   7
ATOM      7  C   UNL     1       3.426  -2.243   3.095  0.00  0.00    -0.012 A 
ATOM      8  C   UNL     1       2.303  -2.467   2.323  0.00  0.00    +0.115 A 
ATOM      9  N   UNL     1       1.728  -3.653   2.297  0.00  0.00    -0.263 NA
ATOM     10  C   UNL     1       2.195  -4.666   3.000  0.00  0.00    +0.111 A 
ATOM     11  C   UNL     1       3.316  -4.517   3.795  0.00  0.00    +0.020 A 
ATOM     12  C   UNL     1       3.950  -3.285   3.844  0.00  0.00    +0.008 A 
ENDBRANCH   3   7
TORSDOF 1
ENDMDL
MODEL 10
REMARK VINA RESULT:    -2.476      8.541     11.003
REMARK INTER + INTRA:          -2.830
REMARK INTER:                  -2.643
REMARK INTRA:                  -0.187
REMARK UNBOUND:                -0.209
REMARK  Name = Nicotine.pdb
REMARK  2 active torsions:
REMARK  status: ('A' for Active; 'I' for Inactive)
REMARK    1  A    between atoms: C_3  and  C_6
REMARK    2  A    between atoms: N_4  and  C_12
REMARK                            x       y       z     vdW  Elec       q    Type
REMARK                         _______ _______ _______ _____ _____    ______ ____
ROOT
ATOM      1  C   UNL     1       4.724   5.772   0.780  0.00  0.00    +0.017 C 
ATOM      2  C   UNL     1       5.127   6.246  -0.641  0.00  0.00    +0.025 C 
ATOM      3  C   UNL     1       5.834   5.008  -1.232  0.00  0.00    +0.088 C 
ATOM      4  N   UNL     1       6.291   4.183  -0.099  0.00  0.00    -0.298 NA
ATOM      5  C   UNL     1       5.922   4.866   1.159  0.00  0.00    +0.085 C 
ATOM      6  C   UNL     1       5.708   2.837  -0.158  0.00  0.00    +0.105 C 
ENDROOT
BRANCH   3   7
ATOM      7  C   UNL     1       7.014   5.440  -2.063  0.00  0.00    -0.012 A 
ATOM      8  C   UNL     1       8.285   5.453  -1.519  0.00  0.00    +0.115 A 
ATOM      9  N   UNL     1       9.323   5.829  -2.240  0.00  0.00    -0.263 NA
ATOM     10  C   UNL     1       9.195   6.205  -3.497  0.00  0.00    +0.111 A 
ATOM     11  C   UNL     1       7.955   6.218  -4.109  0.00  0.00    +0.020 A 
ATOM     12  C   UNL     1       6.841   5.823  -3.384  0.00  0.00    +0.008 A 
ENDBRANCH   3   7
TORSDOF 1
ENDMDL
