MODEL 1
REMARK VINA RESULT:    -2.799      0.000      0.000
REMARK INTER + INTRA:          -3.170
REMARK INTER:                  -2.963
REMARK INTRA:                  -0.208
REMARK UNBOUND:                -0.208
REMARK  Name = Nicotine.pdb
REMARK  2 active torsions:
REMARK  status: ('A' for Active; 'I' for Inactive)
REMARK    1  A    between atoms: C_3  and  C_6
REMARK    2  A    between atoms: N_4  and  C_12
REMARK                            x       y       z     vdW  Elec       q    Type
REMARK                         _______ _______ _______ _____ _____    ______ ____
ROOT
ATOM      1  C   UNL     1       7.098   0.339   4.342  0.00  0.00    +0.017 C 
ATOM      2  C   UNL     1       6.096  -0.490   3.496  0.00  0.00    +0.025 C 
ATOM      3  C   UNL     1       6.906  -0.821   2.225  0.00  0.00    +0.088 C 
ATOM      4  N   UNL     1       7.980   0.182   2.117  0.00  0.00    -0.298 NA
ATOM      5  C   UNL     1       7.854   1.130   3.245  0.00  0.00    +0.085 C 
ATOM      6  C   UNL     1       9.302  -0.458   2.111  0.00  0.00    +0.105 C 
ENDROOT
BRANCH   3   7
ATOM      7  C   UNL     1       6.012  -0.750   1.014  0.00  0.00    -0.012 A 
ATOM      8  C   UNL     1       6.143   0.286   0.108  0.00  0.00    +0.115 A 
ATOM      9  N   UNL     1       5.365   0.356  -0.954  0.00  0.00    -0.263 NA
ATOM     10  C   UNL     1       4.438  -0.550  -1.195  0.00  0.00    +0.111 A 
ATOM     11  C   UNL     1       4.248  -1.615  -0.334  0.00  0.00    +0.020 A 
ATOM     12  C   UNL     1       5.052  -1.725   0.791  0.00  0.00    +0.008 A 
ENDBRANCH   3   7
TORSDOF 1
ENDMDL
MODEL 2
REMARK VINA RESULT:    -2.781      1.938      3.235
REMARK INTER + INTRA:          -3.152
REMARK INTER:                  -2.958
REMARK INTRA:                  -0.194
REMARK UNBOUND:                -0.208
REMARK  Name = Nicotine.pdb
REMARK  2 active torsions:
REMARK  status: ('A' for Active; 'I' for Inactive)
REMARK    1  A    between atoms: C_3  and  C_6
REMARK    2  A    between atoms: N_4  and  C_12
REMARK                            x       y       z     vdW  Elec       q    Type
REMARK                         _______ _______ _______ _____ _____    ______ ____
ROOT
ATOM      1  C   UNL     1       9.219   2.911   5.162  0.00  0.00    +0.017 C 
ATOM      2  C   UNL     1       7.862   2.502   4.531  0.00  0.00    +0.025 C 
ATOM      3  C   UNL     1       7.820   0.976   4.758  0.00  0.00    +0.088 C 
ATOM      4  N   UNL     1       9.210   0.522   4.942  0.00  0.00    -0.298 NA
ATOM      5  C   UNL     1      10.107   1.691   4.813  0.00  0.00    +0.085 C 
ATOM      6  C   UNL     1       9.383  -0.134   6.244  0.00  0.00    +0.105 C 
ENDROOT
BRANCH   3   7
ATOM      7  C   UNL     1       7.211   0.295   3.559  0.00  0.00    -0.012 A 
ATOM      8  C   UNL     1       7.672   0.577   2.287  0.00  0.00    +0.115 A 
ATOM      9  N   UNL     1       7.145  -0.014   1.232  0.00  0.00    -0.263 NA
ATOM     10  C   UNL     1       6.166  -0.890   1.346  0.00  0.00    +0.111 A 
ATOM     11  C   UNL     1       5.654  -1.222   2.586  0.00  0.00    +0.020 A 
ATOM     12  C   UNL     1       6.187  -0.625   3.718  0.00  0.00    +0.008 A 
ENDBRANCH   3   7
TORSDOF 1
ENDMDL
MODEL 3
REMARK VINA RESULT:    -2.709      2.575      5.418
REMARK INTER + INTRA:          -3.075
REMARK INTER:                  -2.851
REMARK INTRA:                  -0.224
REMARK UNBOUND:                -0.208
REMARK  Name = Nicotine.pdb
REMARK  2 active torsions:
REMARK  status: ('A' for Active; 'I' for Inactive)
REMARK    1  A    between atoms: C_3  and  C_6
REMARK    2  A    between atoms: N_4  and  C_12
REMARK                            x       y       z     vdW  Elec       q    Type
REMARK                         _______ _______ _______ _____ _____    ______ ____
ROOT
ATOM      1  C   UNL     1       4.960  -0.264   5.159  0.00  0.00    +0.017 C 
ATOM      2  C   UNL     1       5.832   1.019   5.186  0.00  0.00    +0.025 C 
ATOM      3  C   UNL     1       6.775   0.824   3.979  0.00  0.00    +0.088 C 
ATOM      4  N   UNL     1       6.826  -0.622   3.694  0.00  0.00    -0.298 NA
ATOM      5  C   UNL     1       5.982  -1.326   4.682  0.00  0.00    +0.085 C 
ATOM      6  C   UNL     1       6.381  -0.905   2.324  0.00  0.00    +0.105 C 
ENDROOT
BRANCH   3   7
ATOM      7  C   UNL     1       8.153   1.330   4.317  0.00  0.00    -0.012 A 
ATOM      8  C   UNL     1       9.251   0.500   4.199  0.00  0.00    +0.115 A 
ATOM      9  N   UNL     1      10.461   0.935   4.493  0.00  0.00    -0.263 NA
ATOM     10  C   UNL     1      10.671   2.169   4.908  0.00  0.00    +0.111 A 
ATOM     11  C   UNL     1       9.621   3.057   5.050  0.00  0.00    +0.020 A 
ATOM     12  C   UNL     1       8.336   2.636   4.745  0.00  0.00    +0.008 A 
ENDBRANCH   3   7
TORSDOF 1
ENDMDL
MODEL 4
REMARK VINA RESULT:    -2.688      2.278      3.463
REMARK INTER + INTRA:          -3.053
REMARK INTER:                  -2.835
REMARK INTRA:                  -0.218
REMARK UNBOUND:                -0.208
REMARK  Name = Nicotine.pdb
REMARK  2 active torsions:
REMARK  status: ('A' for Active; 'I' for Inactive)
REMARK    1  A    between atoms: C_3  and  C_6
REMARK    2  A    between atoms: N_4  and  C_12
REMARK                            x       y       z     vdW  Elec       q    Type
REMARK                         _______ _______ _______ _____ _____    ______ ____
ROOT
ATOM      1  C   UNL     1       8.919   2.900   4.949  0.00  0.00    +0.017 C 
ATOM      2  C   UNL     1       7.947   2.207   3.958  0.00  0.00    +0.025 C 
ATOM      3  C   UNL     1       8.293   0.712   4.122  0.00  0.00    +0.088 C 
ATOM      4  N   UNL     1       9.660   0.636   4.668  0.00  0.00    -0.298 NA
ATOM      5  C   UNL     1      10.181   2.011   4.823  0.00  0.00    +0.085 C 
ATOM      6  C   UNL     1       9.677  -0.082   5.949  0.00  0.00    +0.105 C 
ENDROOT
BRANCH   3   7
ATOM      7  C   UNL     1       8.235   0.022   2.783  0.00  0.00    -0.012 A 
ATOM      8  C   UNL     1       9.379  -0.511   2.222  0.00  0.00    +0.115 A 
ATOM      9  N   UNL     1       9.337  -1.116   1.051  0.00  0.00    -0.263 NA
ATOM     10  C   UNL     1       8.213  -1.237   0.373  0.00  0.00    +0.111 A 
ATOM     11  C   UNL     1       7.028  -0.729   0.872  0.00  0.00    +0.020 A 
ATOM     12  C   UNL     1       7.032  -0.091   2.102  0.00  0.00    +0.008 A 
ENDBRANCH   3   7
TORSDOF 1
ENDMDL
MODEL 5
REMARK VINA RESULT:    -2.681      2.092      5.290
REMARK INTER + INTRA:          -3.046
REMARK INTER:                  -2.834
REMARK INTRA:                  -0.212
REMARK UNBOUND:                -0.208
REMARK  Name = Nicotine.pdb
REMARK  2 active torsions:
REMARK  status: ('A' for Active; 'I' for Inactive)
REMARK    1  A    between atoms: C_3  and  C_6
REMARK    2  A    between atoms: N_4  and  C_12
REMARK                            x       y       z     vdW  Elec       q    Type
REMARK                         _______ _______ _______ _____ _____    ______ ____
ROOT
ATOM      1  C   UNL     1       8.084  -1.412   0.896  0.00  0.00    +0.017 C 
ATOM      2  C   UNL     1       9.069  -0.921   1.989  0.00  0.00    +0.025 C 
ATOM      3  C   UNL     1       8.134  -0.558   3.161  0.00  0.00    +0.088 C 
ATOM      4  N   UNL     1       6.796  -0.310   2.593  0.00  0.00    -0.298 NA
ATOM      5  C   UNL     1       6.870  -0.478   1.126  0.00  0.00    +0.085 C 
ATOM      6  C   UNL     1       5.799  -1.214   3.178  0.00  0.00    +0.105 C 
ENDROOT
BRANCH   3   7
ATOM      7  C   UNL     1       8.636   0.683   3.853  0.00  0.00    -0.012 A 
ATOM      8  C   UNL     1       9.915   0.722   4.376  0.00  0.00    +0.115 A 
ATOM      9  N   UNL     1      10.363   1.804   4.982  0.00  0.00    -0.263 NA
ATOM     10  C   UNL     1       9.618   2.883   5.115  0.00  0.00    +0.111 A 
ATOM     11  C   UNL     1       8.329   2.918   4.616  0.00  0.00    +0.020 A 
ATOM     12  C   UNL     1       7.825   1.801   3.968  0.00  0.00    +0.008 A 
ENDBRANCH   3   7
TORSDOF 1
ENDMDL
MODEL 6
REMARK VINA RESULT:    -2.659      1.806      4.827
REMARK INTER + INTRA:          -3.022
REMARK INTER:                  -2.816
REMARK INTRA:                  -0.206
REMARK UNBOUND:                -0.208
REMARK  Name = Nicotine.pdb
REMARK  2 active torsions:
REMARK  status: ('A' for Active; 'I' for Inactive)
REMARK    1  A    between atoms: C_3  and  C_6
REMARK    2  A    between atoms: N_4  and  C_12
REMARK                            x       y       z     vdW  Elec       q    Type
REMARK                         _______ _______ _______ _____ _____    ______ ____
ROOT
ATOM      1  C   UNL     1       7.017  -2.583   1.519  0.00  0.00    +0.017 C 
ATOM      2  C   UNL     1       7.066  -1.757   2.831  0.00  0.00    +0.025 C 
ATOM      3  C   UNL     1       6.999  -0.300   2.326  0.00  0.00    +0.088 C 
ATOM      4  N   UNL     1       7.456  -0.301   0.925  0.00  0.00    -0.298 NA
ATOM      5  C   UNL     1       7.826  -1.683   0.552  0.00  0.00    +0.085 C 
ATOM      6  C   UNL     1       6.418   0.227   0.031  0.00  0.00    +0.105 C 
ENDROOT
BRANCH   3   7
ATOM      7  C   UNL     1       7.900   0.574   3.160  0.00  0.00    -0.012 A 
ATOM      8  C   UNL     1       9.154   0.130   3.534  0.00  0.00    +0.115 A 
ATOM      9  N   UNL     1       9.948   0.888   4.264  0.00  0.00    -0.263 NA
ATOM     10  C   UNL     1       9.584   2.090   4.664  0.00  0.00    +0.111 A 
ATOM     11  C   UNL     1       8.344   2.602   4.329  0.00  0.00    +0.020 A 
ATOM     12  C   UNL     1       7.484   1.836   3.558  0.00  0.00    +0.008 A 
ENDBRANCH   3   7
TORSDOF 1
ENDMDL
MODEL 7
REMARK VINA RESULT:    -2.613      7.400      8.231
REMARK INTER + INTRA:          -2.973
REMARK INTER:                  -2.789
REMARK INTRA:                  -0.184
REMARK UNBOUND:                -0.208
REMARK  Name = Nicotine.pdb
REMARK  2 active torsions:
REMARK  status: ('A' for Active; 'I' for Inactive)
REMARK    1  A    between atoms: C_3  and  C_6
REMARK    2  A    between atoms: N_4  and  C_12
REMARK                            x       y       z     vdW  Elec       q    Type
REMARK                         _______ _______ _______ _____ _____    ______ ____
ROOT
ATOM      1  C   UNL     1       1.008   6.939   2.292  0.00  0.00    +0.017 C 
ATOM      2  C   UNL     1       0.804   5.791   1.269  0.00  0.00    +0.025 C 
ATOM      3  C   UNL     1      -0.349   4.974   1.890  0.00  0.00    +0.088 C 
ATOM      4  N   UNL     1      -0.370   5.275   3.333  0.00  0.00    -0.298 NA
ATOM      5  C   UNL     1       0.729   6.217   3.633  0.00  0.00    +0.085 C 
ATOM      6  C   UNL     1      -1.667   5.832   3.736  0.00  0.00    +0.105 C 
ENDROOT
BRANCH   3   7
ATOM      7  C   UNL     1      -0.108   3.502   1.675  0.00  0.00    -0.012 A 
ATOM      8  C   UNL     1       0.690   3.069   0.633  0.00  0.00    +0.115 A 
ATOM      9  N   UNL     1       0.906   1.783   0.438  0.00  0.00    -0.263 NA
ATOM     10  C   UNL     1       0.375   0.864   1.221  0.00  0.00    +0.111 A 
ATOM     11  C   UNL     1      -0.433   1.222   2.284  0.00  0.00    +0.020 A 
ATOM     12  C   UNL     1      -0.679   2.565   2.523  0.00  0.00    +0.008 A 
ENDBRANCH   3   7
TORSDOF 1
ENDMDL
MODEL 8
REMARK VINA RESULT:    -2.498      1.265      1.689
REMARK INTER + INTRA:          -2.852
REMARK INTER:                  -2.642
REMARK INTRA:                  -0.210
REMARK UNBOUND:                -0.208
REMARK  Name = Nicotine.pdb
REMARK  2 active torsions:
REMARK  status: ('A' for Active; 'I' for Inactive)
REMARK    1  A    between atoms: C_3  and  C_6
REMARK    2  A    between atoms: N_4  and  C_12
REMARK                            x       y       z     vdW  Elec       q    Type
REMARK                         _______ _______ _______ _____ _____    ______ ____
ROOT
ATOM      1  C   UNL     1       7.055   1.177   4.968  0.00  0.00    +0.017 C 
ATOM      2  C   UNL     1       6.127   0.119   4.314  0.00  0.00    +0.025 C 
ATOM      3  C   UNL     1       7.022  -0.497   3.217  0.00  0.00    +0.088 C 
ATOM      4  N   UNL     1       8.075   0.487   2.910  0.00  0.00    -0.298 NA
ATOM      5  C   UNL     1       7.858   1.687   3.745  0.00  0.00    +0.085 C 
ATOM      6  C   UNL     1       9.410  -0.081   3.140  0.00  0.00    +0.105 C 
ENDROOT
BRANCH   3   7
ATOM      7  C   UNL     1       6.202  -0.775   1.984  0.00  0.00    -0.012 A 
ATOM      8  C   UNL     1       5.054  -1.539   2.065  0.00  0.00    +0.115 A 
ATOM      9  N   UNL     1       4.331  -1.787   0.990  0.00  0.00    -0.263 NA
ATOM     10  C   UNL     1       4.670  -1.321  -0.196  0.00  0.00    +0.111 A 
ATOM     11  C   UNL     1       5.805  -0.548  -0.354  0.00  0.00    +0.020 A 
ATOM     12  C   UNL     1       6.587  -0.262   0.754  0.00  0.00    +0.008 A 
ENDBRANCH   3   7
TORSDOF 1
ENDMDL
MODEL 9
REMARK VINA RESULT:    -2.493      1.728      4.693
REMARK INTER + INTRA:          -2.847
REMARK INTER:                  -2.592
REMARK INTRA:                  -0.254
REMARK UNBOUND:                -0.208
REMARK  Name = Nicotine.pdb
REMARK  2 active torsions:
REMARK  status: ('A' for Active; 'I' for Inactive)
REMARK    1  A    between atoms: C_3  and  C_6
REMARK    2  A    between atoms: N_4  and  C_12
REMARK                            x       y       z     vdW  Elec       q    Type
REMARK                         _______ _______ _______ _____ _____    ______ ____
ROOT
ATOM      1  C   UNL     1       6.722  -1.703  -0.327  0.00  0.00    +0.017 C 
ATOM      2  C   UNL     1       7.568  -1.320   0.916  0.00  0.00    +0.025 C 
ATOM      3  C   UNL     1       6.549  -1.415   2.072  0.00  0.00    +0.088 C 
ATOM      4  N   UNL     1       5.205  -1.277   1.482  0.00  0.00    -0.298 NA
ATOM      5  C   UNL     1       5.349  -1.077   0.024  0.00  0.00    +0.085 C 
ATOM      6  C   UNL     1       4.379  -2.456   1.773  0.00  0.00    +0.105 C 
ENDROOT
BRANCH   3   7
ATOM      7  C   UNL     1       6.792  -0.305   3.061  0.00  0.00    -0.012 A 
ATOM      8  C   UNL     1       6.199  -0.339   4.309  0.00  0.00    +0.115 A 
ATOM      9  N   UNL     1       6.406   0.628   5.182  0.00  0.00    -0.263 NA
ATOM     10  C   UNL     1       7.180   1.658   4.903  0.00  0.00    +0.111 A 
ATOM     11  C   UNL     1       7.807   1.761   3.676  0.00  0.00    +0.020 A 
ATOM     12  C   UNL     1       7.617   0.760   2.735  0.00  0.00    +0.008 A 
ENDBRANCH   3   7
TORSDOF 1
ENDMDL
MODEL 10
REMARK VINA RESULT:    -2.353      2.799      4.402
REMARK INTER + INTRA:          -2.699
REMARK INTER:                  -2.443
REMARK INTRA:                  -0.256
REMARK UNBOUND:                -0.208
REMARK  Name = Nicotine.pdb
REMARK  2 active torsions:
REMARK  status: ('A' for Active; 'I' for Inactive)
REMARK    1  A    between atoms: C_3  and  C_6
REMARK    2  A    between atoms: N_4  and  C_12
REMARK                            x       y       z     vdW  Elec       q    Type
REMARK                         _______ _______ _______ _____ _____    ______ ____
ROOT
ATOM      1  C   UNL     1       5.757   0.753   5.809  0.00  0.00    +0.017 C 
ATOM      2  C   UNL     1       6.820   1.261   4.799  0.00  0.00    +0.025 C 
ATOM      3  C   UNL     1       6.737   0.224   3.659  0.00  0.00    +0.088 C 
ATOM      4  N   UNL     1       6.154  -1.005   4.226  0.00  0.00    -0.298 NA
ATOM      5  C   UNL     1       5.897  -0.783   5.665  0.00  0.00    +0.085 C 
ATOM      6  C   UNL     1       4.920  -1.377   3.522  0.00  0.00    +0.105 C 
ENDROOT
BRANCH   3   7
ATOM      7  C   UNL     1       8.117  -0.062   3.125  0.00  0.00    -0.012 A 
ATOM      8  C   UNL     1       8.284  -0.535   1.837  0.00  0.00    +0.115 A 
ATOM      9  N   UNL     1       9.488  -0.787   1.362  0.00  0.00    -0.263 NA
ATOM     10  C   UNL     1      10.573  -0.601   2.088  0.00  0.00    +0.111 A 
ATOM     11  C   UNL     1      10.484  -0.130   3.385  0.00  0.00    +0.020 A 
ATOM     12  C   UNL     1       9.235   0.151   3.917  0.00  0.00    +0.008 A 
ENDBRANCH   3   7
TORSDOF 1
ENDMDL
