MODEL 1
REMARK VINA RESULT:    -2.153      0.000      0.000
REMARK INTER + INTRA:          -2.499
REMARK INTER:                  -2.279
REMARK INTRA:                  -0.221
REMARK UNBOUND:                -0.221
REMARK  Name = Nicotine.pdb
REMARK  2 active torsions:
REMARK  status: ('A' for Active; 'I' for Inactive)
REMARK    1  A    between atoms: C_3  and  C_6
REMARK    2  A    between atoms: N_4  and  C_12
REMARK                            x       y       z     vdW  Elec       q    Type
REMARK                         _______ _______ _______ _____ _____    ______ ____
ROOT
ATOM      1  C   UNL     1      -3.080   0.477  -6.423  0.00  0.00    +0.017 C 
ATOM      2  C   UNL     1      -3.740   0.197  -5.048  0.00  0.00    +0.025 C 
ATOM      3  C   UNL     1      -3.259   1.382  -4.184  0.00  0.00    +0.088 C 
ATOM      4  N   UNL     1      -2.033   1.909  -4.809  0.00  0.00    -0.298 NA
ATOM      5  C   UNL     1      -1.721   1.090  -6.000  0.00  0.00    +0.085 C 
ATOM      6  C   UNL     1      -2.191   3.324  -5.169  0.00  0.00    +0.105 C 
ENDROOT
BRANCH   3   7
ATOM      7  C   UNL     1      -2.961   0.910  -2.785  0.00  0.00    -0.012 A 
ATOM      8  C   UNL     1      -1.684   1.017  -2.268  0.00  0.00    +0.115 A 
ATOM      9  N   UNL     1      -1.414   0.606  -1.044  0.00  0.00    -0.263 NA
ATOM     10  C   UNL     1      -2.342   0.080  -0.270  0.00  0.00    +0.111 A 
ATOM     11  C   UNL     1      -3.643  -0.059  -0.718  0.00  0.00    +0.020 A 
ATOM     12  C   UNL     1      -3.965   0.367  -1.997  0.00  0.00    +0.008 A 
ENDBRANCH   3   7
TORSDOF 1
ENDMDL
MODEL 2
REMARK VINA RESULT:    -2.058      7.177      8.597
REMARK INTER + INTRA:          -2.399
REMARK INTER:                  -2.153
REMARK INTRA:                  -0.246
REMARK UNBOUND:                -0.221
REMARK  Name = Nicotine.pdb
REMARK  2 active torsions:
REMARK  status: ('A' for Active; 'I' for Inactive)
REMARK    1  A    between atoms: C_3  and  C_6
REMARK    2  A    between atoms: N_4  and  C_12
REMARK                            x       y       z     vdW  Elec       q    Type
REMARK                         _______ _______ _______ _____ _____    ______ ____
ROOT
ATOM      1  C   UNL     1       4.235  -5.585  -6.547  0.00  0.00    +0.017 C 
ATOM      2  C   UNL     1       4.213  -4.151  -7.139  0.00  0.00    +0.025 C 
ATOM      3  C   UNL     1       4.693  -3.281  -5.958  0.00  0.00    +0.088 C 
ATOM      4  N   UNL     1       4.436  -4.042  -4.722  0.00  0.00    -0.298 NA
ATOM      5  C   UNL     1       3.799  -5.326  -5.083  0.00  0.00    +0.085 C 
ATOM      6  C   UNL     1       5.678  -4.262  -3.971  0.00  0.00    +0.105 C 
ENDROOT
BRANCH   3   7
ATOM      7  C   UNL     1       3.926  -1.984  -5.933  0.00  0.00    -0.012 A 
ATOM      8  C   UNL     1       4.577  -0.792  -5.682  0.00  0.00    +0.115 A 
ATOM      9  N   UNL     1       3.914   0.348  -5.657  0.00  0.00    -0.263 NA
ATOM     10  C   UNL     1       2.613   0.397  -5.870  0.00  0.00    +0.111 A 
ATOM     11  C   UNL     1       1.894  -0.755  -6.128  0.00  0.00    +0.020 A 
ATOM     12  C   UNL     1       2.559  -1.971  -6.166  0.00  0.00    +0.008 A 
ENDBRANCH   3   7
TORSDOF 1
ENDMDL
MODEL 3
REMARK VINA RESULT:    -2.048      3.329      5.051
REMARK INTER + INTRA:          -2.388
REMARK INTER:                  -2.175
REMARK INTRA:                  -0.214
REMARK UNBOUND:                -0.221
REMARK  Name = Nicotine.pdb
REMARK  2 active torsions:
REMARK  status: ('A' for Active; 'I' for Inactive)
REMARK    1  A    between atoms: C_3  and  C_6
REMARK    2  A    between atoms: N_4  and  C_12
REMARK                            x       y       z     vdW  Elec       q    Type
REMARK                         _______ _______ _______ _____ _____    ______ ____
ROOT
ATOM      1  C   UNL     1       3.038   0.533  -5.308  0.00  0.00    +0.017 C 
ATOM      2  C   UNL     1       1.812  -0.077  -6.037  0.00  0.00    +0.025 C 
ATOM      3  C   UNL     1       1.017   1.169  -6.481  0.00  0.00    +0.088 C 
ATOM      4  N   UNL     1       1.424   2.282  -5.604  0.00  0.00    -0.298 NA
ATOM      5  C   UNL     1       2.411   1.775  -4.628  0.00  0.00    +0.085 C 
ATOM      6  C   UNL     1       1.979   3.393  -6.387  0.00  0.00    +0.105 C 
ENDROOT
BRANCH   3   7
ATOM      7  C   UNL     1      -0.461   0.913  -6.334  0.00  0.00    -0.012 A 
ATOM      8  C   UNL     1      -1.079  -0.068  -7.086  0.00  0.00    +0.115 A 
ATOM      9  N   UNL     1      -2.371  -0.299  -6.963  0.00  0.00    -0.263 NA
ATOM     10  C   UNL     1      -3.122   0.390  -6.127  0.00  0.00    +0.111 A 
ATOM     11  C   UNL     1      -2.574   1.387  -5.341  0.00  0.00    +0.020 A 
ATOM     12  C   UNL     1      -1.217   1.654  -5.438  0.00  0.00    +0.008 A 
ENDBRANCH   3   7
TORSDOF 1
ENDMDL
MODEL 4
REMARK VINA RESULT:    -1.982      9.058      9.968
REMARK INTER + INTRA:          -2.318
REMARK INTER:                  -2.141
REMARK INTRA:                  -0.178
REMARK UNBOUND:                -0.221
REMARK  Name = Nicotine.pdb
REMARK  2 active torsions:
REMARK  status: ('A' for Active; 'I' for Inactive)
REMARK    1  A    between atoms: C_3  and  C_6
REMARK    2  A    between atoms: N_4  and  C_12
REMARK                            x       y       z     vdW  Elec       q    Type
REMARK                         _______ _______ _______ _____ _____    ______ ____
ROOT
ATOM      1  C   UNL     1       8.384  -3.599  -3.625  0.00  0.00    +0.017 C 
ATOM      2  C   UNL     1       7.305  -4.505  -4.274  0.00  0.00    +0.025 C 
ATOM      3  C   UNL     1       6.051  -3.605  -4.276  0.00  0.00    +0.088 C 
ATOM      4  N   UNL     1       6.248  -2.580  -3.236  0.00  0.00    -0.298 NA
ATOM      5  C   UNL     1       7.550  -2.820  -2.578  0.00  0.00    +0.085 C 
ATOM      6  C   UNL     1       6.189  -1.229  -3.809  0.00  0.00    +0.105 C 
ENDROOT
BRANCH   3   7
ATOM      7  C   UNL     1       4.829  -4.428  -3.961  0.00  0.00    -0.012 A 
ATOM      8  C   UNL     1       4.725  -5.094  -2.754  0.00  0.00    +0.115 A 
ATOM      9  N   UNL     1       3.659  -5.816  -2.471  0.00  0.00    -0.263 NA
ATOM     10  C   UNL     1       2.656  -5.934  -3.319  0.00  0.00    +0.111 A 
ATOM     11  C   UNL     1       2.688  -5.297  -4.545  0.00  0.00    +0.020 A 
ATOM     12  C   UNL     1       3.791  -4.524  -4.876  0.00  0.00    +0.008 A 
ENDBRANCH   3   7
TORSDOF 1
ENDMDL
MODEL 5
REMARK VINA RESULT:    -1.979      5.710      7.042
REMARK INTER + INTRA:          -2.315
REMARK INTER:                  -2.123
REMARK INTRA:                  -0.192
REMARK UNBOUND:                -0.221
REMARK  Name = Nicotine.pdb
REMARK  2 active torsions:
REMARK  status: ('A' for Active; 'I' for Inactive)
REMARK    1  A    between atoms: C_3  and  C_6
REMARK    2  A    between atoms: N_4  and  C_12
REMARK                            x       y       z     vdW  Elec       q    Type
REMARK                         _______ _______ _______ _____ _____    ______ ____
ROOT
ATOM      1  C   UNL     1       3.775  -2.951  -6.234  0.00  0.00    +0.017 C 
ATOM      2  C   UNL     1       2.662  -1.871  -6.186  0.00  0.00    +0.025 C 
ATOM      3  C   UNL     1       3.450  -0.553  -6.345  0.00  0.00    +0.088 C 
ATOM      4  N   UNL     1       4.839  -0.823  -5.932  0.00  0.00    -0.298 NA
ATOM      5  C   UNL     1       4.938  -2.234  -5.503  0.00  0.00    +0.085 C 
ATOM      6  C   UNL     1       5.778  -0.537  -7.024  0.00  0.00    +0.105 C 
ENDROOT
BRANCH   3   7
ATOM      7  C   UNL     1       2.850   0.512  -5.465  0.00  0.00    -0.012 A 
ATOM      8  C   UNL     1       1.479   0.602  -5.313  0.00  0.00    +0.115 A 
ATOM      9  N   UNL     1       0.946   1.532  -4.544  0.00  0.00    -0.263 NA
ATOM     10  C   UNL     1       1.689   2.406  -3.896  0.00  0.00    +0.111 A 
ATOM     11  C   UNL     1       3.068   2.378  -4.000  0.00  0.00    +0.020 A 
ATOM     12  C   UNL     1       3.665   1.411  -4.794  0.00  0.00    +0.008 A 
ENDBRANCH   3   7
TORSDOF 1
ENDMDL
MODEL 6
REMARK VINA RESULT:    -1.977      7.917      8.753
REMARK INTER + INTRA:          -2.314
REMARK INTER:                  -2.100
REMARK INTRA:                  -0.214
REMARK UNBOUND:                -0.221
REMARK  Name = Nicotine.pdb
REMARK  2 active torsions:
REMARK  status: ('A' for Active; 'I' for Inactive)
REMARK    1  A    between atoms: C_3  and  C_6
REMARK    2  A    between atoms: N_4  and  C_12
REMARK                            x       y       z     vdW  Elec       q    Type
REMARK                         _______ _______ _______ _____ _____    ______ ____
ROOT
ATOM      1  C   UNL     1       6.439  -1.276  -6.011  0.00  0.00    +0.017 C 
ATOM      2  C   UNL     1       6.352  -2.754  -5.547  0.00  0.00    +0.025 C 
ATOM      3  C   UNL     1       4.892  -3.134  -5.871  0.00  0.00    +0.088 C 
ATOM      4  N   UNL     1       4.119  -1.881  -5.940  0.00  0.00    -0.298 NA
ATOM      5  C   UNL     1       5.027  -0.751  -5.649  0.00  0.00    +0.085 C 
ATOM      6  C   UNL     1       3.486  -1.724  -7.256  0.00  0.00    +0.105 C 
ENDROOT
BRANCH   3   7
ATOM      7  C   UNL     1       4.339  -4.020  -4.785  0.00  0.00    -0.012 A 
ATOM      8  C   UNL     1       5.014  -4.161  -3.587  0.00  0.00    +0.115 A 
ATOM      9  N   UNL     1       4.538  -4.934  -2.631  0.00  0.00    -0.263 NA
ATOM     10  C   UNL     1       3.409  -5.599  -2.775  0.00  0.00    +0.111 A 
ATOM     11  C   UNL     1       2.678  -5.507  -3.945  0.00  0.00    +0.020 A 
ATOM     12  C   UNL     1       3.145  -4.700  -4.971  0.00  0.00    +0.008 A 
ENDBRANCH   3   7
TORSDOF 1
ENDMDL
MODEL 7
REMARK VINA RESULT:    -1.918      5.065      6.610
REMARK INTER + INTRA:          -2.251
REMARK INTER:                  -2.059
REMARK INTRA:                  -0.192
REMARK UNBOUND:                -0.221
REMARK  Name = Nicotine.pdb
REMARK  2 active torsions:
REMARK  status: ('A' for Active; 'I' for Inactive)
REMARK    1  A    between atoms: C_3  and  C_6
REMARK    2  A    between atoms: N_4  and  C_12
REMARK                            x       y       z     vdW  Elec       q    Type
REMARK                         _______ _______ _______ _____ _____    ______ ____
ROOT
ATOM      1  C   UNL     1       1.457   2.650  -3.881  0.00  0.00    +0.017 C 
ATOM      2  C   UNL     1       2.765   2.018  -4.425  0.00  0.00    +0.025 C 
ATOM      3  C   UNL     1       2.282   1.231  -5.662  0.00  0.00    +0.088 C 
ATOM      4  N   UNL     1       0.843   0.970  -5.478  0.00  0.00    -0.298 NA
ATOM      5  C   UNL     1       0.423   1.535  -4.178  0.00  0.00    +0.085 C 
ATOM      6  C   UNL     1       0.058   1.542  -6.580  0.00  0.00    +0.105 C 
ENDROOT
BRANCH   3   7
ATOM      7  C   UNL     1       3.032  -0.072  -5.765  0.00  0.00    -0.012 A 
ATOM      8  C   UNL     1       4.378  -0.129  -5.459  0.00  0.00    +0.115 A 
ATOM      9  N   UNL     1       5.042  -1.266  -5.547  0.00  0.00    -0.263 NA
ATOM     10  C   UNL     1       4.456  -2.383  -5.928  0.00  0.00    +0.111 A 
ATOM     11  C   UNL     1       3.111  -2.403  -6.250  0.00  0.00    +0.020 A 
ATOM     12  C   UNL     1       2.380  -1.229  -6.164  0.00  0.00    +0.008 A 
ENDBRANCH   3   7
TORSDOF 1
ENDMDL
MODEL 8
REMARK VINA RESULT:    -1.893      7.400      9.177
REMARK INTER + INTRA:          -2.224
REMARK INTER:                  -2.009
REMARK INTRA:                  -0.215
REMARK UNBOUND:                -0.221
REMARK  Name = Nicotine.pdb
REMARK  2 active torsions:
REMARK  status: ('A' for Active; 'I' for Inactive)
REMARK    1  A    between atoms: C_3  and  C_6
REMARK    2  A    between atoms: N_4  and  C_12
REMARK                            x       y       z     vdW  Elec       q    Type
REMARK                         _______ _______ _______ _____ _____    ______ ____
ROOT
ATOM      1  C   UNL     1      -2.979  -1.761   4.673  0.00  0.00    +0.017 C 
ATOM      2  C   UNL     1      -2.490  -2.205   3.270  0.00  0.00    +0.025 C 
ATOM      3  C   UNL     1      -1.802  -3.557   3.554  0.00  0.00    +0.088 C 
ATOM      4  N   UNL     1      -1.432  -3.568   4.980  0.00  0.00    -0.298 NA
ATOM      5  C   UNL     1      -1.836  -2.279   5.581  0.00  0.00    +0.085 C 
ATOM      6  C   UNL     1      -2.061  -4.696   5.680  0.00  0.00    +0.105 C 
ENDROOT
BRANCH   3   7
ATOM      7  C   UNL     1      -0.567  -3.693   2.701  0.00  0.00    -0.012 A 
ATOM      8  C   UNL     1       0.021  -2.576   2.139  0.00  0.00    +0.115 A 
ATOM      9  N   UNL     1       1.102  -2.686   1.391  0.00  0.00    -0.263 NA
ATOM     10  C   UNL     1       1.662  -3.855   1.151  0.00  0.00    +0.111 A 
ATOM     11  C   UNL     1       1.131  -5.017   1.681  0.00  0.00    +0.020 A 
ATOM     12  C   UNL     1      -0.002  -4.939   2.476  0.00  0.00    +0.008 A 
ENDBRANCH   3   7
TORSDOF 1
ENDMDL
MODEL 9
REMARK VINA RESULT:    -1.822      5.746      7.272
REMARK INTER + INTRA:          -2.149
REMARK INTER:                  -1.934
REMARK INTRA:                  -0.215
REMARK UNBOUND:                -0.221
REMARK  Name = Nicotine.pdb
REMARK  2 active torsions:
REMARK  status: ('A' for Active; 'I' for Inactive)
REMARK    1  A    between atoms: C_3  and  C_6
REMARK    2  A    between atoms: N_4  and  C_12
REMARK                            x       y       z     vdW  Elec       q    Type
REMARK                         _______ _______ _______ _____ _____    ______ ____
ROOT
ATOM      1  C   UNL     1       0.485   1.006  -6.923  0.00  0.00    +0.017 C 
ATOM      2  C   UNL     1       0.984  -0.456  -6.786  0.00  0.00    +0.025 C 
ATOM      3  C   UNL     1       2.165  -0.329  -5.800  0.00  0.00    +0.088 C 
ATOM      4  N   UNL     1       2.632   1.068  -5.856  0.00  0.00    -0.298 NA
ATOM      5  C   UNL     1       1.813   1.799  -6.846  0.00  0.00    +0.085 C 
ATOM      6  C   UNL     1       2.553   1.704  -4.534  0.00  0.00    +0.105 C 
ENDROOT
BRANCH   3   7
ATOM      7  C   UNL     1       3.277  -1.260  -6.208  0.00  0.00    -0.012 A 
ATOM      8  C   UNL     1       4.481  -0.754  -6.661  0.00  0.00    +0.115 A 
ATOM      9  N   UNL     1       5.459  -1.562  -7.020  0.00  0.00    -0.263 NA
ATOM     10  C   UNL     1       5.331  -2.873  -6.964  0.00  0.00    +0.111 A 
ATOM     11  C   UNL     1       4.157  -3.451  -6.520  0.00  0.00    +0.020 A 
ATOM     12  C   UNL     1       3.108  -2.634  -6.129  0.00  0.00    +0.008 A 
ENDBRANCH   3   7
TORSDOF 1
ENDMDL
MODEL 10
REMARK VINA RESULT:    -1.805      1.303      2.209
REMARK INTER + INTRA:          -2.132
REMARK INTER:                  -1.906
REMARK INTRA:                  -0.226
REMARK UNBOUND:                -0.221
REMARK  Name = Nicotine.pdb
REMARK  2 active torsions:
REMARK  status: ('A' for Active; 'I' for Inactive)
REMARK    1  A    between atoms: C_3  and  C_6
REMARK    2  A    between atoms: N_4  and  C_12
REMARK                            x       y       z     vdW  Elec       q    Type
REMARK                         _______ _______ _______ _____ _____    ______ ____
ROOT
ATOM      1  C   UNL     1      -2.584   4.043  -6.345  0.00  0.00    +0.017 C 
ATOM      2  C   UNL     1      -2.484   3.839  -4.811  0.00  0.00    +0.025 C 
ATOM      3  C   UNL     1      -1.467   2.686  -4.680  0.00  0.00    +0.088 C 
ATOM      4  N   UNL     1      -1.466   1.957  -5.960  0.00  0.00    -0.298 NA
ATOM      5  C   UNL     1      -2.451   2.589  -6.863  0.00  0.00    +0.085 C 
ATOM      6  C   UNL     1      -0.126   1.950  -6.563  0.00  0.00    +0.105 C 
ENDROOT
BRANCH   3   7
ATOM      7  C   UNL     1      -1.879   1.763  -3.563  0.00  0.00    -0.012 A 
ATOM      8  C   UNL     1      -1.001   1.470  -2.537  0.00  0.00    +0.115 A 
ATOM      9  N   UNL     1      -1.354   0.663  -1.555  0.00  0.00    -0.263 NA
ATOM     10  C   UNL     1      -2.548   0.107  -1.512  0.00  0.00    +0.111 A 
ATOM     11  C   UNL     1      -3.481   0.353  -2.502  0.00  0.00    +0.020 A 
ATOM     12  C   UNL     1      -3.147   1.200  -3.548  0.00  0.00    +0.008 A 
ENDBRANCH   3   7
TORSDOF 1
ENDMDL
