MODEL 1
REMARK VINA RESULT:    10.477      0.000      0.000
REMARK INTER + INTRA:          10.848
REMARK INTER:                  11.090
REMARK INTRA:                  -0.242
REMARK UNBOUND:                -0.242
REMARK  Name = Nicotine.pdb
REMARK  2 active torsions:
REMARK  status: ('A' for Active; 'I' for Inactive)
REMARK    1  A    between atoms: C_3  and  C_6
REMARK    2  A    between atoms: N_4  and  C_12
REMARK                            x       y       z     vdW  Elec       q    Type
REMARK                         _______ _______ _______ _____ _____    ______ ____
ROOT
ATOM      1  C   UNL     1       0.263   1.423  -5.163  0.00  0.00    +0.017 C 
ATOM      2  C   UNL     1      -0.634   1.625  -3.913  0.00  0.00    +0.025 C 
ATOM      3  C   UNL     1       0.273   1.152  -2.757  0.00  0.00    +0.088 C 
ATOM      4  N   UNL     1       1.290   0.257  -3.337  0.00  0.00    -0.298 NA
ATOM      5  C   UNL     1       1.038   0.136  -4.789  0.00  0.00    +0.085 C 
ATOM      6  C   UNL     1       2.645   0.760  -3.077  0.00  0.00    +0.105 C 
ENDROOT
BRANCH   3   7
ATOM      7  C   UNL     1      -0.546   0.406  -1.736  0.00  0.00    -0.012 A 
ATOM      8  C   UNL     1      -0.381   0.658  -0.387  0.00  0.00    +0.115 A 
ATOM      9  N   UNL     1      -1.094   0.010   0.513  0.00  0.00    -0.263 NA
ATOM     10  C   UNL     1      -1.986  -0.898   0.169  0.00  0.00    +0.111 A 
ATOM     11  C   UNL     1      -2.207  -1.203  -1.162  0.00  0.00    +0.020 A 
ATOM     12  C   UNL     1      -1.480  -0.538  -2.137  0.00  0.00    +0.008 A 
ENDBRANCH   3   7
TORSDOF 1
ENDMDL
MODEL 2
REMARK VINA RESULT:    11.552      1.322      4.479
REMARK INTER + INTRA:          11.985
REMARK INTER:                  12.158
REMARK INTRA:                  -0.172
REMARK UNBOUND:                -0.242
REMARK  Name = Nicotine.pdb
REMARK  2 active torsions:
REMARK  status: ('A' for Active; 'I' for Inactive)
REMARK    1  A    between atoms: C_3  and  C_6
REMARK    2  A    between atoms: N_4  and  C_12
REMARK                            x       y       z     vdW  Elec       q    Type
REMARK                         _______ _______ _______ _____ _____    ______ ____
ROOT
ATOM      1  C   UNL     1      -3.431  -1.008  -0.740  0.00  0.00    +0.017 C 
ATOM      2  C   UNL     1      -2.418  -1.226  -1.895  0.00  0.00    +0.025 C 
ATOM      3  C   UNL     1      -1.083  -0.759  -1.278  0.00  0.00    +0.088 C 
ATOM      4  N   UNL     1      -1.410   0.148  -0.163  0.00  0.00    -0.298 NA
ATOM      5  C   UNL     1      -2.880   0.281  -0.080  0.00  0.00    +0.085 C 
ATOM      6  C   UNL     1      -0.853  -0.350   1.101  0.00  0.00    +0.105 C 
ENDROOT
BRANCH   3   7
ATOM      7  C   UNL     1      -0.268  -0.028  -2.314  0.00  0.00    -0.012 A 
ATOM      8  C   UNL     1      -0.709   1.178  -2.826  0.00  0.00    +0.115 A 
ATOM      9  N   UNL     1      -0.002   1.825  -3.732  0.00  0.00    -0.263 NA
ATOM     10  C   UNL     1       1.143   1.353  -4.184  0.00  0.00    +0.111 A 
ATOM     11  C   UNL     1       1.648   0.153  -3.718  0.00  0.00    +0.020 A 
ATOM     12  C   UNL     1       0.935  -0.552  -2.761  0.00  0.00    +0.008 A 
ENDBRANCH   3   7
TORSDOF 1
ENDMDL
MODEL 3
REMARK VINA RESULT:    12.466      1.045      1.887
REMARK INTER + INTRA:          12.953
REMARK INTER:                  13.159
REMARK INTRA:                  -0.206
REMARK UNBOUND:                -0.242
REMARK  Name = Nicotine.pdb
REMARK  2 active torsions:
REMARK  status: ('A' for Active; 'I' for Inactive)
REMARK    1  A    between atoms: C_3  and  C_6
REMARK    2  A    between atoms: N_4  and  C_12
REMARK                            x       y       z     vdW  Elec       q    Type
REMARK                         _______ _______ _______ _____ _____    ______ ____
ROOT
ATOM      1  C   UNL     1       2.337   0.522  -3.590  0.00  0.00    +0.017 C 
ATOM      2  C   UNL     1       1.478  -0.508  -2.809  0.00  0.00    +0.025 C 
ATOM      3  C   UNL     1       0.034  -0.067  -3.126  0.00  0.00    +0.088 C 
ATOM      4  N   UNL     1       0.087   1.352  -3.524  0.00  0.00    -0.298 NA
ATOM      5  C   UNL     1       1.490   1.811  -3.442  0.00  0.00    +0.085 C 
ATOM      6  C   UNL     1      -0.452   1.541  -4.877  0.00  0.00    +0.105 C 
ENDROOT
BRANCH   3   7
ATOM      7  C   UNL     1      -0.831  -0.225  -1.902  0.00  0.00    -0.012 A 
ATOM      8  C   UNL     1      -0.353   0.138  -0.657  0.00  0.00    +0.115 A 
ATOM      9  N   UNL     1      -1.103   0.002   0.419  0.00  0.00    -0.263 NA
ATOM     10  C   UNL     1      -2.328  -0.481   0.354  0.00  0.00    +0.111 A 
ATOM     11  C   UNL     1      -2.874  -0.864  -0.857  0.00  0.00    +0.020 A 
ATOM     12  C   UNL     1      -2.117  -0.731  -2.011  0.00  0.00    +0.008 A 
ENDBRANCH   3   7
TORSDOF 1
ENDMDL
MODEL 4
REMARK VINA RESULT:    12.642      1.251      4.649
REMARK INTER + INTRA:          13.140
REMARK INTER:                  13.376
REMARK INTRA:                  -0.237
REMARK UNBOUND:                -0.242
REMARK  Name = Nicotine.pdb
REMARK  2 active torsions:
REMARK  status: ('A' for Active; 'I' for Inactive)
REMARK    1  A    between atoms: C_3  and  C_6
REMARK    2  A    between atoms: N_4  and  C_12
REMARK                            x       y       z     vdW  Elec       q    Type
REMARK                         _______ _______ _______ _____ _____    ______ ____
ROOT
ATOM      1  C   UNL     1      -1.155  -0.472   1.028  0.00  0.00    +0.017 C 
ATOM      2  C   UNL     1      -0.501   0.603   0.120  0.00  0.00    +0.025 C 
ATOM      3  C   UNL     1      -1.273   0.452  -1.208  0.00  0.00    +0.088 C 
ATOM      4  N   UNL     1      -1.848  -0.905  -1.228  0.00  0.00    -0.298 NA
ATOM      5  C   UNL     1      -1.447  -1.604   0.012  0.00  0.00    +0.085 C 
ATOM      6  C   UNL     1      -3.310  -0.855  -1.355  0.00  0.00    +0.105 C 
ENDROOT
BRANCH   3   7
ATOM      7  C   UNL     1      -0.331   0.628  -2.371  0.00  0.00    -0.012 A 
ATOM      8  C   UNL     1      -0.661   1.468  -3.417  0.00  0.00    +0.115 A 
ATOM      9  N   UNL     1       0.157   1.628  -4.439  0.00  0.00    -0.263 NA
ATOM     10  C   UNL     1       1.313   0.998  -4.506  0.00  0.00    +0.111 A 
ATOM     11  C   UNL     1       1.712   0.142  -3.496  0.00  0.00    +0.020 A 
ATOM     12  C   UNL     1       0.880  -0.047  -2.403  0.00  0.00    +0.008 A 
ENDBRANCH   3   7
TORSDOF 1
ENDMDL
MODEL 5
REMARK VINA RESULT:    13.337      2.222      4.551
REMARK INTER + INTRA:          13.875
REMARK INTER:                  14.071
REMARK INTRA:                  -0.197
REMARK UNBOUND:                -0.242
REMARK  Name = Nicotine.pdb
REMARK  2 active torsions:
REMARK  status: ('A' for Active; 'I' for Inactive)
REMARK    1  A    between atoms: C_3  and  C_6
REMARK    2  A    between atoms: N_4  and  C_12
REMARK                            x       y       z     vdW  Elec       q    Type
REMARK                         _______ _______ _______ _____ _____    ______ ____
ROOT
ATOM      1  C   UNL     1       0.890   0.331  -1.330  0.00  0.00    +0.017 C 
ATOM      2  C   UNL     1      -0.066   0.232  -2.548  0.00  0.00    +0.025 C 
ATOM      3  C   UNL     1       0.901   0.019  -3.732  0.00  0.00    +0.088 C 
ATOM      4  N   UNL     1       2.220   0.530  -3.317  0.00  0.00    -0.298 NA
ATOM      5  C   UNL     1       2.105   1.070  -1.945  0.00  0.00    +0.085 C 
ATOM      6  C   UNL     1       3.239  -0.524  -3.384  0.00  0.00    +0.105 C 
ENDROOT
BRANCH   3   7
ATOM      7  C   UNL     1       0.411   0.779  -4.937  0.00  0.00    -0.012 A 
ATOM      8  C   UNL     1       0.033   2.103  -4.822  0.00  0.00    +0.115 A 
ATOM      9  N   UNL     1      -0.397   2.776  -5.872  0.00  0.00    -0.263 NA
ATOM     10  C   UNL     1      -0.484   2.219  -7.064  0.00  0.00    +0.111 A 
ATOM     11  C   UNL     1      -0.123   0.898  -7.256  0.00  0.00    +0.020 A 
ATOM     12  C   UNL     1       0.338   0.161  -6.176  0.00  0.00    +0.008 A 
ENDBRANCH   3   7
TORSDOF 1
ENDMDL
