MODEL 1
REMARK VINA RESULT:    -3.956      0.000      0.000
REMARK INTER + INTRA:          -4.403
REMARK INTER:                  -4.187
REMARK INTRA:                  -0.216
REMARK UNBOUND:                -0.216
REMARK  Name = Nicotine.pdb
REMARK  2 active torsions:
REMARK  status: ('A' for Active; 'I' for Inactive)
REMARK    1  A    between atoms: C_3  and  C_6
REMARK    2  A    between atoms: N_4  and  C_12
REMARK                            x       y       z     vdW  Elec       q    Type
REMARK                         _______ _______ _______ _____ _____    ______ ____
ROOT
ATOM      1  C   UNL     1       5.471  -1.996   0.630  0.00  0.00    +0.017 C 
ATOM      2  C   UNL     1       4.999  -1.915   2.106  0.00  0.00    +0.025 C 
ATOM      3  C   UNL     1       4.654  -3.382   2.440  0.00  0.00    +0.088 C 
ATOM      4  N   UNL     1       4.395  -4.072   1.164  0.00  0.00    -0.298 NA
ATOM      5  C   UNL     1       4.539  -3.095   0.063  0.00  0.00    +0.085 C 
ATOM      6  C   UNL     1       5.309  -5.208   0.983  0.00  0.00    +0.105 C 
ENDROOT
BRANCH   3   7
ATOM      7  C   UNL     1       3.426  -3.434   3.311  0.00  0.00    -0.012 A 
ATOM      8  C   UNL     1       2.642  -4.572   3.347  0.00  0.00    +0.115 A 
ATOM      9  N   UNL     1       1.565  -4.626   4.107  0.00  0.00    -0.263 NA
ATOM     10  C   UNL     1       1.194  -3.607   4.856  0.00  0.00    +0.111 A 
ATOM     11  C   UNL     1       1.929  -2.436   4.873  0.00  0.00    +0.020 A 
ATOM     12  C   UNL     1       3.070  -2.344   4.091  0.00  0.00    +0.008 A 
ENDBRANCH   3   7
TORSDOF 1
ENDMDL
MODEL 2
REMARK VINA RESULT:    -3.955      1.366      4.647
REMARK INTER + INTRA:          -4.402
REMARK INTER:                  -4.186
REMARK INTRA:                  -0.215
REMARK UNBOUND:                -0.216
REMARK  Name = Nicotine.pdb
REMARK  2 active torsions:
REMARK  status: ('A' for Active; 'I' for Inactive)
REMARK    1  A    between atoms: C_3  and  C_6
REMARK    2  A    between atoms: N_4  and  C_12
REMARK                            x       y       z     vdW  Elec       q    Type
REMARK                         _______ _______ _______ _____ _____    ______ ____
ROOT
ATOM      1  C   UNL     1       1.357  -4.258   4.783  0.00  0.00    +0.017 C 
ATOM      2  C   UNL     1       2.119  -4.982   3.642  0.00  0.00    +0.025 C 
ATOM      3  C   UNL     1       3.418  -4.157   3.514  0.00  0.00    +0.088 C 
ATOM      4  N   UNL     1       3.145  -2.823   4.077  0.00  0.00    -0.298 NA
ATOM      5  C   UNL     1       1.736  -2.778   4.522  0.00  0.00    +0.085 C 
ATOM      6  C   UNL     1       4.058  -2.522   5.188  0.00  0.00    +0.105 C 
ENDROOT
BRANCH   3   7
ATOM      7  C   UNL     1       3.805  -4.034   2.063  0.00  0.00    -0.012 A 
ATOM      8  C   UNL     1       4.542  -2.949   1.627  0.00  0.00    +0.115 A 
ATOM      9  N   UNL     1       4.886  -2.834   0.359  0.00  0.00    -0.263 NA
ATOM     10  C   UNL     1       4.544  -3.738  -0.537  0.00  0.00    +0.111 A 
ATOM     11  C   UNL     1       3.807  -4.850  -0.175  0.00  0.00    +0.020 A 
ATOM     12  C   UNL     1       3.433  -5.009   1.151  0.00  0.00    +0.008 A 
ENDBRANCH   3   7
TORSDOF 1
ENDMDL
MODEL 3
REMARK VINA RESULT:    -3.876      2.238      4.013
REMARK INTER + INTRA:          -4.318
REMARK INTER:                  -4.101
REMARK INTRA:                  -0.217
REMARK UNBOUND:                -0.216
REMARK  Name = Nicotine.pdb
REMARK  2 active torsions:
REMARK  status: ('A' for Active; 'I' for Inactive)
REMARK    1  A    between atoms: C_3  and  C_6
REMARK    2  A    between atoms: N_4  and  C_12
REMARK                            x       y       z     vdW  Elec       q    Type
REMARK                         _______ _______ _______ _____ _____    ______ ____
ROOT
ATOM      1  C   UNL     1       7.042  -1.005   2.006  0.00  0.00    +0.017 C 
ATOM      2  C   UNL     1       6.315  -1.624   0.783  0.00  0.00    +0.025 C 
ATOM      3  C   UNL     1       4.947  -2.037   1.365  0.00  0.00    +0.088 C 
ATOM      4  N   UNL     1       5.117  -2.181   2.822  0.00  0.00    -0.298 NA
ATOM      5  C   UNL     1       6.529  -1.901   3.161  0.00  0.00    +0.085 C 
ATOM      6  C   UNL     1       4.212  -1.283   3.549  0.00  0.00    +0.105 C 
ENDROOT
BRANCH   3   7
ATOM      7  C   UNL     1       4.511  -3.350   0.766  0.00  0.00    -0.012 A 
ATOM      8  C   UNL     1       3.888  -4.303   1.549  0.00  0.00    +0.115 A 
ATOM      9  N   UNL     1       3.503  -5.454   1.033  0.00  0.00    -0.263 NA
ATOM     10  C   UNL     1       3.694  -5.741  -0.239  0.00  0.00    +0.111 A 
ATOM     11  C   UNL     1       4.310  -4.837  -1.084  0.00  0.00    +0.020 A 
ATOM     12  C   UNL     1       4.723  -3.614  -0.578  0.00  0.00    +0.008 A 
ENDBRANCH   3   7
TORSDOF 1
ENDMDL
MODEL 4
REMARK VINA RESULT:    -3.827      1.328      1.873
REMARK INTER + INTRA:          -4.267
REMARK INTER:                  -4.015
REMARK INTRA:                  -0.252
REMARK UNBOUND:                -0.216
REMARK  Name = Nicotine.pdb
REMARK  2 active torsions:
REMARK  status: ('A' for Active; 'I' for Inactive)
REMARK    1  A    between atoms: C_3  and  C_6
REMARK    2  A    between atoms: N_4  and  C_12
REMARK                            x       y       z     vdW  Elec       q    Type
REMARK                         _______ _______ _______ _____ _____    ______ ____
ROOT
ATOM      1  C   UNL     1       5.758  -3.879  -0.758  0.00  0.00    +0.017 C 
ATOM      2  C   UNL     1       5.894  -3.562   0.754  0.00  0.00    +0.025 C 
ATOM      3  C   UNL     1       4.680  -4.289   1.372  0.00  0.00    +0.088 C 
ATOM      4  N   UNL     1       3.687  -4.471   0.298  0.00  0.00    -0.298 NA
ATOM      5  C   UNL     1       4.220  -3.869  -0.943  0.00  0.00    +0.085 C 
ATOM      6  C   UNL     1       3.376  -5.893   0.103  0.00  0.00    +0.105 C 
ENDROOT
BRANCH   3   7
ATOM      7  C   UNL     1       4.092  -3.455   2.480  0.00  0.00    -0.012 A 
ATOM      8  C   UNL     1       3.143  -3.990   3.330  0.00  0.00    +0.115 A 
ATOM      9  N   UNL     1       2.623  -3.267   4.303  0.00  0.00    -0.263 NA
ATOM     10  C   UNL     1       2.983  -2.014   4.503  0.00  0.00    +0.111 A 
ATOM     11  C   UNL     1       3.927  -1.411   3.693  0.00  0.00    +0.020 A 
ATOM     12  C   UNL     1       4.499  -2.142   2.664  0.00  0.00    +0.008 A 
ENDBRANCH   3   7
TORSDOF 1
ENDMDL
MODEL 5
REMARK VINA RESULT:    -3.804      0.829      1.417
REMARK INTER + INTRA:          -4.242
REMARK INTER:                  -4.050
REMARK INTRA:                  -0.192
REMARK UNBOUND:                -0.216
REMARK  Name = Nicotine.pdb
REMARK  2 active torsions:
REMARK  status: ('A' for Active; 'I' for Inactive)
REMARK    1  A    between atoms: C_3  and  C_6
REMARK    2  A    between atoms: N_4  and  C_12
REMARK                            x       y       z     vdW  Elec       q    Type
REMARK                         _______ _______ _______ _____ _____    ______ ____
ROOT
ATOM      1  C   UNL     1       5.852  -1.768   0.962  0.00  0.00    +0.017 C 
ATOM      2  C   UNL     1       5.350  -1.983   2.414  0.00  0.00    +0.025 C 
ATOM      3  C   UNL     1       4.845  -3.442   2.393  0.00  0.00    +0.088 C 
ATOM      4  N   UNL     1       4.550  -3.782   0.990  0.00  0.00    -0.298 NA
ATOM      5  C   UNL     1       4.826  -2.597   0.150  0.00  0.00    +0.085 C 
ATOM      6  C   UNL     1       5.344  -4.936   0.550  0.00  0.00    +0.105 C 
ENDROOT
BRANCH   3   7
ATOM      7  C   UNL     1       3.594  -3.562   3.225  0.00  0.00    -0.012 A 
ATOM      8  C   UNL     1       3.176  -2.509   4.016  0.00  0.00    +0.115 A 
ATOM      9  N   UNL     1       2.083  -2.606   4.747  0.00  0.00    -0.263 NA
ATOM     10  C   UNL     1       1.350  -3.702   4.754  0.00  0.00    +0.111 A 
ATOM     11  C   UNL     1       1.705  -4.797   3.989  0.00  0.00    +0.020 A 
ATOM     12  C   UNL     1       2.845  -4.729   3.203  0.00  0.00    +0.008 A 
ENDBRANCH   3   7
TORSDOF 1
ENDMDL
MODEL 6
REMARK VINA RESULT:    -3.669      3.400      4.513
REMARK INTER + INTRA:          -4.099
REMARK INTER:                  -3.847
REMARK INTRA:                  -0.252
REMARK UNBOUND:                -0.216
REMARK  Name = Nicotine.pdb
REMARK  2 active torsions:
REMARK  status: ('A' for Active; 'I' for Inactive)
REMARK    1  A    between atoms: C_3  and  C_6
REMARK    2  A    between atoms: N_4  and  C_12
REMARK                            x       y       z     vdW  Elec       q    Type
REMARK                         _______ _______ _______ _____ _____    ______ ____
ROOT
ATOM      1  C   UNL     1       4.224  -4.543  -0.458  0.00  0.00    +0.017 C 
ATOM      2  C   UNL     1       4.282  -3.140   0.202  0.00  0.00    +0.025 C 
ATOM      3  C   UNL     1       5.727  -2.680  -0.087  0.00  0.00    +0.088 C 
ATOM      4  N   UNL     1       6.529  -3.891  -0.337  0.00  0.00    -0.298 NA
ATOM      5  C   UNL     1       5.654  -5.074  -0.191  0.00  0.00    +0.085 C 
ATOM      6  C   UNL     1       7.142  -3.851  -1.671  0.00  0.00    +0.105 C 
ENDROOT
BRANCH   3   7
ATOM      7  C   UNL     1       6.276  -1.936   1.102  0.00  0.00    -0.012 A 
ATOM      8  C   UNL     1       7.465  -1.239   1.003  0.00  0.00    +0.115 A 
ATOM      9  N   UNL     1       7.952  -0.585   2.039  0.00  0.00    -0.263 NA
ATOM     10  C   UNL     1       7.332  -0.568   3.202  0.00  0.00    +0.111 A 
ATOM     11  C   UNL     1       6.138  -1.242   3.377  0.00  0.00    +0.020 A 
ATOM     12  C   UNL     1       5.592  -1.937   2.308  0.00  0.00    +0.008 A 
ENDBRANCH   3   7
TORSDOF 1
ENDMDL
MODEL 7
REMARK VINA RESULT:    -3.639      1.758      2.479
REMARK INTER + INTRA:          -4.068
REMARK INTER:                  -3.858
REMARK INTRA:                  -0.210
REMARK UNBOUND:                -0.216
REMARK  Name = Nicotine.pdb
REMARK  2 active torsions:
REMARK  status: ('A' for Active; 'I' for Inactive)
REMARK    1  A    between atoms: C_3  and  C_6
REMARK    2  A    between atoms: N_4  and  C_12
REMARK                            x       y       z     vdW  Elec       q    Type
REMARK                         _______ _______ _______ _____ _____    ______ ____
ROOT
ATOM      1  C   UNL     1       6.917  -2.289   0.221  0.00  0.00    +0.017 C 
ATOM      2  C   UNL     1       5.428  -2.099   0.612  0.00  0.00    +0.025 C 
ATOM      3  C   UNL     1       5.513  -1.597   2.069  0.00  0.00    +0.088 C 
ATOM      4  N   UNL     1       6.818  -2.026   2.603  0.00  0.00    -0.298 NA
ATOM      5  C   UNL     1       7.529  -2.788   1.554  0.00  0.00    +0.085 C 
ATOM      6  C   UNL     1       7.612  -0.872   3.045  0.00  0.00    +0.105 C 
ENDROOT
BRANCH   3   7
ATOM      7  C   UNL     1       4.400  -2.202   2.885  0.00  0.00    -0.012 A 
ATOM      8  C   UNL     1       4.007  -3.510   2.671  0.00  0.00    +0.115 A 
ATOM      9  N   UNL     1       3.034  -4.047   3.381  0.00  0.00    -0.263 NA
ATOM     10  C   UNL     1       2.401  -3.366   4.315  0.00  0.00    +0.111 A 
ATOM     11  C   UNL     1       2.740  -2.054   4.587  0.00  0.00    +0.020 A 
ATOM     12  C   UNL     1       3.761  -1.457   3.864  0.00  0.00    +0.008 A 
ENDBRANCH   3   7
TORSDOF 1
ENDMDL
MODEL 8
REMARK VINA RESULT:    -3.639      1.674      2.725
REMARK INTER + INTRA:          -4.067
REMARK INTER:                  -3.866
REMARK INTRA:                  -0.201
REMARK UNBOUND:                -0.216
REMARK  Name = Nicotine.pdb
REMARK  2 active torsions:
REMARK  status: ('A' for Active; 'I' for Inactive)
REMARK    1  A    between atoms: C_3  and  C_6
REMARK    2  A    between atoms: N_4  and  C_12
REMARK                            x       y       z     vdW  Elec       q    Type
REMARK                         _______ _______ _______ _____ _____    ______ ____
ROOT
ATOM      1  C   UNL     1       5.066  -4.836  -1.734  0.00  0.00    +0.017 C 
ATOM      2  C   UNL     1       4.181  -3.904  -0.866  0.00  0.00    +0.025 C 
ATOM      3  C   UNL     1       5.200  -3.253   0.094  0.00  0.00    +0.088 C 
ATOM      4  N   UNL     1       6.374  -4.142   0.153  0.00  0.00    -0.298 NA
ATOM      5  C   UNL     1       6.117  -5.320  -0.703  0.00  0.00    +0.085 C 
ATOM      6  C   UNL     1       7.591  -3.438  -0.271  0.00  0.00    +0.105 C 
ENDROOT
BRANCH   3   7
ATOM      7  C   UNL     1       4.593  -3.111   1.466  0.00  0.00    -0.012 A 
ATOM      8  C   UNL     1       3.895  -4.160   2.033  0.00  0.00    +0.115 A 
ATOM      9  N   UNL     1       3.361  -4.044   3.234  0.00  0.00    -0.263 NA
ATOM     10  C   UNL     1       3.469  -2.934   3.936  0.00  0.00    +0.111 A 
ATOM     11  C   UNL     1       4.154  -1.843   3.434  0.00  0.00    +0.020 A 
ATOM     12  C   UNL     1       4.733  -1.929   2.178  0.00  0.00    +0.008 A 
ENDBRANCH   3   7
TORSDOF 1
ENDMDL
MODEL 9
REMARK VINA RESULT:    -3.636      1.914      4.746
REMARK INTER + INTRA:          -4.064
REMARK INTER:                  -3.849
REMARK INTRA:                  -0.215
REMARK UNBOUND:                -0.216
REMARK  Name = Nicotine.pdb
REMARK  2 active torsions:
REMARK  status: ('A' for Active; 'I' for Inactive)
REMARK    1  A    between atoms: C_3  and  C_6
REMARK    2  A    between atoms: N_4  and  C_12
REMARK                            x       y       z     vdW  Elec       q    Type
REMARK                         _______ _______ _______ _____ _____    ______ ____
ROOT
ATOM      1  C   UNL     1       3.167  -2.508   5.634  0.00  0.00    +0.017 C 
ATOM      2  C   UNL     1       3.627  -1.467   4.579  0.00  0.00    +0.025 C 
ATOM      3  C   UNL     1       3.795  -2.319   3.303  0.00  0.00    +0.088 C 
ATOM      4  N   UNL     1       3.988  -3.716   3.731  0.00  0.00    -0.298 NA
ATOM      5  C   UNL     1       3.972  -3.761   5.209  0.00  0.00    +0.085 C 
ATOM      6  C   UNL     1       2.951  -4.589   3.166  0.00  0.00    +0.105 C 
ENDROOT
BRANCH   3   7
ATOM      7  C   UNL     1       4.998  -1.848   2.527  0.00  0.00    -0.012 A 
ATOM      8  C   UNL     1       6.012  -1.156   3.162  0.00  0.00    +0.115 A 
ATOM      9  N   UNL     1       7.068  -0.741   2.490  0.00  0.00    -0.263 NA
ATOM     10  C   UNL     1       7.200  -0.965   1.198  0.00  0.00    +0.111 A 
ATOM     11  C   UNL     1       6.227  -1.651   0.496  0.00  0.00    +0.020 A 
ATOM     12  C   UNL     1       5.104  -2.108   1.169  0.00  0.00    +0.008 A 
ENDBRANCH   3   7
TORSDOF 1
ENDMDL
MODEL 10
REMARK VINA RESULT:    -3.508      1.923      4.097
REMARK INTER + INTRA:          -3.929
REMARK INTER:                  -3.744
REMARK INTRA:                  -0.184
REMARK UNBOUND:                -0.216
REMARK  Name = Nicotine.pdb
REMARK  2 active torsions:
REMARK  status: ('A' for Active; 'I' for Inactive)
REMARK    1  A    between atoms: C_3  and  C_6
REMARK    2  A    between atoms: N_4  and  C_12
REMARK                            x       y       z     vdW  Elec       q    Type
REMARK                         _______ _______ _______ _____ _____    ______ ____
ROOT
ATOM      1  C   UNL     1       3.668  -2.276   4.770  0.00  0.00    +0.017 C 
ATOM      2  C   UNL     1       3.820  -3.581   3.943  0.00  0.00    +0.025 C 
ATOM      3  C   UNL     1       4.834  -3.182   2.850  0.00  0.00    +0.088 C 
ATOM      4  N   UNL     1       4.787  -1.715   2.724  0.00  0.00    -0.298 NA
ATOM      5  C   UNL     1       3.775  -1.193   3.668  0.00  0.00    +0.085 C 
ATOM      6  C   UNL     1       6.105  -1.121   2.983  0.00  0.00    +0.105 C 
ENDROOT
BRANCH   3   7
ATOM      7  C   UNL     1       4.454  -3.823   1.540  0.00  0.00    -0.012 A 
ATOM      8  C   UNL     1       3.719  -4.994   1.522  0.00  0.00    +0.115 A 
ATOM      9  N   UNL     1       3.383  -5.561   0.380  0.00  0.00    -0.263 NA
ATOM     10  C   UNL     1       3.730  -5.042  -0.781  0.00  0.00    +0.111 A 
ATOM     11  C   UNL     1       4.464  -3.872  -0.841  0.00  0.00    +0.020 A 
ATOM     12  C   UNL     1       4.832  -3.244   0.339  0.00  0.00    +0.008 A 
ENDBRANCH   3   7
TORSDOF 1
ENDMDL
