MODEL 1
REMARK VINA RESULT:    -6.501      0.000      0.000
REMARK INTER + INTRA:          -7.098
REMARK INTER:                  -6.881
REMARK INTRA:                  -0.216
REMARK UNBOUND:                -0.216
REMARK  Name = Nicotine.pdb
REMARK  2 active torsions:
REMARK  status: ('A' for Active; 'I' for Inactive)
REMARK    1  A    between atoms: C_3  and  C_6
REMARK    2  A    between atoms: N_4  and  C_12
REMARK                            x       y       z     vdW  Elec       q    Type
REMARK                         _______ _______ _______ _____ _____    ______ ____
ROOT
ATOM      1  C   UNL     1      -1.515  -1.854  -0.936  0.00  0.00    +0.017 C 
ATOM      2  C   UNL     1      -0.699  -0.584  -1.291  0.00  0.00    +0.025 C 
ATOM      3  C   UNL     1       0.327  -0.497  -0.141  0.00  0.00    +0.088 C 
ATOM      4  N   UNL     1      -0.227  -1.253   0.996  0.00  0.00    -0.298 NA
ATOM      5  C   UNL     1      -1.554  -1.779   0.611  0.00  0.00    +0.085 C 
ATOM      6  C   UNL     1       0.675  -2.341   1.396  0.00  0.00    +0.105 C 
ENDROOT
BRANCH   3   7
ATOM      7  C   UNL     1       0.536   0.942   0.251  0.00  0.00    -0.012 A 
ATOM      8  C   UNL     1       1.048   1.260   1.495  0.00  0.00    +0.115 A 
ATOM      9  N   UNL     1       1.235   2.518   1.847  0.00  0.00    -0.263 NA
ATOM     10  C   UNL     1       0.944   3.515   1.035  0.00  0.00    +0.111 A 
ATOM     11  C   UNL     1       0.429   3.274  -0.225  0.00  0.00    +0.020 A 
ATOM     12  C   UNL     1       0.224   1.965  -0.632  0.00  0.00    +0.008 A 
ENDBRANCH   3   7
TORSDOF 1
ENDMDL
MODEL 2
REMARK VINA RESULT:    -6.241      1.124      4.422
REMARK INTER + INTRA:          -6.823
REMARK INTER:                  -6.610
REMARK INTRA:                  -0.213
REMARK UNBOUND:                -0.216
REMARK  Name = Nicotine.pdb
REMARK  2 active torsions:
REMARK  status: ('A' for Active; 'I' for Inactive)
REMARK    1  A    between atoms: C_3  and  C_6
REMARK    2  A    between atoms: N_4  and  C_12
REMARK                            x       y       z     vdW  Elec       q    Type
REMARK                         _______ _______ _______ _____ _____    ______ ____
ROOT
ATOM      1  C   UNL     1       2.278   1.734   2.907  0.00  0.00    +0.017 C 
ATOM      2  C   UNL     1       2.126   0.529   1.943  0.00  0.00    +0.025 C 
ATOM      3  C   UNL     1       1.371   1.137   0.742  0.00  0.00    +0.088 C 
ATOM      4  N   UNL     1       0.676   2.343   1.229  0.00  0.00    -0.298 NA
ATOM      5  C   UNL     1       0.946   2.491   2.675  0.00  0.00    +0.085 C 
ATOM      6  C   UNL     1       1.108   3.535   0.487  0.00  0.00    +0.105 C 
ENDROOT
BRANCH   3   7
ATOM      7  C   UNL     1       0.368   0.146   0.211  0.00  0.00    -0.012 A 
ATOM      8  C   UNL     1      -0.263  -0.737   1.066  0.00  0.00    +0.115 A 
ATOM      9  N   UNL     1      -1.142  -1.608   0.609  0.00  0.00    -0.263 NA
ATOM     10  C   UNL     1      -1.452  -1.673  -0.670  0.00  0.00    +0.111 A 
ATOM     11  C   UNL     1      -0.861  -0.821  -1.586  0.00  0.00    +0.020 A 
ATOM     12  C   UNL     1       0.063   0.111  -1.141  0.00  0.00    +0.008 A 
ENDBRANCH   3   7
TORSDOF 1
ENDMDL
MODEL 3
REMARK VINA RESULT:    -6.148      1.326      4.608
REMARK INTER + INTRA:          -6.724
REMARK INTER:                  -6.471
REMARK INTRA:                  -0.254
REMARK UNBOUND:                -0.216
REMARK  Name = Nicotine.pdb
REMARK  2 active torsions:
REMARK  status: ('A' for Active; 'I' for Inactive)
REMARK    1  A    between atoms: C_3  and  C_6
REMARK    2  A    between atoms: N_4  and  C_12
REMARK                            x       y       z     vdW  Elec       q    Type
REMARK                         _______ _______ _______ _____ _____    ______ ____
ROOT
ATOM      1  C   UNL     1       2.283   1.748   2.862  0.00  0.00    +0.017 C 
ATOM      2  C   UNL     1       2.106   0.519   1.931  0.00  0.00    +0.025 C 
ATOM      3  C   UNL     1       1.348   1.106   0.722  0.00  0.00    +0.088 C 
ATOM      4  N   UNL     1       0.673   2.333   1.183  0.00  0.00    -0.298 NA
ATOM      5  C   UNL     1       0.959   2.515   2.622  0.00  0.00    +0.085 C 
ATOM      6  C   UNL     1       1.112   3.499   0.407  0.00  0.00    +0.105 C 
ENDROOT
BRANCH   3   7
ATOM      7  C   UNL     1       0.328   0.114   0.226  0.00  0.00    -0.012 A 
ATOM      8  C   UNL     1       0.026   0.037  -1.121  0.00  0.00    +0.115 A 
ATOM      9  N   UNL     1      -0.865  -0.829  -1.564  0.00  0.00    -0.263 NA
ATOM     10  C   UNL     1      -1.499  -1.649  -0.749  0.00  0.00    +0.111 A 
ATOM     11  C   UNL     1      -1.248  -1.630   0.610  0.00  0.00    +0.020 A 
ATOM     12  C   UNL     1      -0.314  -0.737   1.112  0.00  0.00    +0.008 A 
ENDBRANCH   3   7
TORSDOF 1
ENDMDL
MODEL 4
REMARK VINA RESULT:    -6.081      1.210      2.354
REMARK INTER + INTRA:          -6.653
REMARK INTER:                  -6.436
REMARK INTRA:                  -0.217
REMARK UNBOUND:                -0.216
REMARK  Name = Nicotine.pdb
REMARK  2 active torsions:
REMARK  status: ('A' for Active; 'I' for Inactive)
REMARK    1  A    between atoms: C_3  and  C_6
REMARK    2  A    between atoms: N_4  and  C_12
REMARK                            x       y       z     vdW  Elec       q    Type
REMARK                         _______ _______ _______ _____ _____    ______ ____
ROOT
ATOM      1  C   UNL     1       0.873  -2.420   1.337  0.00  0.00    +0.017 C 
ATOM      2  C   UNL     1       0.684  -0.999   1.929  0.00  0.00    +0.025 C 
ATOM      3  C   UNL     1      -0.238  -0.313   0.898  0.00  0.00    +0.088 C 
ATOM      4  N   UNL     1      -0.088  -1.041  -0.375  0.00  0.00    -0.298 NA
ATOM      5  C   UNL     1       0.900  -2.125  -0.184  0.00  0.00    +0.085 C 
ATOM      6  C   UNL     1      -1.377  -1.578  -0.830  0.00  0.00    +0.105 C 
ENDROOT
BRANCH   3   7
ATOM      7  C   UNL     1       0.173   1.125   0.719  0.00  0.00    -0.012 A 
ATOM      8  C   UNL     1       0.156   1.706  -0.535  0.00  0.00    +0.115 A 
ATOM      9  N   UNL     1       0.514   2.965  -0.700  0.00  0.00    -0.263 NA
ATOM     10  C   UNL     1       0.900   3.714   0.313  0.00  0.00    +0.111 A 
ATOM     11  C   UNL     1       0.943   3.202   1.596  0.00  0.00    +0.020 A 
ATOM     12  C   UNL     1       0.568   1.884   1.810  0.00  0.00    +0.008 A 
ENDBRANCH   3   7
TORSDOF 1
ENDMDL
MODEL 5
REMARK VINA RESULT:    -5.373      1.813      4.179
REMARK INTER + INTRA:          -5.904
REMARK INTER:                  -5.689
REMARK INTRA:                  -0.215
REMARK UNBOUND:                -0.216
REMARK  Name = Nicotine.pdb
REMARK  2 active torsions:
REMARK  status: ('A' for Active; 'I' for Inactive)
REMARK    1  A    between atoms: C_3  and  C_6
REMARK    2  A    between atoms: N_4  and  C_12
REMARK                            x       y       z     vdW  Elec       q    Type
REMARK                         _______ _______ _______ _____ _____    ______ ____
ROOT
ATOM      1  C   UNL     1       1.834   2.436   2.990  0.00  0.00    +0.017 C 
ATOM      2  C   UNL     1       0.569   2.141   2.142  0.00  0.00    +0.025 C 
ATOM      3  C   UNL     1       0.499   0.599   2.147  0.00  0.00    +0.088 C 
ATOM      4  N   UNL     1       1.855   0.102   2.439  0.00  0.00    -0.298 NA
ATOM      5  C   UNL     1       2.760   1.261   2.589  0.00  0.00    +0.085 C 
ATOM      6  C   UNL     1       1.862  -0.731   3.649  0.00  0.00    +0.105 C 
ENDROOT
BRANCH   3   7
ATOM      7  C   UNL     1       0.049   0.102   0.798  0.00  0.00    -0.012 A 
ATOM      8  C   UNL     1       0.291   0.849  -0.339  0.00  0.00    +0.115 A 
ATOM      9  N   UNL     1      -0.100   0.421  -1.524  0.00  0.00    -0.263 NA
ATOM     10  C   UNL     1      -0.732  -0.727  -1.672  0.00  0.00    +0.111 A 
ATOM     11  C   UNL     1      -1.008  -1.529  -0.580  0.00  0.00    +0.020 A 
ATOM     12  C   UNL     1      -0.608  -1.114   0.680  0.00  0.00    +0.008 A 
ENDBRANCH   3   7
TORSDOF 1
ENDMDL
MODEL 6
REMARK VINA RESULT:    -5.226      1.707      2.462
REMARK INTER + INTRA:          -5.748
REMARK INTER:                  -5.555
REMARK INTRA:                  -0.194
REMARK UNBOUND:                -0.216
REMARK  Name = Nicotine.pdb
REMARK  2 active torsions:
REMARK  status: ('A' for Active; 'I' for Inactive)
REMARK    1  A    between atoms: C_3  and  C_6
REMARK    2  A    between atoms: N_4  and  C_12
REMARK                            x       y       z     vdW  Elec       q    Type
REMARK                         _______ _______ _______ _____ _____    ______ ____
ROOT
ATOM      1  C   UNL     1      -1.253  -2.107  -0.028  0.00  0.00    +0.017 C 
ATOM      2  C   UNL     1      -1.154  -1.104   1.152  0.00  0.00    +0.025 C 
ATOM      3  C   UNL     1      -0.436   0.106   0.518  0.00  0.00    +0.088 C 
ATOM      4  N   UNL     1       0.293  -0.388  -0.664  0.00  0.00    -0.298 NA
ATOM      5  C   UNL     1       0.079  -1.846  -0.773  0.00  0.00    +0.085 C 
ATOM      6  C   UNL     1      -0.149   0.303  -1.882  0.00  0.00    +0.105 C 
ENDROOT
BRANCH   3   7
ATOM      7  C   UNL     1       0.531   0.703   1.507  0.00  0.00    -0.012 A 
ATOM      8  C   UNL     1       1.444  -0.100   2.164  0.00  0.00    +0.115 A 
ATOM      9  N   UNL     1       2.295   0.415   3.030  0.00  0.00    -0.263 NA
ATOM     10  C   UNL     1       2.310   1.704   3.305  0.00  0.00    +0.111 A 
ATOM     11  C   UNL     1       1.426   2.569   2.687  0.00  0.00    +0.020 A 
ATOM     12  C   UNL     1       0.521   2.066   1.766  0.00  0.00    +0.008 A 
ENDBRANCH   3   7
TORSDOF 1
ENDMDL
MODEL 7
REMARK VINA RESULT:    -4.779      1.647      2.067
REMARK INTER + INTRA:          -5.275
REMARK INTER:                  -5.063
REMARK INTRA:                  -0.212
REMARK UNBOUND:                -0.216
REMARK  Name = Nicotine.pdb
REMARK  2 active torsions:
REMARK  status: ('A' for Active; 'I' for Inactive)
REMARK    1  A    between atoms: C_3  and  C_6
REMARK    2  A    between atoms: N_4  and  C_12
REMARK                            x       y       z     vdW  Elec       q    Type
REMARK                         _______ _______ _______ _____ _____    ______ ____
ROOT
ATOM      1  C   UNL     1       1.015  -2.487   0.218  0.00  0.00    +0.017 C 
ATOM      2  C   UNL     1       1.469  -1.127  -0.375  0.00  0.00    +0.025 C 
ATOM      3  C   UNL     1       1.617  -0.235   0.876  0.00  0.00    +0.088 C 
ATOM      4  N   UNL     1       0.787  -0.831   1.939  0.00  0.00    -0.298 NA
ATOM      5  C   UNL     1       0.116  -2.031   1.394  0.00  0.00    +0.085 C 
ATOM      6  C   UNL     1       1.598  -1.169   3.115  0.00  0.00    +0.105 C 
ENDROOT
BRANCH   3   7
ATOM      7  C   UNL     1       1.137   1.160   0.571  0.00  0.00    -0.012 A 
ATOM      8  C   UNL     1       0.485   1.431  -0.617  0.00  0.00    +0.115 A 
ATOM      9  N   UNL     1       0.061   2.649  -0.892  0.00  0.00    -0.263 NA
ATOM     10  C   UNL     1       0.241   3.651  -0.054  0.00  0.00    +0.111 A 
ATOM     11  C   UNL     1       0.885   3.456   1.154  0.00  0.00    +0.020 A 
ATOM     12  C   UNL     1       1.339   2.187   1.480  0.00  0.00    +0.008 A 
ENDBRANCH   3   7
TORSDOF 1
ENDMDL
MODEL 8
REMARK VINA RESULT:    -4.495      1.204      4.332
REMARK INTER + INTRA:          -4.974
REMARK INTER:                  -4.756
REMARK INTRA:                  -0.218
REMARK UNBOUND:                -0.216
REMARK  Name = Nicotine.pdb
REMARK  2 active torsions:
REMARK  status: ('A' for Active; 'I' for Inactive)
REMARK    1  A    between atoms: C_3  and  C_6
REMARK    2  A    between atoms: N_4  and  C_12
REMARK                            x       y       z     vdW  Elec       q    Type
REMARK                         _______ _______ _______ _____ _____    ______ ____
ROOT
ATOM      1  C   UNL     1       0.962   3.638   0.212  0.00  0.00    +0.017 C 
ATOM      2  C   UNL     1      -0.022   2.473  -0.071  0.00  0.00    +0.025 C 
ATOM      3  C   UNL     1       0.176   1.547   1.148  0.00  0.00    +0.088 C 
ATOM      4  N   UNL     1       1.503   1.848   1.714  0.00  0.00    -0.298 NA
ATOM      5  C   UNL     1       2.141   2.895   0.887  0.00  0.00    +0.085 C 
ATOM      6  C   UNL     1       1.395   2.275   3.114  0.00  0.00    +0.105 C 
ENDROOT
BRANCH   3   7
ATOM      7  C   UNL     1       0.117   0.106   0.712  0.00  0.00    -0.012 A 
ATOM      8  C   UNL     1       0.617  -0.892   1.527  0.00  0.00    +0.115 A 
ATOM      9  N   UNL     1       0.570  -2.156   1.154  0.00  0.00    -0.263 NA
ATOM     10  C   UNL     1       0.049  -2.517  -0.002  0.00  0.00    +0.111 A 
ATOM     11  C   UNL     1      -0.472  -1.575  -0.870  0.00  0.00    +0.020 A 
ATOM     12  C   UNL     1      -0.444  -0.237  -0.508  0.00  0.00    +0.008 A 
ENDBRANCH   3   7
TORSDOF 1
ENDMDL
MODEL 9
REMARK VINA RESULT:    -4.135      1.959      2.840
REMARK INTER + INTRA:          -4.593
REMARK INTER:                  -4.393
REMARK INTRA:                  -0.200
REMARK UNBOUND:                -0.216
REMARK  Name = Nicotine.pdb
REMARK  2 active torsions:
REMARK  status: ('A' for Active; 'I' for Inactive)
REMARK    1  A    between atoms: C_3  and  C_6
REMARK    2  A    between atoms: N_4  and  C_12
REMARK                            x       y       z     vdW  Elec       q    Type
REMARK                         _______ _______ _______ _____ _____    ______ ____
ROOT
ATOM      1  C   UNL     1      -1.587  -1.588   0.635  0.00  0.00    +0.017 C 
ATOM      2  C   UNL     1      -0.761  -0.690   1.594  0.00  0.00    +0.025 C 
ATOM      3  C   UNL     1       0.114   0.137   0.627  0.00  0.00    +0.088 C 
ATOM      4  N   UNL     1       0.198  -0.616  -0.637  0.00  0.00    -0.298 NA
ATOM      5  C   UNL     1      -0.560  -1.876  -0.487  0.00  0.00    +0.085 C 
ATOM      6  C   UNL     1      -0.318   0.179  -1.759  0.00  0.00    +0.105 C 
ENDROOT
BRANCH   3   7
ATOM      7  C   UNL     1       1.491   0.319   1.210  0.00  0.00    -0.012 A 
ATOM      8  C   UNL     1       1.646   0.707   2.528  0.00  0.00    +0.115 A 
ATOM      9  N   UNL     1       2.848   0.869   3.046  0.00  0.00    -0.263 NA
ATOM     10  C   UNL     1       3.941   0.670   2.336  0.00  0.00    +0.111 A 
ATOM     11  C   UNL     1       3.864   0.280   1.012  0.00  0.00    +0.020 A 
ATOM     12  C   UNL     1       2.618   0.095   0.434  0.00  0.00    +0.008 A 
ENDBRANCH   3   7
TORSDOF 1
ENDMDL
