MODEL 1
REMARK VINA RESULT:     0.000      0.000      0.000
REMARK INTER + INTRA:          -0.256
REMARK INTER:                   0.000
REMARK INTRA:                  -0.256
REMARK UNBOUND:                -0.256
REMARK  Name = Nicotine.pdb
REMARK  2 active torsions:
REMARK  status: ('A' for Active; 'I' for Inactive)
REMARK    1  A    between atoms: C_3  and  C_6
REMARK    2  A    between atoms: N_4  and  C_12
REMARK                            x       y       z     vdW  Elec       q    Type
REMARK                         _______ _______ _______ _____ _____    ______ ____
ROOT
ATOM      1  C   UNL     1       5.734  -2.139   1.095  0.00  0.00    +0.017 C 
ATOM      2  C   UNL     1       4.795  -1.664  -0.045  0.00  0.00    +0.025 C 
ATOM      3  C   UNL     1       5.220  -2.551  -1.235  0.00  0.00    +0.088 C 
ATOM      4  N   UNL     1       6.591  -3.018  -0.965  0.00  0.00    -0.298 NA
ATOM      5  C   UNL     1       7.041  -2.441   0.320  0.00  0.00    +0.085 C 
ATOM      6  C   UNL     1       6.653  -4.485  -0.934  0.00  0.00    +0.105 C 
ENDROOT
BRANCH   3   7
ATOM      7  C   UNL     1       5.192  -1.747  -2.509  0.00  0.00    -0.012 A 
ATOM      8  C   UNL     1       5.096  -2.381  -3.734  0.00  0.00    +0.115 A 
ATOM      9  N   UNL     1       5.071  -1.685  -4.854  0.00  0.00    -0.263 NA
ATOM     10  C   UNL     1       5.135  -0.368  -4.852  0.00  0.00    +0.111 A 
ATOM     11  C   UNL     1       5.231   0.335  -3.666  0.00  0.00    +0.020 A 
ATOM     12  C   UNL     1       5.255  -0.363  -2.468  0.00  0.00    +0.008 A 
ENDBRANCH   3   7
TORSDOF 1
ENDMDL
MODEL 2
REMARK VINA RESULT:     0.000      6.955      8.263
REMARK INTER + INTRA:          -0.256
REMARK INTER:                   0.000
REMARK INTRA:                  -0.256
REMARK UNBOUND:                -0.256
REMARK  Name = Nicotine.pdb
REMARK  2 active torsions:
REMARK  status: ('A' for Active; 'I' for Inactive)
REMARK    1  A    between atoms: C_3  and  C_6
REMARK    2  A    between atoms: N_4  and  C_12
REMARK                            x       y       z     vdW  Elec       q    Type
REMARK                         _______ _______ _______ _____ _____    ______ ____
ROOT
ATOM      1  C   UNL     1       0.376   3.103   2.185  0.00  0.00    +0.017 C 
ATOM      2  C   UNL     1       1.335   4.247   2.606  0.00  0.00    +0.025 C 
ATOM      3  C   UNL     1       2.304   4.346   1.409  0.00  0.00    +0.088 C 
ATOM      4  N   UNL     1       2.263   3.052   0.705  0.00  0.00    -0.298 NA
ATOM      5  C   UNL     1       1.336   2.153   1.425  0.00  0.00    +0.085 C 
ATOM      6  C   UNL     1       1.849   3.225  -0.694  0.00  0.00    +0.105 C 
ENDROOT
BRANCH   3   7
ATOM      7  C   UNL     1       3.702   4.619   1.901  0.00  0.00    -0.012 A 
ATOM      8  C   UNL     1       4.644   5.176   1.057  0.00  0.00    +0.115 A 
ATOM      9  N   UNL     1       5.870   5.418   1.480  0.00  0.00    -0.263 NA
ATOM     10  C   UNL     1       6.244   5.141   2.714  0.00  0.00    +0.111 A 
ATOM     11  C   UNL     1       5.356   4.584   3.615  0.00  0.00    +0.020 A 
ATOM     12  C   UNL     1       4.058   4.320   3.207  0.00  0.00    +0.008 A 
ENDBRANCH   3   7
TORSDOF 1
ENDMDL
MODEL 3
REMARK VINA RESULT:     0.000      6.333      7.866
REMARK INTER + INTRA:          -0.256
REMARK INTER:                   0.000
REMARK INTRA:                  -0.256
REMARK UNBOUND:                -0.256
REMARK  Name = Nicotine.pdb
REMARK  2 active torsions:
REMARK  status: ('A' for Active; 'I' for Inactive)
REMARK    1  A    between atoms: C_3  and  C_6
REMARK    2  A    between atoms: N_4  and  C_12
REMARK                            x       y       z     vdW  Elec       q    Type
REMARK                         _______ _______ _______ _____ _____    ______ ____
ROOT
ATOM      1  C   UNL     1       2.110   0.917  -3.938  0.00  0.00    +0.017 C 
ATOM      2  C   UNL     1       0.576   0.981  -3.717  0.00  0.00    +0.025 C 
ATOM      3  C   UNL     1       0.400   2.265  -2.877  0.00  0.00    +0.088 C 
ATOM      4  N   UNL     1       1.691   2.537  -2.220  0.00  0.00    -0.298 NA
ATOM      5  C   UNL     1       2.644   1.470  -2.594  0.00  0.00    +0.085 C 
ATOM      6  C   UNL     1       2.206   3.860  -2.597  0.00  0.00    +0.105 C 
ENDROOT
BRANCH   3   7
ATOM      7  C   UNL     1      -0.672   2.056  -1.839  0.00  0.00    -0.012 A 
ATOM      8  C   UNL     1      -1.317   3.139  -1.273  0.00  0.00    +0.115 A 
ATOM      9  N   UNL     1      -2.256   2.964  -0.363  0.00  0.00    -0.263 NA
ATOM     10  C   UNL     1      -2.616   1.762   0.040  0.00  0.00    +0.111 A 
ATOM     11  C   UNL     1      -2.015   0.631  -0.482  0.00  0.00    +0.020 A 
ATOM     12  C   UNL     1      -1.027   0.775  -1.444  0.00  0.00    +0.008 A 
ENDBRANCH   3   7
TORSDOF 1
ENDMDL
MODEL 4
REMARK VINA RESULT:     0.000      2.295      2.926
REMARK INTER + INTRA:          -0.256
REMARK INTER:                   0.000
REMARK INTRA:                  -0.256
REMARK UNBOUND:                -0.256
REMARK  Name = Nicotine.pdb
REMARK  2 active torsions:
REMARK  status: ('A' for Active; 'I' for Inactive)
REMARK    1  A    between atoms: C_3  and  C_6
REMARK    2  A    between atoms: N_4  and  C_12
REMARK                            x       y       z     vdW  Elec       q    Type
REMARK                         _______ _______ _______ _____ _____    ______ ____
ROOT
ATOM      1  C   UNL     1       6.353  -0.160   1.003  0.00  0.00    +0.017 C 
ATOM      2  C   UNL     1       6.190  -1.492   0.225  0.00  0.00    +0.025 C 
ATOM      3  C   UNL     1       7.394  -1.480  -0.741  0.00  0.00    +0.088 C 
ATOM      4  N   UNL     1       7.813  -0.076  -0.898  0.00  0.00    -0.298 NA
ATOM      5  C   UNL     1       6.911   0.778  -0.097  0.00  0.00    +0.085 C 
ATOM      6  C   UNL     1       9.212   0.106  -0.489  0.00  0.00    +0.105 C 
ENDROOT
BRANCH   3   7
ATOM      7  C   UNL     1       6.986  -2.048  -2.075  0.00  0.00    -0.012 A 
ATOM      8  C   UNL     1       7.939  -2.547  -2.943  0.00  0.00    +0.115 A 
ATOM      9  N   UNL     1       7.590  -3.046  -4.113  0.00  0.00    -0.263 NA
ATOM     10  C   UNL     1       6.331  -3.088  -4.501  0.00  0.00    +0.111 A 
ATOM     11  C   UNL     1       5.323  -2.607  -3.686  0.00  0.00    +0.020 A 
ATOM     12  C   UNL     1       5.651  -2.081  -2.447  0.00  0.00    +0.008 A 
ENDBRANCH   3   7
TORSDOF 1
ENDMDL
MODEL 5
REMARK VINA RESULT:     0.000      4.945      5.894
REMARK INTER + INTRA:          -0.256
REMARK INTER:                   0.000
REMARK INTRA:                  -0.256
REMARK UNBOUND:                -0.256
REMARK  Name = Nicotine.pdb
REMARK  2 active torsions:
REMARK  status: ('A' for Active; 'I' for Inactive)
REMARK    1  A    between atoms: C_3  and  C_6
REMARK    2  A    between atoms: N_4  and  C_12
REMARK                            x       y       z     vdW  Elec       q    Type
REMARK                         _______ _______ _______ _____ _____    ______ ____
ROOT
ATOM      1  C   UNL     1       4.541  -0.441   3.199  0.00  0.00    +0.017 C 
ATOM      2  C   UNL     1       3.641  -0.831   1.998  0.00  0.00    +0.025 C 
ATOM      3  C   UNL     1       2.569  -1.733   2.646  0.00  0.00    +0.088 C 
ATOM      4  N   UNL     1       3.137  -2.255   3.901  0.00  0.00    -0.298 NA
ATOM      5  C   UNL     1       4.516  -1.739   4.044  0.00  0.00    +0.085 C 
ATOM      6  C   UNL     1       2.310  -1.874   5.053  0.00  0.00    +0.105 C 
ENDROOT
BRANCH   3   7
ATOM      7  C   UNL     1       2.231  -2.873   1.721  0.00  0.00    -0.012 A 
ATOM      8  C   UNL     1       1.031  -3.548   1.852  0.00  0.00    +0.115 A 
ATOM      9  N   UNL     1       0.728  -4.547   1.047  0.00  0.00    -0.263 NA
ATOM     10  C   UNL     1       1.547  -4.941   0.093  0.00  0.00    +0.111 A 
ATOM     11  C   UNL     1       2.765  -4.314  -0.099  0.00  0.00    +0.020 A 
ATOM     12  C   UNL     1       3.116  -3.256   0.725  0.00  0.00    +0.008 A 
ENDBRANCH   3   7
TORSDOF 1
ENDMDL
MODEL 6
REMARK VINA RESULT:     0.000      7.466      8.477
REMARK INTER + INTRA:          -0.256
REMARK INTER:                   0.000
REMARK INTRA:                  -0.256
REMARK UNBOUND:                -0.256
REMARK  Name = Nicotine.pdb
REMARK  2 active torsions:
REMARK  status: ('A' for Active; 'I' for Inactive)
REMARK    1  A    between atoms: C_3  and  C_6
REMARK    2  A    between atoms: N_4  and  C_12
REMARK                            x       y       z     vdW  Elec       q    Type
REMARK                         _______ _______ _______ _____ _____    ______ ____
ROOT
ATOM      1  C   UNL     1      -3.232  -1.900  -1.198  0.00  0.00    +0.017 C 
ATOM      2  C   UNL     1      -1.836  -1.252  -1.000  0.00  0.00    +0.025 C 
ATOM      3  C   UNL     1      -2.176   0.228  -0.724  0.00  0.00    +0.088 C 
ATOM      4  N   UNL     1      -3.515   0.480  -1.285  0.00  0.00    -0.298 NA
ATOM      5  C   UNL     1      -4.004  -0.765  -1.915  0.00  0.00    +0.085 C 
ATOM      6  C   UNL     1      -4.443   0.945  -0.246  0.00  0.00    +0.105 C 
ENDROOT
BRANCH   3   7
ATOM      7  C   UNL     1      -1.162   1.120  -1.392  0.00  0.00    -0.012 A 
ATOM      8  C   UNL     1      -0.977   2.418  -0.955  0.00  0.00    +0.115 A 
ATOM      9  N   UNL     1      -0.092   3.205  -1.534  0.00  0.00    -0.263 NA
ATOM     10  C   UNL     1       0.647   2.792  -2.545  0.00  0.00    +0.111 A 
ATOM     11  C   UNL     1       0.518   1.506  -3.037  0.00  0.00    +0.020 A 
ATOM     12  C   UNL     1      -0.399   0.648  -2.450  0.00  0.00    +0.008 A 
ENDBRANCH   3   7
TORSDOF 1
ENDMDL
MODEL 7
REMARK VINA RESULT:     0.000      4.086      6.754
REMARK INTER + INTRA:          -0.256
REMARK INTER:                   0.000
REMARK INTRA:                  -0.256
REMARK UNBOUND:                -0.256
REMARK  Name = Nicotine.pdb
REMARK  2 active torsions:
REMARK  status: ('A' for Active; 'I' for Inactive)
REMARK    1  A    between atoms: C_3  and  C_6
REMARK    2  A    between atoms: N_4  and  C_12
REMARK                            x       y       z     vdW  Elec       q    Type
REMARK                         _______ _______ _______ _____ _____    ______ ____
ROOT
ATOM      1  C   UNL     1       5.126   1.690   2.540  0.00  0.00    +0.017 C 
ATOM      2  C   UNL     1       6.210   0.741   3.115  0.00  0.00    +0.025 C 
ATOM      3  C   UNL     1       5.882  -0.609   2.441  0.00  0.00    +0.088 C 
ATOM      4  N   UNL     1       4.468  -0.559   2.028  0.00  0.00    -0.298 NA
ATOM      5  C   UNL     1       3.903   0.744   2.439  0.00  0.00    +0.085 C 
ATOM      6  C   UNL     1       4.334  -0.759   0.580  0.00  0.00    +0.105 C 
ENDROOT
BRANCH   3   7
ATOM      7  C   UNL     1       6.094  -1.735   3.419  0.00  0.00    -0.012 A 
ATOM      8  C   UNL     1       6.298  -3.025   2.966  0.00  0.00    +0.115 A 
ATOM      9  N   UNL     1       6.483  -4.017   3.815  0.00  0.00    -0.263 NA
ATOM     10  C   UNL     1       6.482  -3.822   5.119  0.00  0.00    +0.111 A 
ATOM     11  C   UNL     1       6.285  -2.559   5.646  0.00  0.00    +0.020 A 
ATOM     12  C   UNL     1       6.091  -1.491   4.783  0.00  0.00    +0.008 A 
ENDBRANCH   3   7
TORSDOF 1
ENDMDL
MODEL 8
REMARK VINA RESULT:     0.000      5.858      7.379
REMARK INTER + INTRA:          -0.256
REMARK INTER:                   0.000
REMARK INTRA:                  -0.256
REMARK UNBOUND:                -0.256
REMARK  Name = Nicotine.pdb
REMARK  2 active torsions:
REMARK  status: ('A' for Active; 'I' for Inactive)
REMARK    1  A    between atoms: C_3  and  C_6
REMARK    2  A    between atoms: N_4  and  C_12
REMARK                            x       y       z     vdW  Elec       q    Type
REMARK                         _______ _______ _______ _____ _____    ______ ____
ROOT
ATOM      1  C   UNL     1       2.296   0.908   0.482  0.00  0.00    +0.017 C 
ATOM      2  C   UNL     1       2.302   2.150   1.411  0.00  0.00    +0.025 C 
ATOM      3  C   UNL     1       3.412   3.034   0.802  0.00  0.00    +0.088 C 
ATOM      4  N   UNL     1       4.297   2.149   0.023  0.00  0.00    -0.298 NA
ATOM      5  C   UNL     1       3.801   0.761   0.145  0.00  0.00    +0.085 C 
ATOM      6  C   UNL     1       4.355   2.567  -1.383  0.00  0.00    +0.105 C 
ENDROOT
BRANCH   3   7
ATOM      7  C   UNL     1       4.194   3.705   1.901  0.00  0.00    -0.012 A 
ATOM      8  C   UNL     1       4.922   4.851   1.641  0.00  0.00    +0.115 A 
ATOM      9  N   UNL     1       5.610   5.445   2.597  0.00  0.00    -0.263 NA
ATOM     10  C   UNL     1       5.631   4.976   3.829  0.00  0.00    +0.111 A 
ATOM     11  C   UNL     1       4.925   3.835   4.164  0.00  0.00    +0.020 A 
ATOM     12  C   UNL     1       4.187   3.186   3.186  0.00  0.00    +0.008 A 
ENDBRANCH   3   7
TORSDOF 1
ENDMDL
MODEL 9
REMARK VINA RESULT:     0.000      4.515      6.151
REMARK INTER + INTRA:          -0.256
REMARK INTER:                   0.000
REMARK INTRA:                  -0.256
REMARK UNBOUND:                -0.256
REMARK  Name = Nicotine.pdb
REMARK  2 active torsions:
REMARK  status: ('A' for Active; 'I' for Inactive)
REMARK    1  A    between atoms: C_3  and  C_6
REMARK    2  A    between atoms: N_4  and  C_12
REMARK                            x       y       z     vdW  Elec       q    Type
REMARK                         _______ _______ _______ _____ _____    ______ ____
ROOT
ATOM      1  C   UNL     1       2.183  -2.915  -3.360  0.00  0.00    +0.017 C 
ATOM      2  C   UNL     1       2.065  -2.011  -2.104  0.00  0.00    +0.025 C 
ATOM      3  C   UNL     1       2.180  -3.017  -0.940  0.00  0.00    +0.088 C 
ATOM      4  N   UNL     1       1.808  -4.342  -1.468  0.00  0.00    -0.298 NA
ATOM      5  C   UNL     1       1.445  -4.195  -2.894  0.00  0.00    +0.085 C 
ATOM      6  C   UNL     1       2.904  -5.304  -1.300  0.00  0.00    +0.105 C 
ENDROOT
BRANCH   3   7
ATOM      7  C   UNL     1       1.241  -2.625   0.172  0.00  0.00    -0.012 A 
ATOM      8  C   UNL     1       1.457  -3.075   1.461  0.00  0.00    +0.115 A 
ATOM      9  N   UNL     1       0.641  -2.736   2.439  0.00  0.00    -0.263 NA
ATOM     10  C   UNL     1      -0.406  -1.962   2.232  0.00  0.00    +0.111 A 
ATOM     11  C   UNL     1      -0.685  -1.473   0.969  0.00  0.00    +0.020 A 
ATOM     12  C   UNL     1       0.154  -1.804  -0.084  0.00  0.00    +0.008 A 
ENDBRANCH   3   7
TORSDOF 1
ENDMDL
MODEL 10
REMARK VINA RESULT:     0.000      4.889      7.107
REMARK INTER + INTRA:          -0.256
REMARK INTER:                   0.000
REMARK INTRA:                  -0.256
REMARK UNBOUND:                -0.256
REMARK  Name = Nicotine.pdb
REMARK  2 active torsions:
REMARK  status: ('A' for Active; 'I' for Inactive)
REMARK    1  A    between atoms: C_3  and  C_6
REMARK    2  A    between atoms: N_4  and  C_12
REMARK                            x       y       z     vdW  Elec       q    Type
REMARK                         _______ _______ _______ _____ _____    ______ ____
ROOT
ATOM      1  C   UNL     1       4.450   3.527  -5.262  0.00  0.00    +0.017 C 
ATOM      2  C   UNL     1       5.108   4.067  -3.966  0.00  0.00    +0.025 C 
ATOM      3  C   UNL     1       4.564   3.117  -2.878  0.00  0.00    +0.088 C 
ATOM      4  N   UNL     1       3.320   2.523  -3.399  0.00  0.00    -0.298 NA
ATOM      5  C   UNL     1       3.060   3.080  -4.744  0.00  0.00    +0.085 C 
ATOM      6  C   UNL     1       3.415   1.058  -3.445  0.00  0.00    +0.105 C 
ENDROOT
BRANCH   3   7
ATOM      7  C   UNL     1       4.275   3.892  -1.618  0.00  0.00    -0.012 A 
ATOM      8  C   UNL     1       4.206   3.244  -0.399  0.00  0.00    +0.115 A 
ATOM      9  N   UNL     1       3.953   3.915   0.708  0.00  0.00    -0.263 NA
ATOM     10  C   UNL     1       3.757   5.219   0.699  0.00  0.00    +0.111 A 
ATOM     11  C   UNL     1       3.811   5.934  -0.483  0.00  0.00    +0.020 A 
ATOM     12  C   UNL     1       4.080   5.264  -1.666  0.00  0.00    +0.008 A 
ENDBRANCH   3   7
TORSDOF 1
ENDMDL
