MODEL 1
REMARK VINA RESULT:     0.000      0.000      0.000
REMARK INTER + INTRA:          -0.256
REMARK INTER:                   0.000
REMARK INTRA:                  -0.256
REMARK UNBOUND:                -0.256
REMARK  Name = Nicotine.pdb
REMARK  2 active torsions:
REMARK  status: ('A' for Active; 'I' for Inactive)
REMARK    1  A    between atoms: C_3  and  C_6
REMARK    2  A    between atoms: N_4  and  C_12
REMARK                            x       y       z     vdW  Elec       q    Type
REMARK                         _______ _______ _______ _____ _____    ______ ____
ROOT
ATOM      1  C   UNL     1      -1.184   2.063   5.679  0.00  0.00    +0.017 C 
ATOM      2  C   UNL     1      -0.654   2.913   4.495  0.00  0.00    +0.025 C 
ATOM      3  C   UNL     1       0.254   1.923   3.736  0.00  0.00    +0.088 C 
ATOM      4  N   UNL     1       0.647   0.871   4.690  0.00  0.00    -0.298 NA
ATOM      5  C   UNL     1       0.046   1.179   6.005  0.00  0.00    +0.085 C 
ATOM      6  C   UNL     1       0.227  -0.454   4.216  0.00  0.00    +0.105 C 
ENDROOT
BRANCH   3   7
ATOM      7  C   UNL     1       1.479   2.638   3.226  0.00  0.00    -0.012 A 
ATOM      8  C   UNL     1       2.207   2.114   2.175  0.00  0.00    +0.115 A 
ATOM      9  N   UNL     1       3.280   2.734   1.723  0.00  0.00    -0.263 NA
ATOM     10  C   UNL     1       3.699   3.867   2.249  0.00  0.00    +0.111 A 
ATOM     11  C   UNL     1       3.021   4.452   3.302  0.00  0.00    +0.020 A 
ATOM     12  C   UNL     1       1.886   3.832   3.801  0.00  0.00    +0.008 A 
ENDBRANCH   3   7
TORSDOF 1
ENDMDL
MODEL 2
REMARK VINA RESULT:     0.000      3.299      5.175
REMARK INTER + INTRA:          -0.256
REMARK INTER:                   0.000
REMARK INTRA:                  -0.256
REMARK UNBOUND:                -0.256
REMARK  Name = Nicotine.pdb
REMARK  2 active torsions:
REMARK  status: ('A' for Active; 'I' for Inactive)
REMARK    1  A    between atoms: C_3  and  C_6
REMARK    2  A    between atoms: N_4  and  C_12
REMARK                            x       y       z     vdW  Elec       q    Type
REMARK                         _______ _______ _______ _____ _____    ______ ____
ROOT
ATOM      1  C   UNL     1       3.408   2.055   1.837  0.00  0.00    +0.017 C 
ATOM      2  C   UNL     1       2.447   1.758   0.655  0.00  0.00    +0.025 C 
ATOM      3  C   UNL     1       1.124   1.401   1.365  0.00  0.00    +0.088 C 
ATOM      4  N   UNL     1       1.464   0.973   2.734  0.00  0.00    -0.298 NA
ATOM      5  C   UNL     1       2.933   1.025   2.892  0.00  0.00    +0.085 C 
ATOM      6  C   UNL     1       0.796   1.819   3.732  0.00  0.00    +0.105 C 
ENDROOT
BRANCH   3   7
ATOM      7  C   UNL     1       0.435   0.279   0.632  0.00  0.00    -0.012 A 
ATOM      8  C   UNL     1      -0.923   0.074   0.784  0.00  0.00    +0.115 A 
ATOM      9  N   UNL     1      -1.534  -0.905   0.146  0.00  0.00    -0.263 NA
ATOM     10  C   UNL     1      -0.881  -1.723  -0.656  0.00  0.00    +0.111 A 
ATOM     11  C   UNL     1       0.479  -1.579  -0.858  0.00  0.00    +0.020 A 
ATOM     12  C   UNL     1       1.154  -0.558  -0.208  0.00  0.00    +0.008 A 
ENDBRANCH   3   7
TORSDOF 1
ENDMDL
MODEL 3
REMARK VINA RESULT:     0.000      4.234      5.217
REMARK INTER + INTRA:          -0.256
REMARK INTER:                   0.000
REMARK INTRA:                  -0.256
REMARK UNBOUND:                -0.256
REMARK  Name = Nicotine.pdb
REMARK  2 active torsions:
REMARK  status: ('A' for Active; 'I' for Inactive)
REMARK    1  A    between atoms: C_3  and  C_6
REMARK    2  A    between atoms: N_4  and  C_12
REMARK                            x       y       z     vdW  Elec       q    Type
REMARK                         _______ _______ _______ _____ _____    ______ ____
ROOT
ATOM      1  C   UNL     1       4.749  -1.039   3.154  0.00  0.00    +0.017 C 
ATOM      2  C   UNL     1       5.714  -0.178   2.297  0.00  0.00    +0.025 C 
ATOM      3  C   UNL     1       6.117   0.957   3.263  0.00  0.00    +0.088 C 
ATOM      4  N   UNL     1       5.066   1.049   4.292  0.00  0.00    -0.298 NA
ATOM      5  C   UNL     1       4.023   0.044   3.991  0.00  0.00    +0.085 C 
ATOM      6  C   UNL     1       5.623   0.845   5.635  0.00  0.00    +0.105 C 
ENDROOT
BRANCH   3   7
ATOM      7  C   UNL     1       6.217   2.259   2.512  0.00  0.00    -0.012 A 
ATOM      8  C   UNL     1       6.964   3.304   3.020  0.00  0.00    +0.115 A 
ATOM      9  N   UNL     1       7.057   4.447   2.369  0.00  0.00    -0.263 NA
ATOM     10  C   UNL     1       6.447   4.639   1.216  0.00  0.00    +0.111 A 
ATOM     11  C   UNL     1       5.682   3.639   0.645  0.00  0.00    +0.020 A 
ATOM     12  C   UNL     1       5.566   2.422   1.298  0.00  0.00    +0.008 A 
ENDBRANCH   3   7
TORSDOF 1
ENDMDL
MODEL 4
REMARK VINA RESULT:     0.000      7.758      8.995
REMARK INTER + INTRA:          -0.256
REMARK INTER:                   0.000
REMARK INTRA:                  -0.256
REMARK UNBOUND:                -0.256
REMARK  Name = Nicotine.pdb
REMARK  2 active torsions:
REMARK  status: ('A' for Active; 'I' for Inactive)
REMARK    1  A    between atoms: C_3  and  C_6
REMARK    2  A    between atoms: N_4  and  C_12
REMARK                            x       y       z     vdW  Elec       q    Type
REMARK                         _______ _______ _______ _____ _____    ______ ____
ROOT
ATOM      1  C   UNL     1      -2.228   6.294  -2.298  0.00  0.00    +0.017 C 
ATOM      2  C   UNL     1      -2.213   4.895  -1.628  0.00  0.00    +0.025 C 
ATOM      3  C   UNL     1      -2.418   3.937  -2.820  0.00  0.00    +0.088 C 
ATOM      4  N   UNL     1      -3.056   4.712  -3.899  0.00  0.00    -0.298 NA
ATOM      5  C   UNL     1      -3.277   6.093  -3.420  0.00  0.00    +0.085 C 
ATOM      6  C   UNL     1      -2.232   4.702  -5.115  0.00  0.00    +0.105 C 
ENDROOT
BRANCH   3   7
ATOM      7  C   UNL     1      -3.311   2.794  -2.412  0.00  0.00    -0.012 A 
ATOM      8  C   UNL     1      -3.295   1.607  -3.120  0.00  0.00    +0.115 A 
ATOM      9  N   UNL     1      -4.073   0.601  -2.769  0.00  0.00    -0.263 NA
ATOM     10  C   UNL     1      -4.890   0.685  -1.739  0.00  0.00    +0.111 A 
ATOM     11  C   UNL     1      -4.960   1.840  -0.982  0.00  0.00    +0.020 A 
ATOM     12  C   UNL     1      -4.154   2.916  -1.318  0.00  0.00    +0.008 A 
ENDBRANCH   3   7
TORSDOF 1
ENDMDL
MODEL 5
REMARK VINA RESULT:     0.000      5.039      6.605
REMARK INTER + INTRA:          -0.256
REMARK INTER:                   0.000
REMARK INTRA:                  -0.256
REMARK UNBOUND:                -0.256
REMARK  Name = Nicotine.pdb
REMARK  2 active torsions:
REMARK  status: ('A' for Active; 'I' for Inactive)
REMARK    1  A    between atoms: C_3  and  C_6
REMARK    2  A    between atoms: N_4  and  C_12
REMARK                            x       y       z     vdW  Elec       q    Type
REMARK                         _______ _______ _______ _____ _____    ______ ____
ROOT
ATOM      1  C   UNL     1       6.461   4.112   4.475  0.00  0.00    +0.017 C 
ATOM      2  C   UNL     1       7.277   4.021   3.159  0.00  0.00    +0.025 C 
ATOM      3  C   UNL     1       6.598   5.073   2.256  0.00  0.00    +0.088 C 
ATOM      4  N   UNL     1       5.235   5.281   2.777  0.00  0.00    -0.298 NA
ATOM      5  C   UNL     1       5.034   4.390   3.939  0.00  0.00    +0.085 C 
ATOM      6  C   UNL     1       5.020   6.686   3.146  0.00  0.00    +0.105 C 
ENDROOT
BRANCH   3   7
ATOM      7  C   UNL     1       6.536   4.568   0.838  0.00  0.00    -0.012 A 
ATOM      8  C   UNL     1       6.390   5.454  -0.213  0.00  0.00    +0.115 A 
ATOM      9  N   UNL     1       6.335   5.020  -1.458  0.00  0.00    -0.263 NA
ATOM     10  C   UNL     1       6.414   3.737  -1.748  0.00  0.00    +0.111 A 
ATOM     11  C   UNL     1       6.561   2.792  -0.749  0.00  0.00    +0.020 A 
ATOM     12  C   UNL     1       6.628   3.211   0.571  0.00  0.00    +0.008 A 
ENDBRANCH   3   7
TORSDOF 1
ENDMDL
MODEL 6
REMARK VINA RESULT:     0.000      8.377     10.292
REMARK INTER + INTRA:          -0.256
REMARK INTER:                   0.000
REMARK INTRA:                  -0.256
REMARK UNBOUND:                -0.256
REMARK  Name = Nicotine.pdb
REMARK  2 active torsions:
REMARK  status: ('A' for Active; 'I' for Inactive)
REMARK    1  A    between atoms: C_3  and  C_6
REMARK    2  A    between atoms: N_4  and  C_12
REMARK                            x       y       z     vdW  Elec       q    Type
REMARK                         _______ _______ _______ _____ _____    ______ ____
ROOT
ATOM      1  C   UNL     1       1.597  -0.974  -4.429  0.00  0.00    +0.017 C 
ATOM      2  C   UNL     1       0.633  -2.030  -5.032  0.00  0.00    +0.025 C 
ATOM      3  C   UNL     1      -0.666  -1.814  -4.227  0.00  0.00    +0.088 C 
ATOM      4  N   UNL     1      -0.293  -1.156  -2.962  0.00  0.00    -0.298 NA
ATOM      5  C   UNL     1       1.175  -0.981  -2.938  0.00  0.00    +0.085 C 
ATOM      6  C   UNL     1      -0.980   0.134  -2.815  0.00  0.00    +0.105 C 
ENDROOT
BRANCH   3   7
ATOM      7  C   UNL     1      -1.321  -3.141  -3.943  0.00  0.00    -0.012 A 
ATOM      8  C   UNL     1      -2.668  -3.206  -3.642  0.00  0.00    +0.115 A 
ATOM      9  N   UNL     1      -3.248  -4.363  -3.392  0.00  0.00    -0.263 NA
ATOM     10  C   UNL     1      -2.575  -5.496  -3.418  0.00  0.00    +0.111 A 
ATOM     11  C   UNL     1      -1.224  -5.510  -3.711  0.00  0.00    +0.020 A 
ATOM     12  C   UNL     1      -0.581  -4.313  -3.985  0.00  0.00    +0.008 A 
ENDBRANCH   3   7
TORSDOF 1
ENDMDL
MODEL 7
REMARK VINA RESULT:     0.000      5.406      7.604
REMARK INTER + INTRA:          -0.256
REMARK INTER:                   0.000
REMARK INTRA:                  -0.256
REMARK UNBOUND:                -0.256
REMARK  Name = Nicotine.pdb
REMARK  2 active torsions:
REMARK  status: ('A' for Active; 'I' for Inactive)
REMARK    1  A    between atoms: C_3  and  C_6
REMARK    2  A    between atoms: N_4  and  C_12
REMARK                            x       y       z     vdW  Elec       q    Type
REMARK                         _______ _______ _______ _____ _____    ______ ____
ROOT
ATOM      1  C   UNL     1       3.420   0.494  -1.855  0.00  0.00    +0.017 C 
ATOM      2  C   UNL     1       2.349  -0.338  -2.608  0.00  0.00    +0.025 C 
ATOM      3  C   UNL     1       1.049  -0.002  -1.847  0.00  0.00    +0.088 C 
ATOM      4  N   UNL     1       1.438   0.466  -0.504  0.00  0.00    -0.298 NA
ATOM      5  C   UNL     1       2.911   0.409  -0.394  0.00  0.00    +0.085 C 
ATOM      6  C   UNL     1       0.942   1.826  -0.256  0.00  0.00    +0.105 C 
ENDROOT
BRANCH   3   7
ATOM      7  C   UNL     1       0.188  -1.233  -1.734  0.00  0.00    -0.012 A 
ATOM      8  C   UNL     1      -1.170  -1.118  -1.504  0.00  0.00    +0.115 A 
ATOM      9  N   UNL     1      -1.931  -2.191  -1.403  0.00  0.00    -0.263 NA
ATOM     10  C   UNL     1      -1.433  -3.406  -1.516  0.00  0.00    +0.111 A 
ATOM     11  C   UNL     1      -0.084  -3.600  -1.746  0.00  0.00    +0.020 A 
ATOM     12  C   UNL     1       0.746  -2.496  -1.863  0.00  0.00    +0.008 A 
ENDBRANCH   3   7
TORSDOF 1
ENDMDL
MODEL 8
REMARK VINA RESULT:     0.000      7.447      8.713
REMARK INTER + INTRA:          -0.256
REMARK INTER:                   0.000
REMARK INTRA:                  -0.256
REMARK UNBOUND:                -0.256
REMARK  Name = Nicotine.pdb
REMARK  2 active torsions:
REMARK  status: ('A' for Active; 'I' for Inactive)
REMARK    1  A    between atoms: C_3  and  C_6
REMARK    2  A    between atoms: N_4  and  C_12
REMARK                            x       y       z     vdW  Elec       q    Type
REMARK                         _______ _______ _______ _____ _____    ______ ____
ROOT
ATOM      1  C   UNL     1       2.815  -2.664  -1.919  0.00  0.00    +0.017 C 
ATOM      2  C   UNL     1       3.884  -2.268  -2.970  0.00  0.00    +0.025 C 
ATOM      3  C   UNL     1       5.197  -2.778  -2.339  0.00  0.00    +0.088 C 
ATOM      4  N   UNL     1       4.968  -2.893  -0.887  0.00  0.00    -0.298 NA
ATOM      5  C   UNL     1       3.587  -2.455  -0.592  0.00  0.00    +0.085 C 
ATOM      6  C   UNL     1       5.195  -4.269  -0.425  0.00  0.00    +0.105 C 
ENDROOT
BRANCH   3   7
ATOM      7  C   UNL     1       6.310  -1.798  -2.608  0.00  0.00    -0.012 A 
ATOM      8  C   UNL     1       7.629  -2.205  -2.546  0.00  0.00    +0.115 A 
ATOM      9  N   UNL     1       8.609  -1.353  -2.780  0.00  0.00    -0.263 NA
ATOM     10  C   UNL     1       8.374  -0.091  -3.079  0.00  0.00    +0.111 A 
ATOM     11  C   UNL     1       7.079   0.387  -3.160  0.00  0.00    +0.020 A 
ATOM     12  C   UNL     1       6.023  -0.480  -2.926  0.00  0.00    +0.008 A 
ENDBRANCH   3   7
TORSDOF 1
ENDMDL
MODEL 9
REMARK VINA RESULT:     0.000      4.510      5.362
REMARK INTER + INTRA:          -0.256
REMARK INTER:                   0.000
REMARK INTRA:                  -0.256
REMARK UNBOUND:                -0.256
REMARK  Name = Nicotine.pdb
REMARK  2 active torsions:
REMARK  status: ('A' for Active; 'I' for Inactive)
REMARK    1  A    between atoms: C_3  and  C_6
REMARK    2  A    between atoms: N_4  and  C_12
REMARK                            x       y       z     vdW  Elec       q    Type
REMARK                         _______ _______ _______ _____ _____    ______ ____
ROOT
ATOM      1  C   UNL     1       3.630  -2.163   2.955  0.00  0.00    +0.017 C 
ATOM      2  C   UNL     1       4.814  -1.184   2.740  0.00  0.00    +0.025 C 
ATOM      3  C   UNL     1       5.452  -1.097   4.143  0.00  0.00    +0.088 C 
ATOM      4  N   UNL     1       4.418  -1.489   5.117  0.00  0.00    -0.298 NA
ATOM      5  C   UNL     1       3.169  -1.787   4.385  0.00  0.00    +0.085 C 
ATOM      6  C   UNL     1       4.853  -2.645   5.911  0.00  0.00    +0.105 C 
ENDROOT
BRANCH   3   7
ATOM      7  C   UNL     1       5.905   0.314   4.413  0.00  0.00    -0.012 A 
ATOM      8  C   UNL     1       6.871   0.567   5.369  0.00  0.00    +0.115 A 
ATOM      9  N   UNL     1       7.274   1.799   5.612  0.00  0.00    -0.263 NA
ATOM     10  C   UNL     1       6.777   2.831   4.960  0.00  0.00    +0.111 A 
ATOM     11  C   UNL     1       5.808   2.656   3.989  0.00  0.00    +0.020 A 
ATOM     12  C   UNL     1       5.364   1.374   3.703  0.00  0.00    +0.008 A 
ENDBRANCH   3   7
TORSDOF 1
ENDMDL
MODEL 10
REMARK VINA RESULT:     0.000      5.459      7.227
REMARK INTER + INTRA:          -0.256
REMARK INTER:                   0.000
REMARK INTRA:                  -0.256
REMARK UNBOUND:                -0.256
REMARK  Name = Nicotine.pdb
REMARK  2 active torsions:
REMARK  status: ('A' for Active; 'I' for Inactive)
REMARK    1  A    between atoms: C_3  and  C_6
REMARK    2  A    between atoms: N_4  and  C_12
REMARK                            x       y       z     vdW  Elec       q    Type
REMARK                         _______ _______ _______ _____ _____    ______ ____
ROOT
ATOM      1  C   UNL     1       2.533   0.863   0.774  0.00  0.00    +0.017 C 
ATOM      2  C   UNL     1       3.887   0.113   0.672  0.00  0.00    +0.025 C 
ATOM      3  C   UNL     1       3.929  -0.330  -0.805  0.00  0.00    +0.088 C 
ATOM      4  N   UNL     1       2.539  -0.353  -1.294  0.00  0.00    -0.298 NA
ATOM      5  C   UNL     1       1.642   0.030  -0.183  0.00  0.00    +0.085 C 
ATOM      6  C   UNL     1       2.369   0.547  -2.442  0.00  0.00    +0.105 C 
ENDROOT
BRANCH   3   7
ATOM      7  C   UNL     1       4.534  -1.706  -0.910  0.00  0.00    -0.012 A 
ATOM      8  C   UNL     1       5.080  -2.141  -2.104  0.00  0.00    +0.115 A 
ATOM      9  N   UNL     1       5.611  -3.344  -2.204  0.00  0.00    -0.263 NA
ATOM     10  C   UNL     1       5.643  -4.175  -1.181  0.00  0.00    +0.111 A 
ATOM     11  C   UNL     1       5.117  -3.810   0.044  0.00  0.00    +0.020 A 
ATOM     12  C   UNL     1       4.555  -2.551   0.189  0.00  0.00    +0.008 A 
ENDBRANCH   3   7
TORSDOF 1
ENDMDL
