MODEL 1
REMARK VINA RESULT:    -5.746      0.000      0.000
REMARK INTER + INTRA:          -6.299
REMARK INTER:                  -6.082
REMARK INTRA:                  -0.217
REMARK UNBOUND:                -0.217
REMARK  Name = Nicotine.pdb
REMARK  2 active torsions:
REMARK  status: ('A' for Active; 'I' for Inactive)
REMARK    1  A    between atoms: C_3  and  C_6
REMARK    2  A    between atoms: N_4  and  C_12
REMARK                            x       y       z     vdW  Elec       q    Type
REMARK                         _______ _______ _______ _____ _____    ______ ____
ROOT
ATOM      1  C   UNL     1       3.840   0.989  -1.903  0.00  0.00    +0.017 C 
ATOM      2  C   UNL     1       4.271  -0.187  -0.988  0.00  0.00    +0.025 C 
ATOM      3  C   UNL     1       2.975  -0.524  -0.221  0.00  0.00    +0.088 C 
ATOM      4  N   UNL     1       2.120   0.676  -0.261  0.00  0.00    -0.298 NA
ATOM      5  C   UNL     1       2.837   1.742  -0.993  0.00  0.00    +0.085 C 
ATOM      6  C   UNL     1       0.827   0.382  -0.892  0.00  0.00    +0.105 C 
ENDROOT
BRANCH   3   7
ATOM      7  C   UNL     1       3.301  -0.875   1.208  0.00  0.00    -0.012 A 
ATOM      8  C   UNL     1       2.485  -0.446   2.237  0.00  0.00    +0.115 A 
ATOM      9  N   UNL     1       2.763  -0.749   3.490  0.00  0.00    -0.263 NA
ATOM     10  C   UNL     1       3.821  -1.467   3.811  0.00  0.00    +0.111 A 
ATOM     11  C   UNL     1       4.683  -1.932   2.835  0.00  0.00    +0.020 A 
ATOM     12  C   UNL     1       4.420  -1.637   1.506  0.00  0.00    +0.008 A 
ENDBRANCH   3   7
TORSDOF 1
ENDMDL
MODEL 2
REMARK VINA RESULT:    -5.719      1.235      4.450
REMARK INTER + INTRA:          -6.270
REMARK INTER:                  -6.055
REMARK INTRA:                  -0.215
REMARK UNBOUND:                -0.217
REMARK  Name = Nicotine.pdb
REMARK  2 active torsions:
REMARK  status: ('A' for Active; 'I' for Inactive)
REMARK    1  A    between atoms: C_3  and  C_6
REMARK    2  A    between atoms: N_4  and  C_12
REMARK                            x       y       z     vdW  Elec       q    Type
REMARK                         _______ _______ _______ _____ _____    ______ ____
ROOT
ATOM      1  C   UNL     1       3.909  -2.768   3.987  0.00  0.00    +0.017 C 
ATOM      2  C   UNL     1       4.577  -2.208   2.704  0.00  0.00    +0.025 C 
ATOM      3  C   UNL     1       4.117  -0.735   2.688  0.00  0.00    +0.088 C 
ATOM      4  N   UNL     1       2.892  -0.650   3.503  0.00  0.00    -0.298 NA
ATOM      5  C   UNL     1       2.561  -2.004   3.998  0.00  0.00    +0.085 C 
ATOM      6  C   UNL     1       3.064   0.291   4.617  0.00  0.00    +0.105 C 
ENDROOT
BRANCH   3   7
ATOM      7  C   UNL     1       3.825  -0.304   1.274  0.00  0.00    -0.012 A 
ATOM      8  C   UNL     1       2.852   0.644   1.019  0.00  0.00    +0.115 A 
ATOM      9  N   UNL     1       2.590   1.027  -0.215  0.00  0.00    -0.263 NA
ATOM     10  C   UNL     1       3.238   0.527  -1.248  0.00  0.00    +0.111 A 
ATOM     11  C   UNL     1       4.225  -0.425  -1.071  0.00  0.00    +0.020 A 
ATOM     12  C   UNL     1       4.532  -0.848   0.213  0.00  0.00    +0.008 A 
ENDBRANCH   3   7
TORSDOF 1
ENDMDL
MODEL 3
REMARK VINA RESULT:    -5.685      1.284      4.366
REMARK INTER + INTRA:          -6.234
REMARK INTER:                  -6.041
REMARK INTRA:                  -0.193
REMARK UNBOUND:                -0.217
REMARK  Name = Nicotine.pdb
REMARK  2 active torsions:
REMARK  status: ('A' for Active; 'I' for Inactive)
REMARK    1  A    between atoms: C_3  and  C_6
REMARK    2  A    between atoms: N_4  and  C_12
REMARK                            x       y       z     vdW  Elec       q    Type
REMARK                         _______ _______ _______ _____ _____    ______ ____
ROOT
ATOM      1  C   UNL     1       4.578  -2.060   1.954  0.00  0.00    +0.017 C 
ATOM      2  C   UNL     1       4.335  -1.211   0.679  0.00  0.00    +0.025 C 
ATOM      3  C   UNL     1       3.770   0.110   1.243  0.00  0.00    +0.088 C 
ATOM      4  N   UNL     1       3.216  -0.186   2.576  0.00  0.00    -0.298 NA
ATOM      5  C   UNL     1       3.389  -1.629   2.848  0.00  0.00    +0.085 C 
ATOM      6  C   UNL     1       3.867   0.627   3.610  0.00  0.00    +0.105 C 
ENDROOT
BRANCH   3   7
ATOM      7  C   UNL     1       2.684   0.631   0.338  0.00  0.00    -0.012 A 
ATOM      8  C   UNL     1       1.354   0.430   0.655  0.00  0.00    +0.115 A 
ATOM      9  N   UNL     1       0.397   0.883  -0.131  0.00  0.00    -0.263 NA
ATOM     10  C   UNL     1       0.666   1.539  -1.242  0.00  0.00    +0.111 A 
ATOM     11  C   UNL     1       1.973   1.779  -1.624  0.00  0.00    +0.020 A 
ATOM     12  C   UNL     1       3.005   1.323  -0.820  0.00  0.00    +0.008 A 
ENDBRANCH   3   7
TORSDOF 1
ENDMDL
MODEL 4
REMARK VINA RESULT:    -5.561      1.446      4.722
REMARK INTER + INTRA:          -6.103
REMARK INTER:                  -5.915
REMARK INTRA:                  -0.189
REMARK UNBOUND:                -0.217
REMARK  Name = Nicotine.pdb
REMARK  2 active torsions:
REMARK  status: ('A' for Active; 'I' for Inactive)
REMARK    1  A    between atoms: C_3  and  C_6
REMARK    2  A    between atoms: N_4  and  C_12
REMARK                            x       y       z     vdW  Elec       q    Type
REMARK                         _______ _______ _______ _____ _____    ______ ____
ROOT
ATOM      1  C   UNL     1       3.650  -2.771   4.498  0.00  0.00    +0.017 C 
ATOM      2  C   UNL     1       4.421  -2.311   3.232  0.00  0.00    +0.025 C 
ATOM      3  C   UNL     1       3.988  -0.838   3.079  0.00  0.00    +0.088 C 
ATOM      4  N   UNL     1       2.708  -0.681   3.792  0.00  0.00    -0.298 NA
ATOM      5  C   UNL     1       2.319  -1.992   4.354  0.00  0.00    +0.085 C 
ATOM      6  C   UNL     1       2.812   0.335   4.847  0.00  0.00    +0.105 C 
ENDROOT
BRANCH   3   7
ATOM      7  C   UNL     1       3.809  -0.505   1.620  0.00  0.00    -0.012 A 
ATOM      8  C   UNL     1       4.635  -1.070   0.668  0.00  0.00    +0.115 A 
ATOM      9  N   UNL     1       4.485  -0.785  -0.611  0.00  0.00    -0.263 NA
ATOM     10  C   UNL     1       3.549   0.044  -1.031  0.00  0.00    +0.111 A 
ATOM     11  C   UNL     1       2.685   0.647  -0.136  0.00  0.00    +0.020 A 
ATOM     12  C   UNL     1       2.809   0.367   1.216  0.00  0.00    +0.008 A 
ENDBRANCH   3   7
TORSDOF 1
ENDMDL
MODEL 5
REMARK VINA RESULT:    -5.539      1.297      2.048
REMARK INTER + INTRA:          -6.080
REMARK INTER:                  -5.872
REMARK INTRA:                  -0.208
REMARK UNBOUND:                -0.217
REMARK  Name = Nicotine.pdb
REMARK  2 active torsions:
REMARK  status: ('A' for Active; 'I' for Inactive)
REMARK    1  A    between atoms: C_3  and  C_6
REMARK    2  A    between atoms: N_4  and  C_12
REMARK                            x       y       z     vdW  Elec       q    Type
REMARK                         _______ _______ _______ _____ _____    ______ ____
ROOT
ATOM      1  C   UNL     1       2.023   1.046  -0.434  0.00  0.00    +0.017 C 
ATOM      2  C   UNL     1       2.391   0.947   1.070  0.00  0.00    +0.025 C 
ATOM      3  C   UNL     1       3.547  -0.076   1.078  0.00  0.00    +0.088 C 
ATOM      4  N   UNL     1       3.431  -0.876  -0.155  0.00  0.00    -0.298 NA
ATOM      5  C   UNL     1       2.246  -0.412  -0.908  0.00  0.00    +0.085 C 
ATOM      6  C   UNL     1       4.648  -0.769  -0.969  0.00  0.00    +0.105 C 
ENDROOT
BRANCH   3   7
ATOM      7  C   UNL     1       3.431  -0.971   2.284  0.00  0.00    -0.012 A 
ATOM      8  C   UNL     1       2.343  -0.866   3.131  0.00  0.00    +0.115 A 
ATOM      9  N   UNL     1       2.234  -1.646   4.189  0.00  0.00    -0.263 NA
ATOM     10  C   UNL     1       3.149  -2.549   4.482  0.00  0.00    +0.111 A 
ATOM     11  C   UNL     1       4.264  -2.713   3.681  0.00  0.00    +0.020 A 
ATOM     12  C   UNL     1       4.410  -1.914   2.557  0.00  0.00    +0.008 A 
ENDBRANCH   3   7
TORSDOF 1
ENDMDL
MODEL 6
REMARK VINA RESULT:    -5.517      1.457      2.459
REMARK INTER + INTRA:          -6.056
REMARK INTER:                  -5.816
REMARK INTRA:                  -0.240
REMARK UNBOUND:                -0.217
REMARK  Name = Nicotine.pdb
REMARK  2 active torsions:
REMARK  status: ('A' for Active; 'I' for Inactive)
REMARK    1  A    between atoms: C_3  and  C_6
REMARK    2  A    between atoms: N_4  and  C_12
REMARK                            x       y       z     vdW  Elec       q    Type
REMARK                         _______ _______ _______ _____ _____    ______ ____
ROOT
ATOM      1  C   UNL     1       2.040   1.014  -0.442  0.00  0.00    +0.017 C 
ATOM      2  C   UNL     1       2.409   0.909   1.061  0.00  0.00    +0.025 C 
ATOM      3  C   UNL     1       3.594  -0.080   1.060  0.00  0.00    +0.088 C 
ATOM      4  N   UNL     1       3.502  -0.869  -0.182  0.00  0.00    -0.298 NA
ATOM      5  C   UNL     1       2.305  -0.432  -0.931  0.00  0.00    +0.085 C 
ATOM      6  C   UNL     1       4.716  -0.718  -0.994  0.00  0.00    +0.105 C 
ENDROOT
BRANCH   3   7
ATOM      7  C   UNL     1       3.502  -0.991   2.256  0.00  0.00    -0.012 A 
ATOM      8  C   UNL     1       4.460  -1.965   2.468  0.00  0.00    +0.115 A 
ATOM      9  N   UNL     1       4.387  -2.767   3.512  0.00  0.00    -0.263 NA
ATOM     10  C   UNL     1       3.409  -2.674   4.391  0.00  0.00    +0.111 A 
ATOM     11  C   UNL     1       2.415  -1.723   4.245  0.00  0.00    +0.020 A 
ATOM     12  C   UNL     1       2.461  -0.860   3.162  0.00  0.00    +0.008 A 
ENDBRANCH   3   7
TORSDOF 1
ENDMDL
MODEL 7
REMARK VINA RESULT:    -5.315      1.354      4.712
REMARK INTER + INTRA:          -5.843
REMARK INTER:                  -5.616
REMARK INTRA:                  -0.227
REMARK UNBOUND:                -0.217
REMARK  Name = Nicotine.pdb
REMARK  2 active torsions:
REMARK  status: ('A' for Active; 'I' for Inactive)
REMARK    1  A    between atoms: C_3  and  C_6
REMARK    2  A    between atoms: N_4  and  C_12
REMARK                            x       y       z     vdW  Elec       q    Type
REMARK                         _______ _______ _______ _____ _____    ______ ____
ROOT
ATOM      1  C   UNL     1       2.674  -0.574   4.333  0.00  0.00    +0.017 C 
ATOM      2  C   UNL     1       2.072  -0.360   2.919  0.00  0.00    +0.025 C 
ATOM      3  C   UNL     1       3.050  -1.131   2.006  0.00  0.00    +0.088 C 
ATOM      4  N   UNL     1       4.329  -1.242   2.731  0.00  0.00    -0.298 NA
ATOM      5  C   UNL     1       4.193  -0.556   4.033  0.00  0.00    +0.085 C 
ATOM      6  C   UNL     1       4.711  -2.648   2.913  0.00  0.00    +0.105 C 
ENDROOT
BRANCH   3   7
ATOM      7  C   UNL     1       3.253  -0.375   0.719  0.00  0.00    -0.012 A 
ATOM      8  C   UNL     1       4.244  -0.754  -0.166  0.00  0.00    +0.115 A 
ATOM      9  N   UNL     1       4.428  -0.098  -1.295  0.00  0.00    -0.263 NA
ATOM     10  C   UNL     1       3.682   0.937  -1.625  0.00  0.00    +0.111 A 
ATOM     11  C   UNL     1       2.670   1.375  -0.790  0.00  0.00    +0.020 A 
ATOM     12  C   UNL     1       2.444   0.706   0.403  0.00  0.00    +0.008 A 
ENDBRANCH   3   7
TORSDOF 1
ENDMDL
MODEL 8
REMARK VINA RESULT:    -3.734      3.288      5.512
REMARK INTER + INTRA:          -4.170
REMARK INTER:                  -3.958
REMARK INTRA:                  -0.211
REMARK UNBOUND:                -0.217
REMARK  Name = Nicotine.pdb
REMARK  2 active torsions:
REMARK  status: ('A' for Active; 'I' for Inactive)
REMARK    1  A    between atoms: C_3  and  C_6
REMARK    2  A    between atoms: N_4  and  C_12
REMARK                            x       y       z     vdW  Elec       q    Type
REMARK                         _______ _______ _______ _____ _____    ______ ____
ROOT
ATOM      1  C   UNL     1       4.461  -0.430   5.049  0.00  0.00    +0.017 C 
ATOM      2  C   UNL     1       4.303  -1.948   5.330  0.00  0.00    +0.025 C 
ATOM      3  C   UNL     1       3.169  -2.362   4.368  0.00  0.00    +0.088 C 
ATOM      4  N   UNL     1       2.403  -1.145   4.045  0.00  0.00    -0.298 NA
ATOM      5  C   UNL     1       2.995  -0.007   4.780  0.00  0.00    +0.085 C 
ATOM      6  C   UNL     1       2.400  -0.893   2.598  0.00  0.00    +0.105 C 
ENDROOT
BRANCH   3   7
ATOM      7  C   UNL     1       2.272  -3.371   5.038  0.00  0.00    -0.012 A 
ATOM      8  C   UNL     1       2.727  -4.650   5.293  0.00  0.00    +0.115 A 
ATOM      9  N   UNL     1       1.948  -5.539   5.879  0.00  0.00    -0.263 NA
ATOM     10  C   UNL     1       0.715  -5.248   6.242  0.00  0.00    +0.111 A 
ATOM     11  C   UNL     1       0.191  -3.988   6.020  0.00  0.00    +0.020 A 
ATOM     12  C   UNL     1       0.982  -3.026   5.411  0.00  0.00    +0.008 A 
ENDBRANCH   3   7
TORSDOF 1
ENDMDL
