MODEL 1
REMARK VINA RESULT:     0.000      0.000      0.000
REMARK INTER + INTRA:          -0.256
REMARK INTER:                   0.000
REMARK INTRA:                  -0.256
REMARK UNBOUND:                -0.256
REMARK  Name = Nicotine.pdb
REMARK  2 active torsions:
REMARK  status: ('A' for Active; 'I' for Inactive)
REMARK    1  A    between atoms: C_3  and  C_6
REMARK    2  A    between atoms: N_4  and  C_12
REMARK                            x       y       z     vdW  Elec       q    Type
REMARK                         _______ _______ _______ _____ _____    ______ ____
ROOT
ATOM      1  C   UNL     1       8.525  -4.479  -0.420  0.00  0.00    +0.017 C 
ATOM      2  C   UNL     1       7.292  -3.778  -1.050  0.00  0.00    +0.025 C 
ATOM      3  C   UNL     1       6.145  -4.168  -0.094  0.00  0.00    +0.088 C 
ATOM      4  N   UNL     1       6.562  -5.394   0.611  0.00  0.00    -0.298 NA
ATOM      5  C   UNL     1       7.898  -5.790   0.117  0.00  0.00    +0.085 C 
ATOM      6  C   UNL     1       6.577  -5.186   2.065  0.00  0.00    +0.105 C 
ENDROOT
BRANCH   3   7
ATOM      7  C   UNL     1       4.888  -4.431  -0.883  0.00  0.00    -0.012 A 
ATOM      8  C   UNL     1       3.651  -4.364  -0.270  0.00  0.00    +0.115 A 
ATOM      9  N   UNL     1       2.547  -4.593  -0.953  0.00  0.00    -0.263 NA
ATOM     10  C   UNL     1       2.575  -4.892  -2.236  0.00  0.00    +0.111 A 
ATOM     11  C   UNL     1       3.775  -4.977  -2.917  0.00  0.00    +0.020 A 
ATOM     12  C   UNL     1       4.957  -4.738  -2.233  0.00  0.00    +0.008 A 
ENDBRANCH   3   7
TORSDOF 1
ENDMDL
MODEL 2
REMARK VINA RESULT:     0.000      8.079      9.472
REMARK INTER + INTRA:          -0.256
REMARK INTER:                   0.000
REMARK INTRA:                  -0.256
REMARK UNBOUND:                -0.256
REMARK  Name = Nicotine.pdb
REMARK  2 active torsions:
REMARK  status: ('A' for Active; 'I' for Inactive)
REMARK    1  A    between atoms: C_3  and  C_6
REMARK    2  A    between atoms: N_4  and  C_12
REMARK                            x       y       z     vdW  Elec       q    Type
REMARK                         _______ _______ _______ _____ _____    ______ ____
ROOT
ATOM      1  C   UNL     1       5.851   0.181  -4.597  0.00  0.00    +0.017 C 
ATOM      2  C   UNL     1       6.366   1.041  -3.412  0.00  0.00    +0.025 C 
ATOM      3  C   UNL     1       5.802   2.442  -3.729  0.00  0.00    +0.088 C 
ATOM      4  N   UNL     1       5.529   2.487  -5.176  0.00  0.00    -0.298 NA
ATOM      5  C   UNL     1       5.921   1.191  -5.770  0.00  0.00    +0.085 C 
ATOM      6  C   UNL     1       4.113   2.778  -5.437  0.00  0.00    +0.105 C 
ENDROOT
BRANCH   3   7
ATOM      7  C   UNL     1       6.813   3.497  -3.363  0.00  0.00    -0.012 A 
ATOM      8  C   UNL     1       6.413   4.800  -3.133  0.00  0.00    +0.115 A 
ATOM      9  N   UNL     1       7.292   5.729  -2.813  0.00  0.00    -0.263 NA
ATOM     10  C   UNL     1       8.578   5.458  -2.701  0.00  0.00    +0.111 A 
ATOM     11  C   UNL     1       9.052   4.177  -2.915  0.00  0.00    +0.020 A 
ATOM     12  C   UNL     1       8.157   3.173  -3.248  0.00  0.00    +0.008 A 
ENDBRANCH   3   7
TORSDOF 1
ENDMDL
MODEL 3
REMARK VINA RESULT:     0.000      6.960      8.258
REMARK INTER + INTRA:          -0.256
REMARK INTER:                   0.000
REMARK INTRA:                  -0.256
REMARK UNBOUND:                -0.256
REMARK  Name = Nicotine.pdb
REMARK  2 active torsions:
REMARK  status: ('A' for Active; 'I' for Inactive)
REMARK    1  A    between atoms: C_3  and  C_6
REMARK    2  A    between atoms: N_4  and  C_12
REMARK                            x       y       z     vdW  Elec       q    Type
REMARK                         _______ _______ _______ _____ _____    ______ ____
ROOT
ATOM      1  C   UNL     1       8.264   5.212   0.004  0.00  0.00    +0.017 C 
ATOM      2  C   UNL     1       7.577   3.982  -0.644  0.00  0.00    +0.025 C 
ATOM      3  C   UNL     1       8.302   2.791   0.019  0.00  0.00    +0.088 C 
ATOM      4  N   UNL     1       9.603   3.286   0.504  0.00  0.00    -0.298 NA
ATOM      5  C   UNL     1       9.725   4.716   0.149  0.00  0.00    +0.085 C 
ATOM      6  C   UNL     1       9.735   3.089   1.953  0.00  0.00    +0.105 C 
ENDROOT
BRANCH   3   7
ATOM      7  C   UNL     1       8.513   1.693  -0.991  0.00  0.00    -0.012 A 
ATOM      8  C   UNL     1       8.726   0.392  -0.575  0.00  0.00    +0.115 A 
ATOM      9  N   UNL     1       8.912  -0.575  -1.452  0.00  0.00    -0.263 NA
ATOM     10  C   UNL     1       8.903  -0.344  -2.750  0.00  0.00    +0.111 A 
ATOM     11  C   UNL     1       8.696   0.932  -3.241  0.00  0.00    +0.020 A 
ATOM     12  C   UNL     1       8.492   1.973  -2.348  0.00  0.00    +0.008 A 
ENDBRANCH   3   7
TORSDOF 1
ENDMDL
MODEL 4
REMARK VINA RESULT:     0.000      4.489      5.827
REMARK INTER + INTRA:          -0.256
REMARK INTER:                   0.000
REMARK INTRA:                  -0.256
REMARK UNBOUND:                -0.256
REMARK  Name = Nicotine.pdb
REMARK  2 active torsions:
REMARK  status: ('A' for Active; 'I' for Inactive)
REMARK    1  A    between atoms: C_3  and  C_6
REMARK    2  A    between atoms: N_4  and  C_12
REMARK                            x       y       z     vdW  Elec       q    Type
REMARK                         _______ _______ _______ _____ _____    ______ ____
ROOT
ATOM      1  C   UNL     1       1.485  -3.735   0.890  0.00  0.00    +0.017 C 
ATOM      2  C   UNL     1       2.650  -3.043   0.134  0.00  0.00    +0.025 C 
ATOM      3  C   UNL     1       2.248  -1.553   0.168  0.00  0.00    +0.088 C 
ATOM      4  N   UNL     1       0.790  -1.498   0.376  0.00  0.00    -0.298 NA
ATOM      5  C   UNL     1       0.272  -2.881   0.445  0.00  0.00    +0.085 C 
ATOM      6  C   UNL     1       0.459  -0.749   1.595  0.00  0.00    +0.105 C 
ENDROOT
BRANCH   3   7
ATOM      7  C   UNL     1       2.607  -0.895  -1.139  0.00  0.00    -0.012 A 
ATOM      8  C   UNL     1       2.762   0.476  -1.212  0.00  0.00    +0.115 A 
ATOM      9  N   UNL     1       3.075   1.060  -2.352  0.00  0.00    -0.263 NA
ATOM     10  C   UNL     1       3.253   0.367  -3.460  0.00  0.00    +0.111 A 
ATOM     11  C   UNL     1       3.115  -1.009  -3.464  0.00  0.00    +0.020 A 
ATOM     12  C   UNL     1       2.791  -1.658  -2.282  0.00  0.00    +0.008 A 
ENDBRANCH   3   7
TORSDOF 1
ENDMDL
MODEL 5
REMARK VINA RESULT:     0.000      8.482      9.292
REMARK INTER + INTRA:          -0.256
REMARK INTER:                   0.000
REMARK INTRA:                  -0.256
REMARK UNBOUND:                -0.256
REMARK  Name = Nicotine.pdb
REMARK  2 active torsions:
REMARK  status: ('A' for Active; 'I' for Inactive)
REMARK    1  A    between atoms: C_3  and  C_6
REMARK    2  A    between atoms: N_4  and  C_12
REMARK                            x       y       z     vdW  Elec       q    Type
REMARK                         _______ _______ _______ _____ _____    ______ ____
ROOT
ATOM      1  C   UNL     1       5.328   4.827  -3.558  0.00  0.00    +0.017 C 
ATOM      2  C   UNL     1       4.574   3.499  -3.284  0.00  0.00    +0.025 C 
ATOM      3  C   UNL     1       4.445   2.877  -4.691  0.00  0.00    +0.088 C 
ATOM      4  N   UNL     1       4.567   3.974  -5.667  0.00  0.00    -0.298 NA
ATOM      5  C   UNL     1       4.739   5.244  -4.929  0.00  0.00    +0.085 C 
ATOM      6  C   UNL     1       5.689   3.741  -6.585  0.00  0.00    +0.105 C 
ENDROOT
BRANCH   3   7
ATOM      7  C   UNL     1       3.102   2.208  -4.834  0.00  0.00    -0.012 A 
ATOM      8  C   UNL     1       2.907   1.229  -5.790  0.00  0.00    +0.115 A 
ATOM      9  N   UNL     1       1.735   0.639  -5.922  0.00  0.00    -0.263 NA
ATOM     10  C   UNL     1       0.710   0.955  -5.156  0.00  0.00    +0.111 A 
ATOM     11  C   UNL     1       0.830   1.924  -4.178  0.00  0.00    +0.020 A 
ATOM     12  C   UNL     1       2.048   2.563  -4.006  0.00  0.00    +0.008 A 
ENDBRANCH   3   7
TORSDOF 1
ENDMDL
MODEL 6
REMARK VINA RESULT:     0.000      8.728      9.514
REMARK INTER + INTRA:          -0.256
REMARK INTER:                   0.000
REMARK INTRA:                  -0.256
REMARK UNBOUND:                -0.256
REMARK  Name = Nicotine.pdb
REMARK  2 active torsions:
REMARK  status: ('A' for Active; 'I' for Inactive)
REMARK    1  A    between atoms: C_3  and  C_6
REMARK    2  A    between atoms: N_4  and  C_12
REMARK                            x       y       z     vdW  Elec       q    Type
REMARK                         _______ _______ _______ _____ _____    ______ ____
ROOT
ATOM      1  C   UNL     1       1.019   3.223  -0.906  0.00  0.00    +0.017 C 
ATOM      2  C   UNL     1       0.275   2.028  -0.254  0.00  0.00    +0.025 C 
ATOM      3  C   UNL     1      -0.255   1.242  -1.472  0.00  0.00    +0.088 C 
ATOM      4  N   UNL     1      -0.317   2.183  -2.605  0.00  0.00    -0.298 NA
ATOM      5  C   UNL     1       0.124   3.514  -2.137  0.00  0.00    +0.085 C 
ATOM      6  C   UNL     1       0.511   1.716  -3.724  0.00  0.00    +0.105 C 
ENDROOT
BRANCH   3   7
ATOM      7  C   UNL     1      -1.630   0.703  -1.175  0.00  0.00    -0.012 A 
ATOM      8  C   UNL     1      -2.131  -0.368  -1.891  0.00  0.00    +0.115 A 
ATOM      9  N   UNL     1      -3.333  -0.846  -1.638  0.00  0.00    -0.263 NA
ATOM     10  C   UNL     1      -4.102  -0.328  -0.701  0.00  0.00    +0.111 A 
ATOM     11  C   UNL     1      -3.669   0.745   0.057  0.00  0.00    +0.020 A 
ATOM     12  C   UNL     1      -2.408   1.271  -0.178  0.00  0.00    +0.008 A 
ENDBRANCH   3   7
TORSDOF 1
ENDMDL
MODEL 7
REMARK VINA RESULT:     0.000      4.593      7.056
REMARK INTER + INTRA:          -0.256
REMARK INTER:                   0.000
REMARK INTRA:                  -0.256
REMARK UNBOUND:                -0.256
REMARK  Name = Nicotine.pdb
REMARK  2 active torsions:
REMARK  status: ('A' for Active; 'I' for Inactive)
REMARK    1  A    between atoms: C_3  and  C_6
REMARK    2  A    between atoms: N_4  and  C_12
REMARK                            x       y       z     vdW  Elec       q    Type
REMARK                         _______ _______ _______ _____ _____    ______ ____
ROOT
ATOM      1  C   UNL     1      -0.243   0.141  -3.715  0.00  0.00    +0.017 C 
ATOM      2  C   UNL     1       0.999   0.778  -3.037  0.00  0.00    +0.025 C 
ATOM      3  C   UNL     1       2.030  -0.370  -3.050  0.00  0.00    +0.088 C 
ATOM      4  N   UNL     1       1.277  -1.632  -3.165  0.00  0.00    -0.298 NA
ATOM      5  C   UNL     1      -0.168  -1.317  -3.197  0.00  0.00    +0.085 C 
ATOM      6  C   UNL     1       1.680  -2.380  -4.363  0.00  0.00    +0.105 C 
ENDROOT
BRANCH   3   7
ATOM      7  C   UNL     1       2.825  -0.360  -1.771  0.00  0.00    -0.012 A 
ATOM      8  C   UNL     1       4.062  -0.973  -1.712  0.00  0.00    +0.115 A 
ATOM      9  N   UNL     1       4.765  -0.969  -0.596  0.00  0.00    -0.263 NA
ATOM     10  C   UNL     1       4.321  -0.386   0.501  0.00  0.00    +0.111 A 
ATOM     11  C   UNL     1       3.092   0.247   0.517  0.00  0.00    +0.020 A 
ATOM     12  C   UNL     1       2.328   0.268  -0.639  0.00  0.00    +0.008 A 
ENDBRANCH   3   7
TORSDOF 1
ENDMDL
MODEL 8
REMARK VINA RESULT:     0.000      4.455      5.702
REMARK INTER + INTRA:          -0.256
REMARK INTER:                   0.000
REMARK INTRA:                  -0.256
REMARK UNBOUND:                -0.256
REMARK  Name = Nicotine.pdb
REMARK  2 active torsions:
REMARK  status: ('A' for Active; 'I' for Inactive)
REMARK    1  A    between atoms: C_3  and  C_6
REMARK    2  A    between atoms: N_4  and  C_12
REMARK                            x       y       z     vdW  Elec       q    Type
REMARK                         _______ _______ _______ _____ _____    ______ ____
ROOT
ATOM      1  C   UNL     1       3.928  -0.037  -1.886  0.00  0.00    +0.017 C 
ATOM      2  C   UNL     1       3.158  -0.611  -0.668  0.00  0.00    +0.025 C 
ATOM      3  C   UNL     1       3.936  -0.039   0.536  0.00  0.00    +0.088 C 
ATOM      4  N   UNL     1       5.290   0.299   0.060  0.00  0.00    -0.298 NA
ATOM      5  C   UNL     1       5.389  -0.060  -1.371  0.00  0.00    +0.085 C 
ATOM      6  C   UNL     1       5.581   1.724   0.268  0.00  0.00    +0.105 C 
ENDROOT
BRANCH   3   7
ATOM      7  C   UNL     1       4.019  -1.072   1.630  0.00  0.00    -0.012 A 
ATOM      8  C   UNL     1       4.261  -0.689   2.936  0.00  0.00    +0.115 A 
ATOM      9  N   UNL     1       4.335  -1.586   3.899  0.00  0.00    -0.263 NA
ATOM     10  C   UNL     1       4.184  -2.874   3.660  0.00  0.00    +0.111 A 
ATOM     11  C   UNL     1       3.939  -3.332   2.379  0.00  0.00    +0.020 A 
ATOM     12  C   UNL     1       3.849  -2.417   1.341  0.00  0.00    +0.008 A 
ENDBRANCH   3   7
TORSDOF 1
ENDMDL
MODEL 9
REMARK VINA RESULT:     0.000      4.460      5.355
REMARK INTER + INTRA:          -0.256
REMARK INTER:                   0.000
REMARK INTRA:                  -0.256
REMARK UNBOUND:                -0.256
REMARK  Name = Nicotine.pdb
REMARK  2 active torsions:
REMARK  status: ('A' for Active; 'I' for Inactive)
REMARK    1  A    between atoms: C_3  and  C_6
REMARK    2  A    between atoms: N_4  and  C_12
REMARK                            x       y       z     vdW  Elec       q    Type
REMARK                         _______ _______ _______ _____ _____    ______ ____
ROOT
ATOM      1  C   UNL     1       9.765  -2.700  -4.862  0.00  0.00    +0.017 C 
ATOM      2  C   UNL     1       9.298  -1.624  -3.847  0.00  0.00    +0.025 C 
ATOM      3  C   UNL     1       7.956  -2.190  -3.335  0.00  0.00    +0.088 C 
ATOM      4  N   UNL     1       7.461  -3.130  -4.356  0.00  0.00    -0.298 NA
ATOM      5  C   UNL     1       8.419  -3.151  -5.481  0.00  0.00    +0.085 C 
ATOM      6  C   UNL     1       7.281  -4.474  -3.791  0.00  0.00    +0.105 C 
ENDROOT
BRANCH   3   7
ATOM      7  C   UNL     1       6.967  -1.070  -3.144  0.00  0.00    -0.012 A 
ATOM      8  C   UNL     1       5.881  -1.232  -2.305  0.00  0.00    +0.115 A 
ATOM      9  N   UNL     1       5.010  -0.256  -2.132  0.00  0.00    -0.263 NA
ATOM     10  C   UNL     1       5.138   0.903  -2.747  0.00  0.00    +0.111 A 
ATOM     11  C   UNL     1       6.199   1.139  -3.601  0.00  0.00    +0.020 A 
ATOM     12  C   UNL     1       7.137   0.138  -3.803  0.00  0.00    +0.008 A 
ENDBRANCH   3   7
TORSDOF 1
ENDMDL
MODEL 10
REMARK VINA RESULT:     0.000      8.212      8.894
REMARK INTER + INTRA:          -0.256
REMARK INTER:                   0.000
REMARK INTRA:                  -0.256
REMARK UNBOUND:                -0.256
REMARK  Name = Nicotine.pdb
REMARK  2 active torsions:
REMARK  status: ('A' for Active; 'I' for Inactive)
REMARK    1  A    between atoms: C_3  and  C_6
REMARK    2  A    between atoms: N_4  and  C_12
REMARK                            x       y       z     vdW  Elec       q    Type
REMARK                         _______ _______ _______ _____ _____    ______ ____
ROOT
ATOM      1  C   UNL     1       4.140   0.613  -2.816  0.00  0.00    +0.017 C 
ATOM      2  C   UNL     1       4.542   2.110  -2.758  0.00  0.00    +0.025 C 
ATOM      3  C   UNL     1       3.913   2.587  -1.432  0.00  0.00    +0.088 C 
ATOM      4  N   UNL     1       2.819   1.655  -1.107  0.00  0.00    -0.298 NA
ATOM      5  C   UNL     1       2.727   0.643  -2.181  0.00  0.00    +0.085 C 
ATOM      6  C   UNL     1       3.038   1.019   0.199  0.00  0.00    +0.105 C 
ENDROOT
BRANCH   3   7
ATOM      7  C   UNL     1       3.368   3.982  -1.595  0.00  0.00    -0.012 A 
ATOM      8  C   UNL     1       3.163   4.786  -0.490  0.00  0.00    +0.115 A 
ATOM      9  N   UNL     1       2.686   6.009  -0.624  0.00  0.00    -0.263 NA
ATOM     10  C   UNL     1       2.388   6.511  -1.806  0.00  0.00    +0.111 A 
ATOM     11  C   UNL     1       2.568   5.766  -2.957  0.00  0.00    +0.020 A 
ATOM     12  C   UNL     1       3.072   4.478  -2.856  0.00  0.00    +0.008 A 
ENDBRANCH   3   7
TORSDOF 1
ENDMDL
