MODEL 1
REMARK VINA RESULT:    -4.377      0.000      0.000
REMARK INTER + INTRA:          -4.852
REMARK INTER:                  -4.633
REMARK INTRA:                  -0.220
REMARK UNBOUND:                -0.220
REMARK  Name = Nicotine.pdb
REMARK  2 active torsions:
REMARK  status: ('A' for Active; 'I' for Inactive)
REMARK    1  A    between atoms: C_3  and  C_6
REMARK    2  A    between atoms: N_4  and  C_12
REMARK                            x       y       z     vdW  Elec       q    Type
REMARK                         _______ _______ _______ _____ _____    ______ ____
ROOT
ATOM      1  C   UNL     1       7.125  -6.097  -5.787  0.00  0.00    +0.017 C 
ATOM      2  C   UNL     1       7.148  -4.709  -6.479  0.00  0.00    +0.025 C 
ATOM      3  C   UNL     1       7.690  -3.778  -5.373  0.00  0.00    +0.088 C 
ATOM      4  N   UNL     1       7.432  -4.438  -4.081  0.00  0.00    -0.298 NA
ATOM      5  C   UNL     1       6.735  -5.717  -4.336  0.00  0.00    +0.085 C 
ATOM      6  C   UNL     1       8.683  -4.658  -3.342  0.00  0.00    +0.105 C 
ENDROOT
BRANCH   3   7
ATOM      7  C   UNL     1       6.978  -2.452  -5.424  0.00  0.00    -0.012 A 
ATOM      8  C   UNL     1       6.199  -2.035  -4.361  0.00  0.00    +0.115 A 
ATOM      9  N   UNL     1       5.572  -0.875  -4.397  0.00  0.00    -0.263 NA
ATOM     10  C   UNL     1       5.660  -0.073  -5.439  0.00  0.00    +0.111 A 
ATOM     11  C   UNL     1       6.420  -0.422  -6.540  0.00  0.00    +0.020 A 
ATOM     12  C   UNL     1       7.098  -1.631  -6.535  0.00  0.00    +0.008 A 
ENDBRANCH   3   7
TORSDOF 1
ENDMDL
MODEL 2
REMARK VINA RESULT:    -4.033      1.492      4.452
REMARK INTER + INTRA:          -4.489
REMARK INTER:                  -4.281
REMARK INTRA:                  -0.208
REMARK UNBOUND:                -0.220
REMARK  Name = Nicotine.pdb
REMARK  2 active torsions:
REMARK  status: ('A' for Active; 'I' for Inactive)
REMARK    1  A    between atoms: C_3  and  C_6
REMARK    2  A    between atoms: N_4  and  C_12
REMARK                            x       y       z     vdW  Elec       q    Type
REMARK                         _______ _______ _______ _____ _____    ______ ____
ROOT
ATOM      1  C   UNL     1       5.911   0.396  -5.382  0.00  0.00    +0.017 C 
ATOM      2  C   UNL     1       5.390  -1.058  -5.531  0.00  0.00    +0.025 C 
ATOM      3  C   UNL     1       6.210  -1.830  -4.476  0.00  0.00    +0.088 C 
ATOM      4  N   UNL     1       7.428  -1.044  -4.208  0.00  0.00    -0.298 NA
ATOM      5  C   UNL     1       7.409   0.161  -5.064  0.00  0.00    +0.085 C 
ATOM      6  C   UNL     1       7.518  -0.680  -2.788  0.00  0.00    +0.105 C 
ENDROOT
BRANCH   3   7
ATOM      7  C   UNL     1       6.583  -3.189  -5.010  0.00  0.00    -0.012 A 
ATOM      8  C   UNL     1       6.971  -3.339  -6.328  0.00  0.00    +0.115 A 
ATOM      9  N   UNL     1       7.299  -4.525  -6.804  0.00  0.00    -0.263 NA
ATOM     10  C   UNL     1       7.270  -5.606  -6.050  0.00  0.00    +0.111 A 
ATOM     11  C   UNL     1       6.891  -5.533  -4.722  0.00  0.00    +0.020 A 
ATOM     12  C   UNL     1       6.545  -4.303  -4.186  0.00  0.00    +0.008 A 
ENDBRANCH   3   7
TORSDOF 1
ENDMDL
MODEL 3
REMARK VINA RESULT:    -4.026      3.030      4.769
REMARK INTER + INTRA:          -4.481
REMARK INTER:                  -4.268
REMARK INTRA:                  -0.213
REMARK UNBOUND:                -0.220
REMARK  Name = Nicotine.pdb
REMARK  2 active torsions:
REMARK  status: ('A' for Active; 'I' for Inactive)
REMARK    1  A    between atoms: C_3  and  C_6
REMARK    2  A    between atoms: N_4  and  C_12
REMARK                            x       y       z     vdW  Elec       q    Type
REMARK                         _______ _______ _______ _____ _____    ______ ____
ROOT
ATOM      1  C   UNL     1       6.517  -0.304  -6.575  0.00  0.00    +0.017 C 
ATOM      2  C   UNL     1       7.464   0.385  -5.558  0.00  0.00    +0.025 C 
ATOM      3  C   UNL     1       7.210  -0.404  -4.256  0.00  0.00    +0.088 C 
ATOM      4  N   UNL     1       5.884  -1.034  -4.379  0.00  0.00    -0.298 NA
ATOM      5  C   UNL     1       5.299  -0.651  -5.682  0.00  0.00    +0.085 C 
ATOM      6  C   UNL     1       5.980  -2.494  -4.254  0.00  0.00    +0.105 C 
ENDROOT
BRANCH   3   7
ATOM      7  C   UNL     1       7.227   0.534  -3.077  0.00  0.00    -0.012 A 
ATOM      8  C   UNL     1       7.232   1.902  -3.272  0.00  0.00    +0.115 A 
ATOM      9  N   UNL     1       7.246   2.730  -2.245  0.00  0.00    -0.263 NA
ATOM     10  C   UNL     1       7.256   2.291  -1.002  0.00  0.00    +0.111 A 
ATOM     11  C   UNL     1       7.251   0.936  -0.729  0.00  0.00    +0.020 A 
ATOM     12  C   UNL     1       7.231   0.036  -1.783  0.00  0.00    +0.008 A 
ENDBRANCH   3   7
TORSDOF 1
ENDMDL
MODEL 4
REMARK VINA RESULT:    -4.021      8.989     10.389
REMARK INTER + INTRA:          -4.476
REMARK INTER:                  -4.250
REMARK INTRA:                  -0.226
REMARK UNBOUND:                -0.220
REMARK  Name = Nicotine.pdb
REMARK  2 active torsions:
REMARK  status: ('A' for Active; 'I' for Inactive)
REMARK    1  A    between atoms: C_3  and  C_6
REMARK    2  A    between atoms: N_4  and  C_12
REMARK                            x       y       z     vdW  Elec       q    Type
REMARK                         _______ _______ _______ _____ _____    ______ ____
ROOT
ATOM      1  C   UNL     1      10.121   6.671  -0.537  0.00  0.00    +0.017 C 
ATOM      2  C   UNL     1       8.752   6.984   0.120  0.00  0.00    +0.025 C 
ATOM      3  C   UNL     1       8.082   5.596   0.206  0.00  0.00    +0.088 C 
ATOM      4  N   UNL     1       8.728   4.736  -0.802  0.00  0.00    -0.298 NA
ATOM      5  C   UNL     1       9.744   5.535  -1.521  0.00  0.00    +0.085 C 
ATOM      6  C   UNL     1       9.333   3.553  -0.176  0.00  0.00    +0.105 C 
ENDROOT
BRANCH   3   7
ATOM      7  C   UNL     1       6.610   5.718  -0.089  0.00  0.00    -0.012 A 
ATOM      8  C   UNL     1       5.841   4.587  -0.289  0.00  0.00    +0.115 A 
ATOM      9  N   UNL     1       4.552   4.684  -0.548  0.00  0.00    -0.263 NA
ATOM     10  C   UNL     1       3.947   5.853  -0.627  0.00  0.00    +0.111 A 
ATOM     11  C   UNL     1       4.651   7.028  -0.437  0.00  0.00    +0.020 A 
ATOM     12  C   UNL     1       6.007   6.965  -0.158  0.00  0.00    +0.008 A 
ENDBRANCH   3   7
TORSDOF 1
ENDMDL
MODEL 5
REMARK VINA RESULT:    -4.000      1.327      4.240
REMARK INTER + INTRA:          -4.453
REMARK INTER:                  -4.198
REMARK INTRA:                  -0.256
REMARK UNBOUND:                -0.220
REMARK  Name = Nicotine.pdb
REMARK  2 active torsions:
REMARK  status: ('A' for Active; 'I' for Inactive)
REMARK    1  A    between atoms: C_3  and  C_6
REMARK    2  A    between atoms: N_4  and  C_12
REMARK                            x       y       z     vdW  Elec       q    Type
REMARK                         _______ _______ _______ _____ _____    ______ ____
ROOT
ATOM      1  C   UNL     1       6.631   0.279  -5.862  0.00  0.00    +0.017 C 
ATOM      2  C   UNL     1       6.031  -1.125  -6.141  0.00  0.00    +0.025 C 
ATOM      3  C   UNL     1       6.359  -1.905  -4.850  0.00  0.00    +0.088 C 
ATOM      4  N   UNL     1       7.495  -1.223  -4.204  0.00  0.00    -0.298 NA
ATOM      5  C   UNL     1       7.899  -0.078  -5.048  0.00  0.00    +0.085 C 
ATOM      6  C   UNL     1       7.144  -0.781  -2.848  0.00  0.00    +0.105 C 
ENDROOT
BRANCH   3   7
ATOM      7  C   UNL     1       6.735  -3.323  -5.189  0.00  0.00    -0.012 A 
ATOM      8  C   UNL     1       6.700  -4.307  -4.219  0.00  0.00    +0.115 A 
ATOM      9  N   UNL     1       7.028  -5.551  -4.507  0.00  0.00    -0.263 NA
ATOM     10  C   UNL     1       7.400  -5.906  -5.721  0.00  0.00    +0.111 A 
ATOM     11  C   UNL     1       7.459  -4.977  -6.743  0.00  0.00    +0.020 A 
ATOM     12  C   UNL     1       7.116  -3.660  -6.479  0.00  0.00    +0.008 A 
ENDBRANCH   3   7
TORSDOF 1
ENDMDL
MODEL 6
REMARK VINA RESULT:    -3.947      1.446      4.592
REMARK INTER + INTRA:          -4.397
REMARK INTER:                  -4.204
REMARK INTRA:                  -0.193
REMARK UNBOUND:                -0.220
REMARK  Name = Nicotine.pdb
REMARK  2 active torsions:
REMARK  status: ('A' for Active; 'I' for Inactive)
REMARK    1  A    between atoms: C_3  and  C_6
REMARK    2  A    between atoms: N_4  and  C_12
REMARK                            x       y       z     vdW  Elec       q    Type
REMARK                         _______ _______ _______ _____ _____    ______ ____
ROOT
ATOM      1  C   UNL     1       8.163  -0.033  -4.768  0.00  0.00    +0.017 C 
ATOM      2  C   UNL     1       8.450  -1.414  -5.413  0.00  0.00    +0.025 C 
ATOM      3  C   UNL     1       7.041  -1.923  -5.785  0.00  0.00    +0.088 C 
ATOM      4  N   UNL     1       6.078  -1.207  -4.929  0.00  0.00    -0.298 NA
ATOM      5  C   UNL     1       6.827  -0.303  -4.031  0.00  0.00    +0.085 C 
ATOM      6  C   UNL     1       5.106  -0.461  -5.739  0.00  0.00    +0.105 C 
ENDROOT
BRANCH   3   7
ATOM      7  C   UNL     1       6.948  -3.406  -5.535  0.00  0.00    -0.012 A 
ATOM      8  C   UNL     1       7.208  -4.304  -6.553  0.00  0.00    +0.115 A 
ATOM      9  N   UNL     1       7.130  -5.603  -6.342  0.00  0.00    -0.263 NA
ATOM     10  C   UNL     1       6.803  -6.096  -5.164  0.00  0.00    +0.111 A 
ATOM     11  C   UNL     1       6.529  -5.259  -4.098  0.00  0.00    +0.020 A 
ATOM     12  C   UNL     1       6.607  -3.887  -4.280  0.00  0.00    +0.008 A 
ENDBRANCH   3   7
TORSDOF 1
ENDMDL
MODEL 7
REMARK VINA RESULT:    -3.822      8.618     10.580
REMARK INTER + INTRA:          -4.265
REMARK INTER:                  -4.059
REMARK INTRA:                  -0.206
REMARK UNBOUND:                -0.220
REMARK  Name = Nicotine.pdb
REMARK  2 active torsions:
REMARK  status: ('A' for Active; 'I' for Inactive)
REMARK    1  A    between atoms: C_3  and  C_6
REMARK    2  A    between atoms: N_4  and  C_12
REMARK                            x       y       z     vdW  Elec       q    Type
REMARK                         _______ _______ _______ _____ _____    ______ ____
ROOT
ATOM      1  C   UNL     1       7.659   6.801  -0.325  0.00  0.00    +0.017 C 
ATOM      2  C   UNL     1       6.188   7.023   0.116  0.00  0.00    +0.025 C 
ATOM      3  C   UNL     1       5.534   5.652  -0.159  0.00  0.00    +0.088 C 
ATOM      4  N   UNL     1       6.364   4.965  -1.163  0.00  0.00    -0.298 NA
ATOM      5  C   UNL     1       7.483   5.855  -1.539  0.00  0.00    +0.085 C 
ATOM      6  C   UNL     1       6.861   3.682  -0.648  0.00  0.00    +0.105 C 
ENDROOT
BRANCH   3   7
ATOM      7  C   UNL     1       4.138   5.848  -0.692  0.00  0.00    -0.012 A 
ATOM      8  C   UNL     1       3.879   6.832  -1.627  0.00  0.00    +0.115 A 
ATOM      9  N   UNL     1       2.661   7.010  -2.100  0.00  0.00    -0.263 NA
ATOM     10  C   UNL     1       1.648   6.265  -1.703  0.00  0.00    +0.111 A 
ATOM     11  C   UNL     1       1.831   5.261  -0.771  0.00  0.00    +0.020 A 
ATOM     12  C   UNL     1       3.099   5.041  -0.256  0.00  0.00    +0.008 A 
ENDBRANCH   3   7
TORSDOF 1
ENDMDL
MODEL 8
REMARK VINA RESULT:    -3.670      3.216      4.819
REMARK INTER + INTRA:          -4.104
REMARK INTER:                  -3.911
REMARK INTRA:                  -0.193
REMARK UNBOUND:                -0.220
REMARK  Name = Nicotine.pdb
REMARK  2 active torsions:
REMARK  status: ('A' for Active; 'I' for Inactive)
REMARK    1  A    between atoms: C_3  and  C_6
REMARK    2  A    between atoms: N_4  and  C_12
REMARK                            x       y       z     vdW  Elec       q    Type
REMARK                         _______ _______ _______ _____ _____    ______ ____
ROOT
ATOM      1  C   UNL     1       7.948   0.624  -0.158  0.00  0.00    +0.017 C 
ATOM      2  C   UNL     1       6.870  -0.113  -0.996  0.00  0.00    +0.025 C 
ATOM      3  C   UNL     1       7.675  -0.657  -2.195  0.00  0.00    +0.088 C 
ATOM      4  N   UNL     1       8.891   0.167  -2.316  0.00  0.00    -0.298 NA
ATOM      5  C   UNL     1       8.861   1.207  -1.266  0.00  0.00    +0.085 C 
ATOM      6  C   UNL     1      10.101  -0.659  -2.205  0.00  0.00    +0.105 C 
ENDROOT
BRANCH   3   7
ATOM      7  C   UNL     1       6.855  -0.550  -3.454  0.00  0.00    -0.012 A 
ATOM      8  C   UNL     1       6.094  -1.620  -3.886  0.00  0.00    +0.115 A 
ATOM      9  N   UNL     1       5.373  -1.535  -4.987  0.00  0.00    -0.263 NA
ATOM     10  C   UNL     1       5.348  -0.436  -5.715  0.00  0.00    +0.111 A 
ATOM     11  C   UNL     1       6.082   0.675  -5.346  0.00  0.00    +0.020 A 
ATOM     12  C   UNL     1       6.848   0.624  -4.191  0.00  0.00    +0.008 A 
ENDBRANCH   3   7
TORSDOF 1
ENDMDL
MODEL 9
REMARK VINA RESULT:    -3.533      7.650      9.031
REMARK INTER + INTRA:          -3.959
REMARK INTER:                  -3.755
REMARK INTRA:                  -0.204
REMARK UNBOUND:                -0.220
REMARK  Name = Nicotine.pdb
REMARK  2 active torsions:
REMARK  status: ('A' for Active; 'I' for Inactive)
REMARK    1  A    between atoms: C_3  and  C_6
REMARK    2  A    between atoms: N_4  and  C_12
REMARK                            x       y       z     vdW  Elec       q    Type
REMARK                         _______ _______ _______ _____ _____    ______ ____
ROOT
ATOM      1  C   UNL     1       8.697   1.254   0.302  0.00  0.00    +0.017 C 
ATOM      2  C   UNL     1       7.849   2.157  -0.632  0.00  0.00    +0.025 C 
ATOM      3  C   UNL     1       8.388   3.572  -0.331  0.00  0.00    +0.088 C 
ATOM      4  N   UNL     1       9.013   3.526   1.003  0.00  0.00    -0.298 NA
ATOM      5  C   UNL     1       8.862   2.160   1.548  0.00  0.00    +0.085 C 
ATOM      6  C   UNL     1      10.428   3.914   0.936  0.00  0.00    +0.105 C 
ENDROOT
BRANCH   3   7
ATOM      7  C   UNL     1       7.254   4.564  -0.334  0.00  0.00    -0.012 A 
ATOM      8  C   UNL     1       5.956   4.142  -0.550  0.00  0.00    +0.115 A 
ATOM      9  N   UNL     1       4.958   5.004  -0.554  0.00  0.00    -0.263 NA
ATOM     10  C   UNL     1       5.154   6.292  -0.354  0.00  0.00    +0.111 A 
ATOM     11  C   UNL     1       6.424   6.788  -0.130  0.00  0.00    +0.020 A 
ATOM     12  C   UNL     1       7.498   5.911  -0.113  0.00  0.00    +0.008 A 
ENDBRANCH   3   7
TORSDOF 1
ENDMDL
MODEL 10
REMARK VINA RESULT:    -2.471      9.695     10.936
REMARK INTER + INTRA:          -2.835
REMARK INTER:                  -2.587
REMARK INTRA:                  -0.248
REMARK UNBOUND:                -0.220
REMARK  Name = Nicotine.pdb
REMARK  2 active torsions:
REMARK  status: ('A' for Active; 'I' for Inactive)
REMARK    1  A    between atoms: C_3  and  C_6
REMARK    2  A    between atoms: N_4  and  C_12
REMARK                            x       y       z     vdW  Elec       q    Type
REMARK                         _______ _______ _______ _____ _____    ______ ____
ROOT
ATOM      1  C   UNL     1       0.694   4.740  -1.238  0.00  0.00    +0.017 C 
ATOM      2  C   UNL     1       1.768   5.157  -0.199  0.00  0.00    +0.025 C 
ATOM      3  C   UNL     1       2.657   6.138  -0.992  0.00  0.00    +0.088 C 
ATOM      4  N   UNL     1       2.465   5.841  -2.423  0.00  0.00    -0.298 NA
ATOM      5  C   UNL     1       1.521   4.709  -2.547  0.00  0.00    +0.085 C 
ATOM      6  C   UNL     1       1.971   7.021  -3.145  0.00  0.00    +0.105 C 
ENDROOT
BRANCH   3   7
ATOM      7  C   UNL     1       4.102   5.939  -0.616  0.00  0.00    -0.012 A 
ATOM      8  C   UNL     1       4.938   7.028  -0.452  0.00  0.00    +0.115 A 
ATOM      9  N   UNL     1       6.204   6.863  -0.122  0.00  0.00    -0.263 NA
ATOM     10  C   UNL     1       6.721   5.665   0.064  0.00  0.00    +0.111 A 
ATOM     11  C   UNL     1       5.946   4.529  -0.081  0.00  0.00    +0.020 A 
ATOM     12  C   UNL     1       4.609   4.663  -0.422  0.00  0.00    +0.008 A 
ENDBRANCH   3   7
TORSDOF 1
ENDMDL
