MODEL 1
REMARK VINA RESULT:    -3.162      0.000      0.000
REMARK INTER + INTRA:          -3.555
REMARK INTER:                  -3.347
REMARK INTRA:                  -0.208
REMARK UNBOUND:                -0.208
REMARK  Name = Nicotine.pdb
REMARK  2 active torsions:
REMARK  status: ('A' for Active; 'I' for Inactive)
REMARK    1  A    between atoms: C_3  and  C_6
REMARK    2  A    between atoms: N_4  and  C_12
REMARK                            x       y       z     vdW  Elec       q    Type
REMARK                         _______ _______ _______ _____ _____    ______ ____
ROOT
ATOM      1  C   UNL     1       0.119   4.552  -4.800  0.00  0.00    +0.017 C 
ATOM      2  C   UNL     1      -0.483   3.491  -3.841  0.00  0.00    +0.025 C 
ATOM      3  C   UNL     1       0.039   2.161  -4.424  0.00  0.00    +0.088 C 
ATOM      4  N   UNL     1       0.375   2.405  -5.838  0.00  0.00    -0.298 NA
ATOM      5  C   UNL     1       0.061   3.814  -6.160  0.00  0.00    +0.085 C 
ATOM      6  C   UNL     1       1.788   2.107  -6.104  0.00  0.00    +0.105 C 
ENDROOT
BRANCH   3   7
ATOM      7  C   UNL     1      -1.029   1.103  -4.325  0.00  0.00    -0.012 A 
ATOM      8  C   UNL     1      -2.296   1.429  -3.878  0.00  0.00    +0.115 A 
ATOM      9  N   UNL     1      -3.237   0.509  -3.788  0.00  0.00    -0.263 NA
ATOM     10  C   UNL     1      -3.011  -0.748  -4.117  0.00  0.00    +0.111 A 
ATOM     11  C   UNL     1      -1.768  -1.148  -4.572  0.00  0.00    +0.020 A 
ATOM     12  C   UNL     1      -0.756  -0.208  -4.685  0.00  0.00    +0.008 A 
ENDBRANCH   3   7
TORSDOF 1
ENDMDL
MODEL 2
REMARK VINA RESULT:    -3.008      9.864     10.520
REMARK INTER + INTRA:          -3.392
REMARK INTER:                  -3.192
REMARK INTRA:                  -0.200
REMARK UNBOUND:                -0.208
REMARK  Name = Nicotine.pdb
REMARK  2 active torsions:
REMARK  status: ('A' for Active; 'I' for Inactive)
REMARK    1  A    between atoms: C_3  and  C_6
REMARK    2  A    between atoms: N_4  and  C_12
REMARK                            x       y       z     vdW  Elec       q    Type
REMARK                         _______ _______ _______ _____ _____    ______ ____
ROOT
ATOM      1  C   UNL     1       7.059   4.828   4.084  0.00  0.00    +0.017 C 
ATOM      2  C   UNL     1       5.750   4.352   3.401  0.00  0.00    +0.025 C 
ATOM      3  C   UNL     1       5.429   3.037   4.144  0.00  0.00    +0.088 C 
ATOM      4  N   UNL     1       6.690   2.548   4.729  0.00  0.00    -0.298 NA
ATOM      5  C   UNL     1       7.775   3.483   4.362  0.00  0.00    +0.085 C 
ATOM      6  C   UNL     1       6.578   2.418   6.188  0.00  0.00    +0.105 C 
ENDROOT
BRANCH   3   7
ATOM      7  C   UNL     1       4.884   2.021   3.175  0.00  0.00    -0.012 A 
ATOM      8  C   UNL     1       3.549   2.043   2.816  0.00  0.00    +0.115 A 
ATOM      9  N   UNL     1       3.064   1.157   1.968  0.00  0.00    -0.263 NA
ATOM     10  C   UNL     1       3.823   0.221   1.433  0.00  0.00    +0.111 A 
ATOM     11  C   UNL     1       5.167   0.137   1.744  0.00  0.00    +0.020 A 
ATOM     12  C   UNL     1       5.714   1.055   2.627  0.00  0.00    +0.008 A 
ENDBRANCH   3   7
TORSDOF 1
ENDMDL
MODEL 3
REMARK VINA RESULT:    -2.836      1.835      4.515
REMARK INTER + INTRA:          -3.210
REMARK INTER:                  -2.986
REMARK INTRA:                  -0.223
REMARK UNBOUND:                -0.208
REMARK  Name = Nicotine.pdb
REMARK  2 active torsions:
REMARK  status: ('A' for Active; 'I' for Inactive)
REMARK    1  A    between atoms: C_3  and  C_6
REMARK    2  A    between atoms: N_4  and  C_12
REMARK                            x       y       z     vdW  Elec       q    Type
REMARK                         _______ _______ _______ _____ _____    ______ ____
ROOT
ATOM      1  C   UNL     1      -4.304   0.111  -6.614  0.00  0.00    +0.017 C 
ATOM      2  C   UNL     1      -2.974   0.875  -6.847  0.00  0.00    +0.025 C 
ATOM      3  C   UNL     1      -2.147   0.524  -5.592  0.00  0.00    +0.088 C 
ATOM      4  N   UNL     1      -3.098   0.123  -4.540  0.00  0.00    -0.298 NA
ATOM      5  C   UNL     1      -4.471   0.234  -5.078  0.00  0.00    +0.085 C 
ATOM      6  C   UNL     1      -2.824  -1.243  -4.074  0.00  0.00    +0.105 C 
ENDROOT
BRANCH   3   7
ATOM      7  C   UNL     1      -1.361   1.728  -5.142  0.00  0.00    -0.012 A 
ATOM      8  C   UNL     1      -1.538   2.244  -3.872  0.00  0.00    +0.115 A 
ATOM      9  N   UNL     1      -0.854   3.298  -3.471  0.00  0.00    -0.263 NA
ATOM     10  C   UNL     1       0.018   3.898  -4.256  0.00  0.00    +0.111 A 
ATOM     11  C   UNL     1       0.249   3.438  -5.539  0.00  0.00    +0.020 A 
ATOM     12  C   UNL     1      -0.448   2.330  -5.994  0.00  0.00    +0.008 A 
ENDBRANCH   3   7
TORSDOF 1
ENDMDL
MODEL 4
REMARK VINA RESULT:    -2.819      2.451      3.682
REMARK INTER + INTRA:          -3.192
REMARK INTER:                  -2.976
REMARK INTRA:                  -0.217
REMARK UNBOUND:                -0.208
REMARK  Name = Nicotine.pdb
REMARK  2 active torsions:
REMARK  status: ('A' for Active; 'I' for Inactive)
REMARK    1  A    between atoms: C_3  and  C_6
REMARK    2  A    between atoms: N_4  and  C_12
REMARK                            x       y       z     vdW  Elec       q    Type
REMARK                         _______ _______ _______ _____ _____    ______ ____
ROOT
ATOM      1  C   UNL     1       0.091   3.977  -5.520  0.00  0.00    +0.017 C 
ATOM      2  C   UNL     1       0.893   2.710  -5.915  0.00  0.00    +0.025 C 
ATOM      3  C   UNL     1       0.247   1.607  -5.050  0.00  0.00    +0.088 C 
ATOM      4  N   UNL     1      -0.402   2.272  -3.906  0.00  0.00    -0.298 NA
ATOM      5  C   UNL     1      -0.165   3.728  -4.012  0.00  0.00    +0.085 C 
ATOM      6  C   UNL     1      -1.839   1.973  -3.868  0.00  0.00    +0.105 C 
ENDROOT
BRANCH   3   7
ATOM      7  C   UNL     1       1.307   0.656  -4.557  0.00  0.00    -0.012 A 
ATOM      8  C   UNL     1       1.257   0.160  -3.268  0.00  0.00    +0.115 A 
ATOM      9  N   UNL     1       2.181  -0.673  -2.829  0.00  0.00    -0.263 NA
ATOM     10  C   UNL     1       3.181  -1.064  -3.593  0.00  0.00    +0.111 A 
ATOM     11  C   UNL     1       3.297  -0.610  -4.894  0.00  0.00    +0.020 A 
ATOM     12  C   UNL     1       2.342   0.262  -5.392  0.00  0.00    +0.008 A 
ENDBRANCH   3   7
TORSDOF 1
ENDMDL
MODEL 5
REMARK VINA RESULT:    -2.790      1.499      2.137
REMARK INTER + INTRA:          -3.161
REMARK INTER:                  -2.956
REMARK INTRA:                  -0.205
REMARK UNBOUND:                -0.208
REMARK  Name = Nicotine.pdb
REMARK  2 active torsions:
REMARK  status: ('A' for Active; 'I' for Inactive)
REMARK    1  A    between atoms: C_3  and  C_6
REMARK    2  A    between atoms: N_4  and  C_12
REMARK                            x       y       z     vdW  Elec       q    Type
REMARK                         _______ _______ _______ _____ _____    ______ ____
ROOT
ATOM      1  C   UNL     1      -1.031   3.286  -7.077  0.00  0.00    +0.017 C 
ATOM      2  C   UNL     1      -1.745   2.214  -6.213  0.00  0.00    +0.025 C 
ATOM      3  C   UNL     1      -1.188   2.481  -4.798  0.00  0.00    +0.088 C 
ATOM      4  N   UNL     1       0.093   3.192  -4.961  0.00  0.00    -0.298 NA
ATOM      5  C   UNL     1       0.363   3.353  -6.405  0.00  0.00    +0.085 C 
ATOM      6  C   UNL     1       0.063   4.494  -4.282  0.00  0.00    +0.105 C 
ENDROOT
BRANCH   3   7
ATOM      7  C   UNL     1      -0.964   1.175  -4.080  0.00  0.00    -0.012 A 
ATOM      8  C   UNL     1      -2.030   0.483  -3.539  0.00  0.00    +0.115 A 
ATOM      9  N   UNL     1      -1.843  -0.660  -2.909  0.00  0.00    -0.263 NA
ATOM     10  C   UNL     1      -0.642  -1.186  -2.770  0.00  0.00    +0.111 A 
ATOM     11  C   UNL     1       0.473  -0.551  -3.286  0.00  0.00    +0.020 A 
ATOM     12  C   UNL     1       0.314   0.650  -3.959  0.00  0.00    +0.008 A 
ENDBRANCH   3   7
TORSDOF 1
ENDMDL
MODEL 6
REMARK VINA RESULT:    -2.695      8.154      8.797
REMARK INTER + INTRA:          -3.061
REMARK INTER:                  -2.849
REMARK INTRA:                  -0.212
REMARK UNBOUND:                -0.208
REMARK  Name = Nicotine.pdb
REMARK  2 active torsions:
REMARK  status: ('A' for Active; 'I' for Inactive)
REMARK    1  A    between atoms: C_3  and  C_6
REMARK    2  A    between atoms: N_4  and  C_12
REMARK                            x       y       z     vdW  Elec       q    Type
REMARK                         _______ _______ _______ _____ _____    ______ ____
ROOT
ATOM      1  C   UNL     1       3.794   0.771   4.953  0.00  0.00    +0.017 C 
ATOM      2  C   UNL     1       3.578  -0.206   3.768  0.00  0.00    +0.025 C 
ATOM      3  C   UNL     1       4.622   0.266   2.734  0.00  0.00    +0.088 C 
ATOM      4  N   UNL     1       4.948   1.668   3.051  0.00  0.00    -0.298 NA
ATOM      5  C   UNL     1       4.137   2.088   4.214  0.00  0.00    +0.085 C 
ATOM      6  C   UNL     1       6.383   1.827   3.324  0.00  0.00    +0.105 C 
ENDROOT
BRANCH   3   7
ATOM      7  C   UNL     1       4.046   0.174   1.345  0.00  0.00    -0.012 A 
ATOM      8  C   UNL     1       2.708   0.442   1.124  0.00  0.00    +0.115 A 
ATOM      9  N   UNL     1       2.196   0.364  -0.089  0.00  0.00    -0.263 NA
ATOM     10  C   UNL     1       2.930   0.031  -1.132  0.00  0.00    +0.111 A 
ATOM     11  C   UNL     1       4.276  -0.250  -0.988  0.00  0.00    +0.020 A 
ATOM     12  C   UNL     1       4.851  -0.173   0.271  0.00  0.00    +0.008 A 
ENDBRANCH   3   7
TORSDOF 1
ENDMDL
MODEL 7
REMARK VINA RESULT:    -2.682      1.319      4.620
REMARK INTER + INTRA:          -3.047
REMARK INTER:                  -2.823
REMARK INTRA:                  -0.224
REMARK UNBOUND:                -0.208
REMARK  Name = Nicotine.pdb
REMARK  2 active torsions:
REMARK  status: ('A' for Active; 'I' for Inactive)
REMARK    1  A    between atoms: C_3  and  C_6
REMARK    2  A    between atoms: N_4  and  C_12
REMARK                            x       y       z     vdW  Elec       q    Type
REMARK                         _______ _______ _______ _____ _____    ______ ____
ROOT
ATOM      1  C   UNL     1      -1.904  -1.286  -3.755  0.00  0.00    +0.017 C 
ATOM      2  C   UNL     1      -1.275   0.106  -3.484  0.00  0.00    +0.025 C 
ATOM      3  C   UNL     1      -2.223   1.067  -4.234  0.00  0.00    +0.088 C 
ATOM      4  N   UNL     1      -2.920   0.277  -5.265  0.00  0.00    -0.298 NA
ATOM      5  C   UNL     1      -2.429  -1.117  -5.202  0.00  0.00    +0.085 C 
ATOM      6  C   UNL     1      -4.375   0.331  -5.077  0.00  0.00    +0.105 C 
ENDROOT
BRANCH   3   7
ATOM      7  C   UNL     1      -1.427   2.170  -4.883  0.00  0.00    -0.012 A 
ATOM      8  C   UNL     1      -1.522   2.393  -6.243  0.00  0.00    +0.115 A 
ATOM      9  N   UNL     1      -0.829   3.356  -6.819  0.00  0.00    -0.263 NA
ATOM     10  C   UNL     1      -0.024   4.139  -6.127  0.00  0.00    +0.111 A 
ATOM     11  C   UNL     1       0.122   3.976  -4.762  0.00  0.00    +0.020 A 
ATOM     12  C   UNL     1      -0.595   2.977  -4.122  0.00  0.00    +0.008 A 
ENDBRANCH   3   7
TORSDOF 1
ENDMDL
MODEL 8
REMARK VINA RESULT:    -2.638      1.746      2.562
REMARK INTER + INTRA:          -3.000
REMARK INTER:                  -2.745
REMARK INTRA:                  -0.256
REMARK UNBOUND:                -0.208
REMARK  Name = Nicotine.pdb
REMARK  2 active torsions:
REMARK  status: ('A' for Active; 'I' for Inactive)
REMARK    1  A    between atoms: C_3  and  C_6
REMARK    2  A    between atoms: N_4  and  C_12
REMARK                            x       y       z     vdW  Elec       q    Type
REMARK                         _______ _______ _______ _____ _____    ______ ____
ROOT
ATOM      1  C   UNL     1       2.331   1.779  -6.525  0.00  0.00    +0.017 C 
ATOM      2  C   UNL     1       1.043   2.450  -5.979  0.00  0.00    +0.025 C 
ATOM      3  C   UNL     1       0.604   1.492  -4.851  0.00  0.00    +0.088 C 
ATOM      4  N   UNL     1       1.211   0.179  -5.133  0.00  0.00    -0.298 NA
ATOM      5  C   UNL     1       1.982   0.276  -6.391  0.00  0.00    +0.085 C 
ATOM      6  C   UNL     1       2.069  -0.254  -4.022  0.00  0.00    +0.105 C 
ENDROOT
BRANCH   3   7
ATOM      7  C   UNL     1      -0.898   1.371  -4.837  0.00  0.00    -0.012 A 
ATOM      8  C   UNL     1      -1.559   1.009  -3.679  0.00  0.00    +0.115 A 
ATOM      9  N   UNL     1      -2.873   0.901  -3.658  0.00  0.00    -0.263 NA
ATOM     10  C   UNL     1      -3.605   1.131  -4.730  0.00  0.00    +0.111 A 
ATOM     11  C   UNL     1      -3.013   1.498  -5.925  0.00  0.00    +0.020 A 
ATOM     12  C   UNL     1      -1.634   1.626  -5.984  0.00  0.00    +0.008 A 
ENDBRANCH   3   7
TORSDOF 1
ENDMDL
MODEL 9
REMARK VINA RESULT:    -2.608      5.476      6.936
REMARK INTER + INTRA:          -2.969
REMARK INTER:                  -2.713
REMARK INTRA:                  -0.256
REMARK UNBOUND:                -0.208
REMARK  Name = Nicotine.pdb
REMARK  2 active torsions:
REMARK  status: ('A' for Active; 'I' for Inactive)
REMARK    1  A    between atoms: C_3  and  C_6
REMARK    2  A    between atoms: N_4  and  C_12
REMARK                            x       y       z     vdW  Elec       q    Type
REMARK                         _______ _______ _______ _____ _____    ______ ____
ROOT
ATOM      1  C   UNL     1       8.617   1.993  -3.692  0.00  0.00    +0.017 C 
ATOM      2  C   UNL     1       7.791   0.710  -3.415  0.00  0.00    +0.025 C 
ATOM      3  C   UNL     1       6.551   0.894  -4.315  0.00  0.00    +0.088 C 
ATOM      4  N   UNL     1       6.418   2.337  -4.586  0.00  0.00    -0.298 NA
ATOM      5  C   UNL     1       7.500   3.051  -3.875  0.00  0.00    +0.085 C 
ATOM      6  C   UNL     1       6.465   2.610  -6.028  0.00  0.00    +0.105 C 
ENDROOT
BRANCH   3   7
ATOM      7  C   UNL     1       5.322   0.389  -3.605  0.00  0.00    -0.012 A 
ATOM      8  C   UNL     1       4.234  -0.065  -4.327  0.00  0.00    +0.115 A 
ATOM      9  N   UNL     1       3.155  -0.509  -3.713  0.00  0.00    -0.263 NA
ATOM     10  C   UNL     1       3.067  -0.537  -2.398  0.00  0.00    +0.111 A 
ATOM     11  C   UNL     1       4.115  -0.099  -1.610  0.00  0.00    +0.020 A 
ATOM     12  C   UNL     1       5.269   0.370  -2.220  0.00  0.00    +0.008 A 
ENDBRANCH   3   7
TORSDOF 1
ENDMDL
MODEL 10
REMARK VINA RESULT:    -2.597      9.814     10.971
REMARK INTER + INTRA:          -2.957
REMARK INTER:                  -2.748
REMARK INTRA:                  -0.209
REMARK UNBOUND:                -0.208
REMARK  Name = Nicotine.pdb
REMARK  2 active torsions:
REMARK  status: ('A' for Active; 'I' for Inactive)
REMARK    1  A    between atoms: C_3  and  C_6
REMARK    2  A    between atoms: N_4  and  C_12
REMARK                            x       y       z     vdW  Elec       q    Type
REMARK                         _______ _______ _______ _____ _____    ______ ____
ROOT
ATOM      1  C   UNL     1       5.373  -1.253   3.024  0.00  0.00    +0.017 C 
ATOM      2  C   UNL     1       5.323  -0.228   4.188  0.00  0.00    +0.025 C 
ATOM      3  C   UNL     1       4.373   0.863   3.649  0.00  0.00    +0.088 C 
ATOM      4  N   UNL     1       4.380   0.761   2.179  0.00  0.00    -0.298 NA
ATOM      5  C   UNL     1       5.305  -0.323   1.786  0.00  0.00    +0.085 C 
ATOM      6  C   UNL     1       3.028   0.512   1.662  0.00  0.00    +0.105 C 
ENDROOT
BRANCH   3   7
ATOM      7  C   UNL     1       4.864   2.224   4.072  0.00  0.00    -0.012 A 
ATOM      8  C   UNL     1       4.747   2.632   5.387  0.00  0.00    +0.115 A 
ATOM      9  N   UNL     1       5.174   3.821   5.765  0.00  0.00    -0.263 NA
ATOM     10  C   UNL     1       5.725   4.663   4.913  0.00  0.00    +0.111 A 
ATOM     11  C   UNL     1       5.876   4.324   3.581  0.00  0.00    +0.020 A 
ATOM     12  C   UNL     1       5.444   3.080   3.148  0.00  0.00    +0.008 A 
ENDBRANCH   3   7
TORSDOF 1
ENDMDL
