MODEL 1
REMARK VINA RESULT:     0.000      0.000      0.000
REMARK INTER + INTRA:          -0.256
REMARK INTER:                   0.000
REMARK INTRA:                  -0.256
REMARK UNBOUND:                -0.256
REMARK  Name = Nicotine.pdb
REMARK  2 active torsions:
REMARK  status: ('A' for Active; 'I' for Inactive)
REMARK    1  A    between atoms: C_3  and  C_6
REMARK    2  A    between atoms: N_4  and  C_12
REMARK                            x       y       z     vdW  Elec       q    Type
REMARK                         _______ _______ _______ _____ _____    ______ ____
ROOT
ATOM      1  C   UNL     1       1.412   0.402   2.517  0.00  0.00    +0.017 C 
ATOM      2  C   UNL     1       1.523  -1.089   2.105  0.00  0.00    +0.025 C 
ATOM      3  C   UNL     1       1.802  -1.800   3.447  0.00  0.00    +0.088 C 
ATOM      4  N   UNL     1       2.364  -0.793   4.366  0.00  0.00    -0.298 NA
ATOM      5  C   UNL     1       2.468   0.495   3.647  0.00  0.00    +0.085 C 
ATOM      6  C   UNL     1       1.536  -0.659   5.571  0.00  0.00    +0.105 C 
ENDROOT
BRANCH   3   7
ATOM      7  C   UNL     1       2.792  -2.916   3.240  0.00  0.00    -0.012 A 
ATOM      8  C   UNL     1       2.874  -3.955   4.147  0.00  0.00    +0.115 A 
ATOM      9  N   UNL     1       3.738  -4.937   3.973  0.00  0.00    -0.263 NA
ATOM     10  C   UNL     1       4.552  -4.968   2.937  0.00  0.00    +0.111 A 
ATOM     11  C   UNL     1       4.527  -3.964   1.987  0.00  0.00    +0.020 A 
ATOM     12  C   UNL     1       3.628  -2.918   2.134  0.00  0.00    +0.008 A 
ENDBRANCH   3   7
TORSDOF 1
ENDMDL
MODEL 2
REMARK VINA RESULT:     0.000      5.419      6.679
REMARK INTER + INTRA:          -0.256
REMARK INTER:                   0.000
REMARK INTRA:                  -0.256
REMARK UNBOUND:                -0.256
REMARK  Name = Nicotine.pdb
REMARK  2 active torsions:
REMARK  status: ('A' for Active; 'I' for Inactive)
REMARK    1  A    between atoms: C_3  and  C_6
REMARK    2  A    between atoms: N_4  and  C_12
REMARK                            x       y       z     vdW  Elec       q    Type
REMARK                         _______ _______ _______ _____ _____    ______ ____
ROOT
ATOM      1  C   UNL     1       0.705  -0.035   0.693  0.00  0.00    +0.017 C 
ATOM      2  C   UNL     1       2.061  -0.183  -0.045  0.00  0.00    +0.025 C 
ATOM      3  C   UNL     1       1.935   0.822  -1.209  0.00  0.00    +0.088 C 
ATOM      4  N   UNL     1       0.496   1.049  -1.436  0.00  0.00    -0.298 NA
ATOM      5  C   UNL     1      -0.268   0.213  -0.486  0.00  0.00    +0.085 C 
ATOM      6  C   UNL     1       0.155   2.469  -1.282  0.00  0.00    +0.105 C 
ENDROOT
BRANCH   3   7
ATOM      7  C   UNL     1       2.568   0.250  -2.451  0.00  0.00    -0.012 A 
ATOM      8  C   UNL     1       2.976   1.084  -3.475  0.00  0.00    +0.115 A 
ATOM      9  N   UNL     1       3.531   0.592  -4.565  0.00  0.00    -0.263 NA
ATOM     10  C   UNL     1       3.718  -0.703  -4.724  0.00  0.00    +0.111 A 
ATOM     11  C   UNL     1       3.335  -1.599  -3.742  0.00  0.00    +0.020 A 
ATOM     12  C   UNL     1       2.753  -1.118  -2.580  0.00  0.00    +0.008 A 
ENDBRANCH   3   7
TORSDOF 1
ENDMDL
MODEL 3
REMARK VINA RESULT:     0.000      3.895      4.853
REMARK INTER + INTRA:          -0.256
REMARK INTER:                   0.000
REMARK INTRA:                  -0.256
REMARK UNBOUND:                -0.256
REMARK  Name = Nicotine.pdb
REMARK  2 active torsions:
REMARK  status: ('A' for Active; 'I' for Inactive)
REMARK    1  A    between atoms: C_3  and  C_6
REMARK    2  A    between atoms: N_4  and  C_12
REMARK                            x       y       z     vdW  Elec       q    Type
REMARK                         _______ _______ _______ _____ _____    ______ ____
ROOT
ATOM      1  C   UNL     1       5.549   3.255  -0.555  0.00  0.00    +0.017 C 
ATOM      2  C   UNL     1       4.973   1.919  -1.092  0.00  0.00    +0.025 C 
ATOM      3  C   UNL     1       3.714   1.710  -0.224  0.00  0.00    +0.088 C 
ATOM      4  N   UNL     1       3.900   2.493   1.010  0.00  0.00    -0.298 NA
ATOM      5  C   UNL     1       5.222   3.153   0.955  0.00  0.00    +0.085 C 
ATOM      6  C   UNL     1       2.825   3.480   1.175  0.00  0.00    +0.105 C 
ENDROOT
BRANCH   3   7
ATOM      7  C   UNL     1       3.559   0.249   0.112  0.00  0.00    -0.012 A 
ATOM      8  C   UNL     1       2.328  -0.256   0.483  0.00  0.00    +0.115 A 
ATOM      9  N   UNL     1       2.184  -1.533   0.779  0.00  0.00    -0.263 NA
ATOM     10  C   UNL     1       3.198  -2.373   0.734  0.00  0.00    +0.111 A 
ATOM     11  C   UNL     1       4.460  -1.941   0.370  0.00  0.00    +0.020 A 
ATOM     12  C   UNL     1       4.649  -0.606   0.047  0.00  0.00    +0.008 A 
ENDBRANCH   3   7
TORSDOF 1
ENDMDL
MODEL 4
REMARK VINA RESULT:     0.000      3.527      5.065
REMARK INTER + INTRA:          -0.256
REMARK INTER:                   0.000
REMARK INTRA:                  -0.256
REMARK UNBOUND:                -0.256
REMARK  Name = Nicotine.pdb
REMARK  2 active torsions:
REMARK  status: ('A' for Active; 'I' for Inactive)
REMARK    1  A    between atoms: C_3  and  C_6
REMARK    2  A    between atoms: N_4  and  C_12
REMARK                            x       y       z     vdW  Elec       q    Type
REMARK                         _______ _______ _______ _____ _____    ______ ____
ROOT
ATOM      1  C   UNL     1       2.590  -1.940   2.704  0.00  0.00    +0.017 C 
ATOM      2  C   UNL     1       3.199  -0.924   1.702  0.00  0.00    +0.025 C 
ATOM      3  C   UNL     1       4.708  -1.242   1.758  0.00  0.00    +0.088 C 
ATOM      4  N   UNL     1       4.965  -1.918   3.043  0.00  0.00    -0.298 NA
ATOM      5  C   UNL     1       3.693  -2.007   3.790  0.00  0.00    +0.085 C 
ATOM      6  C   UNL     1       5.546  -3.250   2.831  0.00  0.00    +0.105 C 
ENDROOT
BRANCH   3   7
ATOM      7  C   UNL     1       5.505   0.034   1.680  0.00  0.00    -0.012 A 
ATOM      8  C   UNL     1       6.826   0.010   1.274  0.00  0.00    +0.115 A 
ATOM      9  N   UNL     1       7.530   1.122   1.203  0.00  0.00    -0.263 NA
ATOM     10  C   UNL     1       7.010   2.293   1.513  0.00  0.00    +0.111 A 
ATOM     11  C   UNL     1       5.695   2.396   1.926  0.00  0.00    +0.020 A 
ATOM     12  C   UNL     1       4.921   1.248   2.008  0.00  0.00    +0.008 A 
ENDBRANCH   3   7
TORSDOF 1
ENDMDL
MODEL 5
REMARK VINA RESULT:     0.000      5.172      6.658
REMARK INTER + INTRA:          -0.256
REMARK INTER:                   0.000
REMARK INTRA:                  -0.256
REMARK UNBOUND:                -0.256
REMARK  Name = Nicotine.pdb
REMARK  2 active torsions:
REMARK  status: ('A' for Active; 'I' for Inactive)
REMARK    1  A    between atoms: C_3  and  C_6
REMARK    2  A    between atoms: N_4  and  C_12
REMARK                            x       y       z     vdW  Elec       q    Type
REMARK                         _______ _______ _______ _____ _____    ______ ____
ROOT
ATOM      1  C   UNL     1      -1.260  -1.321  -1.024  0.00  0.00    +0.017 C 
ATOM      2  C   UNL     1      -2.681  -1.376  -0.403  0.00  0.00    +0.025 C 
ATOM      3  C   UNL     1      -2.415  -1.114   1.094  0.00  0.00    +0.088 C 
ATOM      4  N   UNL     1      -1.008  -1.465   1.357  0.00  0.00    -0.298 NA
ATOM      5  C   UNL     1      -0.402  -1.954   0.100  0.00  0.00    +0.085 C 
ATOM      6  C   UNL     1      -0.267  -0.312   1.885  0.00  0.00    +0.105 C 
ENDROOT
BRANCH   3   7
ATOM      7  C   UNL     1      -3.325  -1.972   1.934  0.00  0.00    -0.012 A 
ATOM      8  C   UNL     1      -3.600  -1.626   3.244  0.00  0.00    +0.115 A 
ATOM      9  N   UNL     1      -4.395  -2.373   3.986  0.00  0.00    -0.263 NA
ATOM     10  C   UNL     1      -4.955  -3.469   3.515  0.00  0.00    +0.111 A 
ATOM     11  C   UNL     1      -4.726  -3.879   2.214  0.00  0.00    +0.020 A 
ATOM     12  C   UNL     1      -3.900  -3.116   1.403  0.00  0.00    +0.008 A 
ENDBRANCH   3   7
TORSDOF 1
ENDMDL
MODEL 6
REMARK VINA RESULT:     0.000      8.265      9.943
REMARK INTER + INTRA:          -0.256
REMARK INTER:                   0.000
REMARK INTRA:                  -0.256
REMARK UNBOUND:                -0.256
REMARK  Name = Nicotine.pdb
REMARK  2 active torsions:
REMARK  status: ('A' for Active; 'I' for Inactive)
REMARK    1  A    between atoms: C_3  and  C_6
REMARK    2  A    between atoms: N_4  and  C_12
REMARK                            x       y       z     vdW  Elec       q    Type
REMARK                         _______ _______ _______ _____ _____    ______ ____
ROOT
ATOM      1  C   UNL     1      -2.651  -2.557  -0.756  0.00  0.00    +0.017 C 
ATOM      2  C   UNL     1      -3.602  -1.920  -1.804  0.00  0.00    +0.025 C 
ATOM      3  C   UNL     1      -3.274  -2.706  -3.092  0.00  0.00    +0.088 C 
ATOM      4  N   UNL     1      -1.924  -3.272  -2.927  0.00  0.00    -0.298 NA
ATOM      5  C   UNL     1      -1.394  -2.852  -1.612  0.00  0.00    +0.085 C 
ATOM      6  C   UNL     1      -1.948  -4.736  -3.042  0.00  0.00    +0.105 C 
ENDROOT
BRANCH   3   7
ATOM      7  C   UNL     1      -3.302  -1.778  -4.279  0.00  0.00    -0.012 A 
ATOM      8  C   UNL     1      -3.479  -2.280  -5.554  0.00  0.00    +0.115 A 
ATOM      9  N   UNL     1      -3.505  -1.475  -6.599  0.00  0.00    -0.263 NA
ATOM     10  C   UNL     1      -3.363  -0.171  -6.472  0.00  0.00    +0.111 A 
ATOM     11  C   UNL     1      -3.182   0.404  -5.228  0.00  0.00    +0.020 A 
ATOM     12  C   UNL     1      -3.155  -0.410  -4.106  0.00  0.00    +0.008 A 
ENDBRANCH   3   7
TORSDOF 1
ENDMDL
MODEL 7
REMARK VINA RESULT:     0.000      3.273      4.108
REMARK INTER + INTRA:          -0.256
REMARK INTER:                   0.000
REMARK INTRA:                  -0.256
REMARK UNBOUND:                -0.256
REMARK  Name = Nicotine.pdb
REMARK  2 active torsions:
REMARK  status: ('A' for Active; 'I' for Inactive)
REMARK    1  A    between atoms: C_3  and  C_6
REMARK    2  A    between atoms: N_4  and  C_12
REMARK                            x       y       z     vdW  Elec       q    Type
REMARK                         _______ _______ _______ _____ _____    ______ ____
ROOT
ATOM      1  C   UNL     1       4.683   0.115   4.152  0.00  0.00    +0.017 C 
ATOM      2  C   UNL     1       3.927  -0.198   2.834  0.00  0.00    +0.025 C 
ATOM      3  C   UNL     1       4.453  -1.599   2.456  0.00  0.00    +0.088 C 
ATOM      4  N   UNL     1       5.751  -1.775   3.132  0.00  0.00    -0.298 NA
ATOM      5  C   UNL     1       6.061  -0.541   3.886  0.00  0.00    +0.085 C 
ATOM      6  C   UNL     1       5.729  -2.944   4.021  0.00  0.00    +0.105 C 
ENDROOT
BRANCH   3   7
ATOM      7  C   UNL     1       4.633  -1.693   0.964  0.00  0.00    -0.012 A 
ATOM      8  C   UNL     1       4.663  -2.926   0.340  0.00  0.00    +0.115 A 
ATOM      9  N   UNL     1       4.820  -3.018  -0.966  0.00  0.00    -0.263 NA
ATOM     10  C   UNL     1       4.955  -1.948  -1.725  0.00  0.00    +0.111 A 
ATOM     11  C   UNL     1       4.935  -0.682  -1.172  0.00  0.00    +0.020 A 
ATOM     12  C   UNL     1       4.766  -0.546   0.197  0.00  0.00    +0.008 A 
ENDBRANCH   3   7
TORSDOF 1
ENDMDL
MODEL 8
REMARK VINA RESULT:     0.000      3.453      4.626
REMARK INTER + INTRA:          -0.256
REMARK INTER:                   0.000
REMARK INTRA:                  -0.256
REMARK UNBOUND:                -0.256
REMARK  Name = Nicotine.pdb
REMARK  2 active torsions:
REMARK  status: ('A' for Active; 'I' for Inactive)
REMARK    1  A    between atoms: C_3  and  C_6
REMARK    2  A    between atoms: N_4  and  C_12
REMARK                            x       y       z     vdW  Elec       q    Type
REMARK                         _______ _______ _______ _____ _____    ______ ____
ROOT
ATOM      1  C   UNL     1      -1.503   0.063   1.307  0.00  0.00    +0.017 C 
ATOM      2  C   UNL     1      -0.821  -0.594   2.536  0.00  0.00    +0.025 C 
ATOM      3  C   UNL     1      -0.663   0.587   3.518  0.00  0.00    +0.088 C 
ATOM      4  N   UNL     1      -0.697   1.826   2.720  0.00  0.00    -0.298 NA
ATOM      5  C   UNL     1      -0.842   1.464   1.294  0.00  0.00    +0.085 C 
ATOM      6  C   UNL     1      -1.791   2.704   3.155  0.00  0.00    +0.105 C 
ENDROOT
BRANCH   3   7
ATOM      7  C   UNL     1       0.653   0.478   4.243  0.00  0.00    -0.012 A 
ATOM      8  C   UNL     1       0.842   1.126   5.449  0.00  0.00    +0.115 A 
ATOM      9  N   UNL     1       1.991   1.035   6.090  0.00  0.00    -0.263 NA
ATOM     10  C   UNL     1       2.998   0.331   5.613  0.00  0.00    +0.111 A 
ATOM     11  C   UNL     1       2.882  -0.345   4.412  0.00  0.00    +0.020 A 
ATOM     12  C   UNL     1       1.688  -0.278   3.712  0.00  0.00    +0.008 A 
ENDBRANCH   3   7
TORSDOF 1
ENDMDL
MODEL 9
REMARK VINA RESULT:     0.000      5.047      6.945
REMARK INTER + INTRA:          -0.256
REMARK INTER:                   0.000
REMARK INTRA:                  -0.256
REMARK UNBOUND:                -0.256
REMARK  Name = Nicotine.pdb
REMARK  2 active torsions:
REMARK  status: ('A' for Active; 'I' for Inactive)
REMARK    1  A    between atoms: C_3  and  C_6
REMARK    2  A    between atoms: N_4  and  C_12
REMARK                            x       y       z     vdW  Elec       q    Type
REMARK                         _______ _______ _______ _____ _____    ______ ____
ROOT
ATOM      1  C   UNL     1       4.190  -5.125  -3.522  0.00  0.00    +0.017 C 
ATOM      2  C   UNL     1       5.156  -3.935  -3.285  0.00  0.00    +0.025 C 
ATOM      3  C   UNL     1       4.726  -3.409  -1.899  0.00  0.00    +0.088 C 
ATOM      4  N   UNL     1       3.339  -3.855  -1.674  0.00  0.00    -0.298 NA
ATOM      5  C   UNL     1       2.887  -4.606  -2.864  0.00  0.00    +0.085 C 
ATOM      6  C   UNL     1       3.240  -4.678  -0.461  0.00  0.00    +0.105 C 
ENDROOT
BRANCH   3   7
ATOM      7  C   UNL     1       4.792  -1.904  -1.878  0.00  0.00    -0.012 A 
ATOM      8  C   UNL     1       4.888  -1.225  -0.678  0.00  0.00    +0.115 A 
ATOM      9  N   UNL     1       4.947   0.092  -0.651  0.00  0.00    -0.263 NA
ATOM     10  C   UNL     1       4.917   0.810  -1.756  0.00  0.00    +0.111 A 
ATOM     11  C   UNL     1       4.822   0.200  -2.993  0.00  0.00    +0.020 A 
ATOM     12  C   UNL     1       4.764  -1.183  -3.062  0.00  0.00    +0.008 A 
ENDBRANCH   3   7
TORSDOF 1
ENDMDL
MODEL 10
REMARK VINA RESULT:     0.000      5.136      8.186
REMARK INTER + INTRA:          -0.256
REMARK INTER:                   0.000
REMARK INTRA:                  -0.256
REMARK UNBOUND:                -0.256
REMARK  Name = Nicotine.pdb
REMARK  2 active torsions:
REMARK  status: ('A' for Active; 'I' for Inactive)
REMARK    1  A    between atoms: C_3  and  C_6
REMARK    2  A    between atoms: N_4  and  C_12
REMARK                            x       y       z     vdW  Elec       q    Type
REMARK                         _______ _______ _______ _____ _____    ______ ____
ROOT
ATOM      1  C   UNL     1       0.891   2.545   4.752  0.00  0.00    +0.017 C 
ATOM      2  C   UNL     1      -0.389   3.023   4.018  0.00  0.00    +0.025 C 
ATOM      3  C   UNL     1       0.017   2.954   2.530  0.00  0.00    +0.088 C 
ATOM      4  N   UNL     1       1.489   3.012   2.476  0.00  0.00    -0.298 NA
ATOM      5  C   UNL     1       2.006   3.140   3.855  0.00  0.00    +0.085 C 
ATOM      6  C   UNL     1       2.040   1.822   1.815  0.00  0.00    +0.105 C 
ENDROOT
BRANCH   3   7
ATOM      7  C   UNL     1      -0.571   4.122   1.783  0.00  0.00    -0.012 A 
ATOM      8  C   UNL     1      -0.732   4.065   0.411  0.00  0.00    +0.115 A 
ATOM      9  N   UNL     1      -1.246   5.084  -0.250  0.00  0.00    -0.263 NA
ATOM     10  C   UNL     1      -1.625   6.188   0.362  0.00  0.00    +0.111 A 
ATOM     11  C   UNL     1      -1.496   6.317   1.732  0.00  0.00    +0.020 A 
ATOM     12  C   UNL     1      -0.964   5.265   2.462  0.00  0.00    +0.008 A 
ENDBRANCH   3   7
TORSDOF 1
ENDMDL
