MODEL 1
REMARK VINA RESULT:     0.000      0.000      0.000
REMARK INTER + INTRA:          -0.256
REMARK INTER:                   0.000
REMARK INTRA:                  -0.256
REMARK UNBOUND:                -0.256
REMARK  Name = Nicotine.pdb
REMARK  2 active torsions:
REMARK  status: ('A' for Active; 'I' for Inactive)
REMARK    1  A    between atoms: C_3  and  C_6
REMARK    2  A    between atoms: N_4  and  C_12
REMARK                            x       y       z     vdW  Elec       q    Type
REMARK                         _______ _______ _______ _____ _____    ______ ____
ROOT
ATOM      1  C   UNL     1       5.884   2.386  -4.758  0.00  0.00    +0.017 C 
ATOM      2  C   UNL     1       5.077   1.757  -3.591  0.00  0.00    +0.025 C 
ATOM      3  C   UNL     1       4.385   2.979  -2.950  0.00  0.00    +0.088 C 
ATOM      4  N   UNL     1       5.167   4.171  -3.325  0.00  0.00    -0.298 NA
ATOM      5  C   UNL     1       6.320   3.739  -4.144  0.00  0.00    +0.085 C 
ATOM      6  C   UNL     1       4.337   5.139  -4.054  0.00  0.00    +0.105 C 
ENDROOT
BRANCH   3   7
ATOM      7  C   UNL     1       4.365   2.829  -1.451  0.00  0.00    -0.012 A 
ATOM      8  C   UNL     1       3.448   3.530  -0.691  0.00  0.00    +0.115 A 
ATOM      9  N   UNL     1       3.423   3.405   0.622  0.00  0.00    -0.263 NA
ATOM     10  C   UNL     1       4.263   2.612   1.258  0.00  0.00    +0.111 A 
ATOM     11  C   UNL     1       5.207   1.878   0.564  0.00  0.00    +0.020 A 
ATOM     12  C   UNL     1       5.260   1.981  -0.817  0.00  0.00    +0.008 A 
ENDBRANCH   3   7
TORSDOF 1
ENDMDL
MODEL 2
REMARK VINA RESULT:     0.000      5.920      7.935
REMARK INTER + INTRA:          -0.256
REMARK INTER:                   0.000
REMARK INTRA:                  -0.256
REMARK UNBOUND:                -0.256
REMARK  Name = Nicotine.pdb
REMARK  2 active torsions:
REMARK  status: ('A' for Active; 'I' for Inactive)
REMARK    1  A    between atoms: C_3  and  C_6
REMARK    2  A    between atoms: N_4  and  C_12
REMARK                            x       y       z     vdW  Elec       q    Type
REMARK                         _______ _______ _______ _____ _____    ______ ____
ROOT
ATOM      1  C   UNL     1       1.984   3.468   3.696  0.00  0.00    +0.017 C 
ATOM      2  C   UNL     1       0.776   2.570   4.073  0.00  0.00    +0.025 C 
ATOM      3  C   UNL     1       1.430   1.193   4.315  0.00  0.00    +0.088 C 
ATOM      4  N   UNL     1       2.715   1.186   3.591  0.00  0.00    -0.298 NA
ATOM      5  C   UNL     1       2.870   2.482   2.896  0.00  0.00    +0.085 C 
ATOM      6  C   UNL     1       3.835   0.942   4.508  0.00  0.00    +0.105 C 
ENDROOT
BRANCH   3   7
ATOM      7  C   UNL     1       0.537   0.101   3.786  0.00  0.00    -0.012 A 
ATOM      8  C   UNL     1       0.664  -1.193   4.253  0.00  0.00    +0.115 A 
ATOM      9  N   UNL     1      -0.114  -2.155   3.796  0.00  0.00    -0.263 NA
ATOM     10  C   UNL     1      -1.037  -1.924   2.883  0.00  0.00    +0.111 A 
ATOM     11  C   UNL     1      -1.223  -0.654   2.370  0.00  0.00    +0.020 A 
ATOM     12  C   UNL     1      -0.427   0.383   2.830  0.00  0.00    +0.008 A 
ENDBRANCH   3   7
TORSDOF 1
ENDMDL
MODEL 3
REMARK VINA RESULT:     0.000      3.479      4.389
REMARK INTER + INTRA:          -0.256
REMARK INTER:                   0.000
REMARK INTRA:                  -0.256
REMARK UNBOUND:                -0.256
REMARK  Name = Nicotine.pdb
REMARK  2 active torsions:
REMARK  status: ('A' for Active; 'I' for Inactive)
REMARK    1  A    between atoms: C_3  and  C_6
REMARK    2  A    between atoms: N_4  and  C_12
REMARK                            x       y       z     vdW  Elec       q    Type
REMARK                         _______ _______ _______ _____ _____    ______ ____
ROOT
ATOM      1  C   UNL     1       7.498   4.784  -2.622  0.00  0.00    +0.017 C 
ATOM      2  C   UNL     1       8.442   4.171  -1.554  0.00  0.00    +0.025 C 
ATOM      3  C   UNL     1       8.512   2.685  -1.963  0.00  0.00    +0.088 C 
ATOM      4  N   UNL     1       7.311   2.397  -2.768  0.00  0.00    -0.298 NA
ATOM      5  C   UNL     1       6.494   3.626  -2.852  0.00  0.00    +0.085 C 
ATOM      6  C   UNL     1       7.677   1.914  -4.106  0.00  0.00    +0.105 C 
ENDROOT
BRANCH   3   7
ATOM      7  C   UNL     1       8.527   1.815  -0.733  0.00  0.00    -0.012 A 
ATOM      8  C   UNL     1       9.017   0.524  -0.796  0.00  0.00    +0.115 A 
ATOM      9  N   UNL     1       9.034  -0.244   0.276  0.00  0.00    -0.263 NA
ATOM     10  C   UNL     1       8.589   0.182   1.441  0.00  0.00    +0.111 A 
ATOM     11  C   UNL     1       8.085   1.462   1.581  0.00  0.00    +0.020 A 
ATOM     12  C   UNL     1       8.056   2.300   0.477  0.00  0.00    +0.008 A 
ENDBRANCH   3   7
TORSDOF 1
ENDMDL
MODEL 4
REMARK VINA RESULT:     0.000      6.754      8.426
REMARK INTER + INTRA:          -0.256
REMARK INTER:                   0.000
REMARK INTRA:                  -0.256
REMARK UNBOUND:                -0.256
REMARK  Name = Nicotine.pdb
REMARK  2 active torsions:
REMARK  status: ('A' for Active; 'I' for Inactive)
REMARK    1  A    between atoms: C_3  and  C_6
REMARK    2  A    between atoms: N_4  and  C_12
REMARK                            x       y       z     vdW  Elec       q    Type
REMARK                         _______ _______ _______ _____ _____    ______ ____
ROOT
ATOM      1  C   UNL     1       5.251  -1.325   0.612  0.00  0.00    +0.017 C 
ATOM      2  C   UNL     1       5.836  -1.650   2.012  0.00  0.00    +0.025 C 
ATOM      3  C   UNL     1       6.954  -2.666   1.693  0.00  0.00    +0.088 C 
ATOM      4  N   UNL     1       6.635  -3.271   0.387  0.00  0.00    -0.298 NA
ATOM      5  C   UNL     1       5.363  -2.696  -0.100  0.00  0.00    +0.085 C 
ATOM      6  C   UNL     1       7.719  -3.046  -0.577  0.00  0.00    +0.105 C 
ENDROOT
BRANCH   3   7
ATOM      7  C   UNL     1       6.996  -3.732   2.757  0.00  0.00    -0.012 A 
ATOM      8  C   UNL     1       8.142  -4.480   2.951  0.00  0.00    +0.115 A 
ATOM      9  N   UNL     1       8.187  -5.415   3.881  0.00  0.00    -0.263 NA
ATOM     10  C   UNL     1       7.153  -5.673   4.656  0.00  0.00    +0.111 A 
ATOM     11  C   UNL     1       5.973  -4.964   4.521  0.00  0.00    +0.020 A 
ATOM     12  C   UNL     1       5.890  -3.970   3.558  0.00  0.00    +0.008 A 
ENDBRANCH   3   7
TORSDOF 1
ENDMDL
MODEL 5
REMARK VINA RESULT:     0.000      5.431      7.188
REMARK INTER + INTRA:          -0.256
REMARK INTER:                   0.000
REMARK INTRA:                  -0.256
REMARK UNBOUND:                -0.256
REMARK  Name = Nicotine.pdb
REMARK  2 active torsions:
REMARK  status: ('A' for Active; 'I' for Inactive)
REMARK    1  A    between atoms: C_3  and  C_6
REMARK    2  A    between atoms: N_4  and  C_12
REMARK                            x       y       z     vdW  Elec       q    Type
REMARK                         _______ _______ _______ _____ _____    ______ ____
ROOT
ATOM      1  C   UNL     1       4.811  -0.293   0.635  0.00  0.00    +0.017 C 
ATOM      2  C   UNL     1       5.967  -0.135   1.658  0.00  0.00    +0.025 C 
ATOM      3  C   UNL     1       7.087  -1.008   1.053  0.00  0.00    +0.088 C 
ATOM      4  N   UNL     1       6.444  -1.983   0.154  0.00  0.00    -0.298 NA
ATOM      5  C   UNL     1       4.982  -1.769   0.196  0.00  0.00    +0.085 C 
ATOM      6  C   UNL     1       6.956  -1.855  -1.216  0.00  0.00    +0.105 C 
ENDROOT
BRANCH   3   7
ATOM      7  C   UNL     1       7.824  -1.729   2.151  0.00  0.00    -0.012 A 
ATOM      8  C   UNL     1       9.104  -2.207   1.938  0.00  0.00    +0.115 A 
ATOM      9  N   UNL     1       9.756  -2.839   2.894  0.00  0.00    -0.263 NA
ATOM     10  C   UNL     1       9.220  -3.041   4.082  0.00  0.00    +0.111 A 
ATOM     11  C   UNL     1       7.945  -2.592   4.369  0.00  0.00    +0.020 A 
ATOM     12  C   UNL     1       7.231  -1.918   3.390  0.00  0.00    +0.008 A 
ENDBRANCH   3   7
TORSDOF 1
ENDMDL
MODEL 6
REMARK VINA RESULT:     0.000      7.160      8.372
REMARK INTER + INTRA:          -0.256
REMARK INTER:                   0.000
REMARK INTRA:                  -0.256
REMARK UNBOUND:                -0.256
REMARK  Name = Nicotine.pdb
REMARK  2 active torsions:
REMARK  status: ('A' for Active; 'I' for Inactive)
REMARK    1  A    between atoms: C_3  and  C_6
REMARK    2  A    between atoms: N_4  and  C_12
REMARK                            x       y       z     vdW  Elec       q    Type
REMARK                         _______ _______ _______ _____ _____    ______ ____
ROOT
ATOM      1  C   UNL     1      -2.927   2.097  -3.383  0.00  0.00    +0.017 C 
ATOM      2  C   UNL     1      -2.676   0.566  -3.404  0.00  0.00    +0.025 C 
ATOM      3  C   UNL     1      -1.233   0.458  -3.941  0.00  0.00    +0.088 C 
ATOM      4  N   UNL     1      -0.947   1.702  -4.678  0.00  0.00    -0.298 NA
ATOM      5  C   UNL     1      -2.152   2.558  -4.642  0.00  0.00    +0.085 C 
ATOM      6  C   UNL     1       0.212   2.399  -4.106  0.00  0.00    +0.105 C 
ENDROOT
BRANCH   3   7
ATOM      7  C   UNL     1      -1.117  -0.726  -4.866  0.00  0.00    -0.012 A 
ATOM      8  C   UNL     1       0.116  -1.294  -5.122  0.00  0.00    +0.115 A 
ATOM      9  N   UNL     1       0.226  -2.331  -5.931  0.00  0.00    -0.263 NA
ATOM     10  C   UNL     1      -0.824  -2.863  -6.523  0.00  0.00    +0.111 A 
ATOM     11  C   UNL     1      -2.090  -2.348  -6.314  0.00  0.00    +0.020 A 
ATOM     12  C   UNL     1      -2.246  -1.262  -5.466  0.00  0.00    +0.008 A 
ENDBRANCH   3   7
TORSDOF 1
ENDMDL
MODEL 7
REMARK VINA RESULT:     0.000      3.884      5.597
REMARK INTER + INTRA:          -0.256
REMARK INTER:                   0.000
REMARK INTRA:                  -0.256
REMARK UNBOUND:                -0.256
REMARK  Name = Nicotine.pdb
REMARK  2 active torsions:
REMARK  status: ('A' for Active; 'I' for Inactive)
REMARK    1  A    between atoms: C_3  and  C_6
REMARK    2  A    between atoms: N_4  and  C_12
REMARK                            x       y       z     vdW  Elec       q    Type
REMARK                         _______ _______ _______ _____ _____    ______ ____
ROOT
ATOM      1  C   UNL     1       5.344   1.121  -0.709  0.00  0.00    +0.017 C 
ATOM      2  C   UNL     1       4.853   1.173   0.762  0.00  0.00    +0.025 C 
ATOM      3  C   UNL     1       6.125   0.829   1.565  0.00  0.00    +0.088 C 
ATOM      4  N   UNL     1       7.031   0.102   0.657  0.00  0.00    -0.298 NA
ATOM      5  C   UNL     1       6.368  -0.040  -0.656  0.00  0.00    +0.085 C 
ATOM      6  C   UNL     1       8.317   0.800   0.526  0.00  0.00    +0.105 C 
ENDROOT
BRANCH   3   7
ATOM      7  C   UNL     1       5.769  -0.041   2.742  0.00  0.00    -0.012 A 
ATOM      8  C   UNL     1       6.614  -0.122   3.832  0.00  0.00    +0.115 A 
ATOM      9  N   UNL     1       6.310  -0.881   4.867  0.00  0.00    -0.263 NA
ATOM     10  C   UNL     1       5.198  -1.589   4.904  0.00  0.00    +0.111 A 
ATOM     11  C   UNL     1       4.304  -1.558   3.850  0.00  0.00    +0.020 A 
ATOM     12  C   UNL     1       4.588  -0.767   2.747  0.00  0.00    +0.008 A 
ENDBRANCH   3   7
TORSDOF 1
ENDMDL
MODEL 8
REMARK VINA RESULT:     0.000      6.623      8.426
REMARK INTER + INTRA:          -0.256
REMARK INTER:                   0.000
REMARK INTRA:                  -0.256
REMARK UNBOUND:                -0.256
REMARK  Name = Nicotine.pdb
REMARK  2 active torsions:
REMARK  status: ('A' for Active; 'I' for Inactive)
REMARK    1  A    between atoms: C_3  and  C_6
REMARK    2  A    between atoms: N_4  and  C_12
REMARK                            x       y       z     vdW  Elec       q    Type
REMARK                         _______ _______ _______ _____ _____    ______ ____
ROOT
ATOM      1  C   UNL     1       3.853  -1.322   1.585  0.00  0.00    +0.017 C 
ATOM      2  C   UNL     1       2.716  -2.365   1.417  0.00  0.00    +0.025 C 
ATOM      3  C   UNL     1       1.571  -1.769   2.262  0.00  0.00    +0.088 C 
ATOM      4  N   UNL     1       2.182  -0.849   3.239  0.00  0.00    -0.298 NA
ATOM      5  C   UNL     1       3.648  -0.870   3.052  0.00  0.00    +0.085 C 
ATOM      6  C   UNL     1       1.650   0.511   3.087  0.00  0.00    +0.105 C 
ENDROOT
BRANCH   3   7
ATOM      7  C   UNL     1       0.838  -2.871   2.982  0.00  0.00    -0.012 A 
ATOM      8  C   UNL     1      -0.453  -2.673   3.434  0.00  0.00    +0.115 A 
ATOM      9  N   UNL     1      -1.102  -3.632   4.065  0.00  0.00    -0.263 NA
ATOM     10  C   UNL     1      -0.552  -4.809   4.290  0.00  0.00    +0.111 A 
ATOM     11  C   UNL     1       0.736  -5.080   3.867  0.00  0.00    +0.020 A 
ATOM     12  C   UNL     1       1.447  -4.098   3.195  0.00  0.00    +0.008 A 
ENDBRANCH   3   7
TORSDOF 1
ENDMDL
MODEL 9
REMARK VINA RESULT:     0.000      4.837      6.426
REMARK INTER + INTRA:          -0.256
REMARK INTER:                   0.000
REMARK INTRA:                  -0.256
REMARK UNBOUND:                -0.256
REMARK  Name = Nicotine.pdb
REMARK  2 active torsions:
REMARK  status: ('A' for Active; 'I' for Inactive)
REMARK    1  A    between atoms: C_3  and  C_6
REMARK    2  A    between atoms: N_4  and  C_12
REMARK                            x       y       z     vdW  Elec       q    Type
REMARK                         _______ _______ _______ _____ _____    ______ ____
ROOT
ATOM      1  C   UNL     1      -1.568   0.989  -4.717  0.00  0.00    +0.017 C 
ATOM      2  C   UNL     1      -0.277   0.843  -5.565  0.00  0.00    +0.025 C 
ATOM      3  C   UNL     1       0.551  -0.183  -4.762  0.00  0.00    +0.088 C 
ATOM      4  N   UNL     1       0.061  -0.149  -3.373  0.00  0.00    -0.298 NA
ATOM      5  C   UNL     1      -1.012   0.864  -3.276  0.00  0.00    +0.085 C 
ATOM      6  C   UNL     1      -0.424  -1.471  -2.953  0.00  0.00    +0.105 C 
ENDROOT
BRANCH   3   7
ATOM      7  C   UNL     1       2.010   0.194  -4.801  0.00  0.00    -0.012 A 
ATOM      8  C   UNL     1       2.984  -0.755  -4.553  0.00  0.00    +0.115 A 
ATOM      9  N   UNL     1       4.262  -0.434  -4.586  0.00  0.00    -0.263 NA
ATOM     10  C   UNL     1       4.662   0.794  -4.853  0.00  0.00    +0.111 A 
ATOM     11  C   UNL     1       3.746   1.796  -5.111  0.00  0.00    +0.020 A 
ATOM     12  C   UNL     1       2.393   1.495  -5.091  0.00  0.00    +0.008 A 
ENDBRANCH   3   7
TORSDOF 1
ENDMDL
MODEL 10
REMARK VINA RESULT:     0.000      4.751      6.702
REMARK INTER + INTRA:          -0.256
REMARK INTER:                   0.000
REMARK INTRA:                  -0.256
REMARK UNBOUND:                -0.256
REMARK  Name = Nicotine.pdb
REMARK  2 active torsions:
REMARK  status: ('A' for Active; 'I' for Inactive)
REMARK    1  A    between atoms: C_3  and  C_6
REMARK    2  A    between atoms: N_4  and  C_12
REMARK                            x       y       z     vdW  Elec       q    Type
REMARK                         _______ _______ _______ _____ _____    ______ ____
ROOT
ATOM      1  C   UNL     1       4.716   1.896   5.494  0.00  0.00    +0.017 C 
ATOM      2  C   UNL     1       5.063   0.621   4.681  0.00  0.00    +0.025 C 
ATOM      3  C   UNL     1       6.147   1.118   3.701  0.00  0.00    +0.088 C 
ATOM      4  N   UNL     1       5.989   2.578   3.579  0.00  0.00    -0.298 NA
ATOM      5  C   UNL     1       4.845   3.000   4.415  0.00  0.00    +0.085 C 
ATOM      6  C   UNL     1       7.218   3.276   3.977  0.00  0.00    +0.105 C 
ENDROOT
BRANCH   3   7
ATOM      7  C   UNL     1       5.960   0.466   2.356  0.00  0.00    -0.012 A 
ATOM      8  C   UNL     1       7.013   0.392   1.463  0.00  0.00    +0.115 A 
ATOM      9  N   UNL     1       6.858  -0.177   0.283  0.00  0.00    -0.263 NA
ATOM     10  C   UNL     1       5.704  -0.694  -0.091  0.00  0.00    +0.111 A 
ATOM     11  C   UNL     1       4.607  -0.657   0.749  0.00  0.00    +0.020 A 
ATOM     12  C   UNL     1       4.733  -0.072   1.999  0.00  0.00    +0.008 A 
ENDBRANCH   3   7
TORSDOF 1
ENDMDL
