MODEL 1
REMARK VINA RESULT:     0.000      0.000      0.000
REMARK INTER + INTRA:          -0.256
REMARK INTER:                   0.000
REMARK INTRA:                  -0.256
REMARK UNBOUND:                -0.256
REMARK  Name = Nicotine.pdb
REMARK  2 active torsions:
REMARK  status: ('A' for Active; 'I' for Inactive)
REMARK    1  A    between atoms: C_3  and  C_6
REMARK    2  A    between atoms: N_4  and  C_12
REMARK                            x       y       z     vdW  Elec       q    Type
REMARK                         _______ _______ _______ _____ _____    ______ ____
ROOT
ATOM      1  C   UNL     1       1.569   2.995  -1.653  0.00  0.00    +0.017 C 
ATOM      2  C   UNL     1       2.741   1.984  -1.753  0.00  0.00    +0.025 C 
ATOM      3  C   UNL     1       2.026   0.617  -1.688  0.00  0.00    +0.088 C 
ATOM      4  N   UNL     1       0.721   0.837  -1.039  0.00  0.00    -0.298 NA
ATOM      5  C   UNL     1       0.609   2.267  -0.680  0.00  0.00    +0.085 C 
ATOM      6  C   UNL     1      -0.381   0.427  -1.919  0.00  0.00    +0.105 C 
ENDROOT
BRANCH   3   7
ATOM      7  C   UNL     1       2.846  -0.352  -0.877  0.00  0.00    -0.012 A 
ATOM      8  C   UNL     1       2.669  -1.715  -1.027  0.00  0.00    +0.115 A 
ATOM      9  N   UNL     1       3.383  -2.570  -0.322  0.00  0.00    -0.263 NA
ATOM     10  C   UNL     1       4.287  -2.166   0.549  0.00  0.00    +0.111 A 
ATOM     11  C   UNL     1       4.520  -0.818   0.753  0.00  0.00    +0.020 A 
ATOM     12  C   UNL     1       3.792   0.110   0.025  0.00  0.00    +0.008 A 
ENDBRANCH   3   7
TORSDOF 1
ENDMDL
MODEL 2
REMARK VINA RESULT:     0.000      4.706      6.273
REMARK INTER + INTRA:          -0.256
REMARK INTER:                   0.000
REMARK INTRA:                  -0.256
REMARK UNBOUND:                -0.256
REMARK  Name = Nicotine.pdb
REMARK  2 active torsions:
REMARK  status: ('A' for Active; 'I' for Inactive)
REMARK    1  A    between atoms: C_3  and  C_6
REMARK    2  A    between atoms: N_4  and  C_12
REMARK                            x       y       z     vdW  Elec       q    Type
REMARK                         _______ _______ _______ _____ _____    ______ ____
ROOT
ATOM      1  C   UNL     1       2.467  -4.325  -0.633  0.00  0.00    +0.017 C 
ATOM      2  C   UNL     1       0.998  -4.772  -0.413  0.00  0.00    +0.025 C 
ATOM      3  C   UNL     1       0.357  -3.540   0.259  0.00  0.00    +0.088 C 
ATOM      4  N   UNL     1       1.447  -2.759   0.870  0.00  0.00    -0.298 NA
ATOM      5  C   UNL     1       2.724  -3.464   0.628  0.00  0.00    +0.085 C 
ATOM      6  C   UNL     1       1.487  -1.395   0.327  0.00  0.00    +0.105 C 
ENDROOT
BRANCH   3   7
ATOM      7  C   UNL     1      -0.616  -3.983   1.321  0.00  0.00    -0.012 A 
ATOM      8  C   UNL     1      -1.617  -3.133   1.751  0.00  0.00    +0.115 A 
ATOM      9  N   UNL     1      -2.473  -3.513   2.680  0.00  0.00    -0.263 NA
ATOM     10  C   UNL     1      -2.409  -4.708   3.233  0.00  0.00    +0.111 A 
ATOM     11  C   UNL     1      -1.435  -5.612   2.854  0.00  0.00    +0.020 A 
ATOM     12  C   UNL     1      -0.521  -5.250   1.876  0.00  0.00    +0.008 A 
ENDBRANCH   3   7
TORSDOF 1
ENDMDL
MODEL 3
REMARK VINA RESULT:     0.000      2.466      5.121
REMARK INTER + INTRA:          -0.256
REMARK INTER:                   0.000
REMARK INTRA:                  -0.256
REMARK UNBOUND:                -0.256
REMARK  Name = Nicotine.pdb
REMARK  2 active torsions:
REMARK  status: ('A' for Active; 'I' for Inactive)
REMARK    1  A    between atoms: C_3  and  C_6
REMARK    2  A    between atoms: N_4  and  C_12
REMARK                            x       y       z     vdW  Elec       q    Type
REMARK                         _______ _______ _______ _____ _____    ______ ____
ROOT
ATOM      1  C   UNL     1       3.877  -4.653  -0.463  0.00  0.00    +0.017 C 
ATOM      2  C   UNL     1       2.369  -4.333  -0.642  0.00  0.00    +0.025 C 
ATOM      3  C   UNL     1       2.374  -2.832  -1.001  0.00  0.00    +0.088 C 
ATOM      4  N   UNL     1       3.640  -2.266  -0.502  0.00  0.00    -0.298 NA
ATOM      5  C   UNL     1       4.403  -3.340   0.170  0.00  0.00    +0.085 C 
ATOM      6  C   UNL     1       4.419  -1.671  -1.595  0.00  0.00    +0.105 C 
ENDROOT
BRANCH   3   7
ATOM      7  C   UNL     1       1.208  -2.143  -0.342  0.00  0.00    -0.012 A 
ATOM      8  C   UNL     1       0.735  -0.941  -0.835  0.00  0.00    +0.115 A 
ATOM      9  N   UNL     1      -0.285  -0.332  -0.263  0.00  0.00    -0.263 NA
ATOM     10  C   UNL     1      -0.892  -0.838   0.793  0.00  0.00    +0.111 A 
ATOM     11  C   UNL     1      -0.475  -2.036   1.341  0.00  0.00    +0.020 A 
ATOM     12  C   UNL     1       0.591  -2.708   0.764  0.00  0.00    +0.008 A 
ENDBRANCH   3   7
TORSDOF 1
ENDMDL
MODEL 4
REMARK VINA RESULT:     0.000      3.198      4.503
REMARK INTER + INTRA:          -0.256
REMARK INTER:                   0.000
REMARK INTRA:                  -0.256
REMARK UNBOUND:                -0.256
REMARK  Name = Nicotine.pdb
REMARK  2 active torsions:
REMARK  status: ('A' for Active; 'I' for Inactive)
REMARK    1  A    between atoms: C_3  and  C_6
REMARK    2  A    between atoms: N_4  and  C_12
REMARK                            x       y       z     vdW  Elec       q    Type
REMARK                         _______ _______ _______ _____ _____    ______ ____
ROOT
ATOM      1  C   UNL     1       2.830  -2.991  -1.764  0.00  0.00    +0.017 C 
ATOM      2  C   UNL     1       3.710  -3.598  -0.640  0.00  0.00    +0.025 C 
ATOM      3  C   UNL     1       2.727  -3.719   0.544  0.00  0.00    +0.088 C 
ATOM      4  N   UNL     1       1.632  -2.763   0.301  0.00  0.00    -0.298 NA
ATOM      5  C   UNL     1       1.906  -2.043  -0.960  0.00  0.00    +0.085 C 
ATOM      6  C   UNL     1       0.335  -3.451   0.245  0.00  0.00    +0.105 C 
ENDROOT
BRANCH   3   7
ATOM      7  C   UNL     1       3.431  -3.379   1.832  0.00  0.00    -0.012 A 
ATOM      8  C   UNL     1       2.929  -3.821   3.041  0.00  0.00    +0.115 A 
ATOM      9  N   UNL     1       3.538  -3.527   4.173  0.00  0.00    -0.263 NA
ATOM     10  C   UNL     1       4.642  -2.806   4.199  0.00  0.00    +0.111 A 
ATOM     11  C   UNL     1       5.203  -2.330   3.029  0.00  0.00    +0.020 A 
ATOM     12  C   UNL     1       4.593  -2.623   1.819  0.00  0.00    +0.008 A 
ENDBRANCH   3   7
TORSDOF 1
ENDMDL
MODEL 5
REMARK VINA RESULT:     0.000      2.736      3.193
REMARK INTER + INTRA:          -0.256
REMARK INTER:                   0.000
REMARK INTRA:                  -0.256
REMARK UNBOUND:                -0.256
REMARK  Name = Nicotine.pdb
REMARK  2 active torsions:
REMARK  status: ('A' for Active; 'I' for Inactive)
REMARK    1  A    between atoms: C_3  and  C_6
REMARK    2  A    between atoms: N_4  and  C_12
REMARK                            x       y       z     vdW  Elec       q    Type
REMARK                         _______ _______ _______ _____ _____    ______ ____
ROOT
ATOM      1  C   UNL     1       1.278  -0.042  -4.622  0.00  0.00    +0.017 C 
ATOM      2  C   UNL     1       2.343  -1.125  -4.307  0.00  0.00    +0.025 C 
ATOM      3  C   UNL     1       1.518  -2.233  -3.617  0.00  0.00    +0.088 C 
ATOM      4  N   UNL     1       0.297  -1.601  -3.086  0.00  0.00    -0.298 NA
ATOM      5  C   UNL     1       0.342  -0.156  -3.392  0.00  0.00    +0.085 C 
ATOM      6  C   UNL     1      -0.907  -2.223  -3.653  0.00  0.00    +0.105 C 
ENDROOT
BRANCH   3   7
ATOM      7  C   UNL     1       2.314  -2.840  -2.492  0.00  0.00    -0.012 A 
ATOM      8  C   UNL     1       2.005  -4.101  -2.017  0.00  0.00    +0.115 A 
ATOM      9  N   UNL     1       2.697  -4.640  -1.032  0.00  0.00    -0.263 NA
ATOM     10  C   UNL     1       3.703  -4.005  -0.464  0.00  0.00    +0.111 A 
ATOM     11  C   UNL     1       4.072  -2.741  -0.886  0.00  0.00    +0.020 A 
ATOM     12  C   UNL     1       3.370  -2.144  -1.923  0.00  0.00    +0.008 A 
ENDBRANCH   3   7
TORSDOF 1
ENDMDL
MODEL 6
REMARK VINA RESULT:     0.000      2.792      5.337
REMARK INTER + INTRA:          -0.256
REMARK INTER:                   0.000
REMARK INTRA:                  -0.256
REMARK UNBOUND:                -0.256
REMARK  Name = Nicotine.pdb
REMARK  2 active torsions:
REMARK  status: ('A' for Active; 'I' for Inactive)
REMARK    1  A    between atoms: C_3  and  C_6
REMARK    2  A    between atoms: N_4  and  C_12
REMARK                            x       y       z     vdW  Elec       q    Type
REMARK                         _______ _______ _______ _____ _____    ______ ____
ROOT
ATOM      1  C   UNL     1       0.080  -0.339   2.101  0.00  0.00    +0.017 C 
ATOM      2  C   UNL     1      -0.437   1.123   2.124  0.00  0.00    +0.025 C 
ATOM      3  C   UNL     1      -0.218   1.592   0.670  0.00  0.00    +0.088 C 
ATOM      4  N   UNL     1       0.822   0.727   0.084  0.00  0.00    -0.298 NA
ATOM      5  C   UNL     1       1.270  -0.235   1.114  0.00  0.00    +0.085 C 
ATOM      6  C   UNL     1       0.317   0.028  -1.105  0.00  0.00    +0.105 C 
ENDROOT
BRANCH   3   7
ATOM      7  C   UNL     1       0.241   3.027   0.658  0.00  0.00    -0.012 A 
ATOM      8  C   UNL     1       0.087   3.801  -0.477  0.00  0.00    +0.115 A 
ATOM      9  N   UNL     1       0.486   5.058  -0.496  0.00  0.00    -0.263 NA
ATOM     10  C   UNL     1       1.044   5.624   0.556  0.00  0.00    +0.111 A 
ATOM     11  C   UNL     1       1.231   4.912   1.727  0.00  0.00    +0.020 A 
ATOM     12  C   UNL     1       0.819   3.590   1.786  0.00  0.00    +0.008 A 
ENDBRANCH   3   7
TORSDOF 1
ENDMDL
MODEL 7
REMARK VINA RESULT:     0.000      6.282      7.430
REMARK INTER + INTRA:          -0.256
REMARK INTER:                   0.000
REMARK INTRA:                  -0.256
REMARK UNBOUND:                -0.256
REMARK  Name = Nicotine.pdb
REMARK  2 active torsions:
REMARK  status: ('A' for Active; 'I' for Inactive)
REMARK    1  A    between atoms: C_3  and  C_6
REMARK    2  A    between atoms: N_4  and  C_12
REMARK                            x       y       z     vdW  Elec       q    Type
REMARK                         _______ _______ _______ _____ _____    ______ ____
ROOT
ATOM      1  C   UNL     1       5.318  -3.301   3.210  0.00  0.00    +0.017 C 
ATOM      2  C   UNL     1       6.530  -3.403   2.248  0.00  0.00    +0.025 C 
ATOM      3  C   UNL     1       7.588  -2.505   2.924  0.00  0.00    +0.088 C 
ATOM      4  N   UNL     1       6.866  -1.568   3.804  0.00  0.00    -0.298 NA
ATOM      5  C   UNL     1       5.416  -1.829   3.682  0.00  0.00    +0.085 C 
ATOM      6  C   UNL     1       7.311  -1.705   5.197  0.00  0.00    +0.105 C 
ENDROOT
BRANCH   3   7
ATOM      7  C   UNL     1       8.356  -1.740   1.878  0.00  0.00    -0.012 A 
ATOM      8  C   UNL     1       9.606  -1.225   2.166  0.00  0.00    +0.115 A 
ATOM      9  N   UNL     1      10.285  -0.555   1.256  0.00  0.00    -0.263 NA
ATOM     10  C   UNL     1       9.805  -0.348   0.045  0.00  0.00    +0.111 A 
ATOM     11  C   UNL     1       8.562  -0.834  -0.315  0.00  0.00    +0.020 A 
ATOM     12  C   UNL     1       7.821  -1.548   0.613  0.00  0.00    +0.008 A 
ENDBRANCH   3   7
TORSDOF 1
ENDMDL
MODEL 8
REMARK VINA RESULT:     0.000      4.153      5.933
REMARK INTER + INTRA:          -0.256
REMARK INTER:                   0.000
REMARK INTRA:                  -0.256
REMARK UNBOUND:                -0.256
REMARK  Name = Nicotine.pdb
REMARK  2 active torsions:
REMARK  status: ('A' for Active; 'I' for Inactive)
REMARK    1  A    between atoms: C_3  and  C_6
REMARK    2  A    between atoms: N_4  and  C_12
REMARK                            x       y       z     vdW  Elec       q    Type
REMARK                         _______ _______ _______ _____ _____    ______ ____
ROOT
ATOM      1  C   UNL     1      -0.762  -5.639   3.208  0.00  0.00    +0.017 C 
ATOM      2  C   UNL     1       0.465  -4.690   3.252  0.00  0.00    +0.025 C 
ATOM      3  C   UNL     1       0.432  -4.014   1.865  0.00  0.00    +0.088 C 
ATOM      4  N   UNL     1      -0.334  -4.897   0.967  0.00  0.00    -0.298 NA
ATOM      5  C   UNL     1      -0.751  -6.095   1.727  0.00  0.00    +0.085 C 
ATOM      6  C   UNL     1      -1.497  -4.198   0.405  0.00  0.00    +0.105 C 
ENDROOT
BRANCH   3   7
ATOM      7  C   UNL     1       1.835  -3.843   1.345  0.00  0.00    -0.012 A 
ATOM      8  C   UNL     1       2.109  -2.902   0.370  0.00  0.00    +0.115 A 
ATOM      9  N   UNL     1       3.335  -2.745  -0.091  0.00  0.00    -0.263 NA
ATOM     10  C   UNL     1       4.341  -3.473   0.353  0.00  0.00    +0.111 A 
ATOM     11  C   UNL     1       4.143  -4.433   1.328  0.00  0.00    +0.020 A 
ATOM     12  C   UNL     1       2.869  -4.623   1.840  0.00  0.00    +0.008 A 
ENDBRANCH   3   7
TORSDOF 1
ENDMDL
MODEL 9
REMARK VINA RESULT:     0.000      3.933      4.935
REMARK INTER + INTRA:          -0.256
REMARK INTER:                   0.000
REMARK INTRA:                  -0.256
REMARK UNBOUND:                -0.256
REMARK  Name = Nicotine.pdb
REMARK  2 active torsions:
REMARK  status: ('A' for Active; 'I' for Inactive)
REMARK    1  A    between atoms: C_3  and  C_6
REMARK    2  A    between atoms: N_4  and  C_12
REMARK                            x       y       z     vdW  Elec       q    Type
REMARK                         _______ _______ _______ _____ _____    ______ ____
ROOT
ATOM      1  C   UNL     1       0.102  -0.240   2.254  0.00  0.00    +0.017 C 
ATOM      2  C   UNL     1       1.259   0.005   3.259  0.00  0.00    +0.025 C 
ATOM      3  C   UNL     1       2.433  -0.778   2.634  0.00  0.00    +0.088 C 
ATOM      4  N   UNL     1       1.852  -1.799   1.743  0.00  0.00    -0.298 NA
ATOM      5  C   UNL     1       0.378  -1.698   1.808  0.00  0.00    +0.085 C 
ATOM      6  C   UNL     1       2.331  -1.629   0.365  0.00  0.00    +0.105 C 
ENDROOT
BRANCH   3   7
ATOM      7  C   UNL     1       3.241  -1.443   3.718  0.00  0.00    -0.012 A 
ATOM      8  C   UNL     1       4.549  -1.820   3.483  0.00  0.00    +0.115 A 
ATOM      9  N   UNL     1       5.263  -2.402   4.427  0.00  0.00    -0.263 NA
ATOM     10  C   UNL     1       4.764  -2.646   5.622  0.00  0.00    +0.111 A 
ATOM     11  C   UNL     1       3.463  -2.297   5.931  0.00  0.00    +0.020 A 
ATOM     12  C   UNL     1       2.683  -1.678   4.966  0.00  0.00    +0.008 A 
ENDBRANCH   3   7
TORSDOF 1
ENDMDL
MODEL 10
REMARK VINA RESULT:     0.000      6.595      7.507
REMARK INTER + INTRA:          -0.256
REMARK INTER:                   0.000
REMARK INTRA:                  -0.256
REMARK UNBOUND:                -0.256
REMARK  Name = Nicotine.pdb
REMARK  2 active torsions:
REMARK  status: ('A' for Active; 'I' for Inactive)
REMARK    1  A    between atoms: C_3  and  C_6
REMARK    2  A    between atoms: N_4  and  C_12
REMARK                            x       y       z     vdW  Elec       q    Type
REMARK                         _______ _______ _______ _____ _____    ______ ____
ROOT
ATOM      1  C   UNL     1       8.920   0.029  -0.132  0.00  0.00    +0.017 C 
ATOM      2  C   UNL     1       9.019  -1.182   0.832  0.00  0.00    +0.025 C 
ATOM      3  C   UNL     1       9.483  -2.326  -0.095  0.00  0.00    +0.088 C 
ATOM      4  N   UNL     1       9.110  -1.952  -1.471  0.00  0.00    -0.298 NA
ATOM      5  C   UNL     1       8.418  -0.646  -1.433  0.00  0.00    +0.085 C 
ATOM      6  C   UNL     1      10.293  -1.897  -2.340  0.00  0.00    +0.105 C 
ENDROOT
BRANCH   3   7
ATOM      7  C   UNL     1       8.796  -3.610   0.293  0.00  0.00    -0.012 A 
ATOM      8  C   UNL     1       9.339  -4.829  -0.065  0.00  0.00    +0.115 A 
ATOM      9  N   UNL     1       8.744  -5.957   0.270  0.00  0.00    -0.263 NA
ATOM     10  C   UNL     1       7.617  -5.970   0.954  0.00  0.00    +0.111 A 
ATOM     11  C   UNL     1       7.015  -4.790   1.347  0.00  0.00    +0.020 A 
ATOM     12  C   UNL     1       7.614  -3.584   1.018  0.00  0.00    +0.008 A 
ENDBRANCH   3   7
TORSDOF 1
ENDMDL
