MODEL 1
REMARK VINA RESULT:    -4.324      0.000      0.000
REMARK INTER + INTRA:          -4.792
REMARK INTER:                  -4.577
REMARK INTRA:                  -0.215
REMARK UNBOUND:                -0.215
REMARK  Name = Nicotine.pdb
REMARK  2 active torsions:
REMARK  status: ('A' for Active; 'I' for Inactive)
REMARK    1  A    between atoms: C_3  and  C_6
REMARK    2  A    between atoms: N_4  and  C_12
REMARK                            x       y       z     vdW  Elec       q    Type
REMARK                         _______ _______ _______ _____ _____    ______ ____
ROOT
ATOM      1  C   UNL     1       8.283   1.678   0.044  0.00  0.00    +0.017 C 
ATOM      2  C   UNL     1       8.582   0.744  -1.158  0.00  0.00    +0.025 C 
ATOM      3  C   UNL     1       7.690  -0.483  -0.874  0.00  0.00    +0.088 C 
ATOM      4  N   UNL     1       7.404  -0.490   0.572  0.00  0.00    -0.298 NA
ATOM      5  C   UNL     1       8.097   0.657   1.195  0.00  0.00    +0.085 C 
ATOM      6  C   UNL     1       5.958  -0.432   0.823  0.00  0.00    +0.105 C 
ENDROOT
BRANCH   3   7
ATOM      7  C   UNL     1       8.416  -1.745  -1.261  0.00  0.00    -0.012 A 
ATOM      8  C   UNL     1       9.796  -1.762  -1.340  0.00  0.00    +0.115 A 
ATOM      9  N   UNL     1      10.439  -2.862  -1.678  0.00  0.00    -0.263 NA
ATOM     10  C   UNL     1       9.800  -3.982  -1.952  0.00  0.00    +0.111 A 
ATOM     11  C   UNL     1       8.420  -4.042  -1.893  0.00  0.00    +0.020 A 
ATOM     12  C   UNL     1       7.710  -2.906  -1.536  0.00  0.00    +0.008 A 
ENDBRANCH   3   7
TORSDOF 1
ENDMDL
MODEL 2
REMARK VINA RESULT:    -4.223      2.175      3.456
REMARK INTER + INTRA:          -4.685
REMARK INTER:                  -4.431
REMARK INTRA:                  -0.255
REMARK UNBOUND:                -0.215
REMARK  Name = Nicotine.pdb
REMARK  2 active torsions:
REMARK  status: ('A' for Active; 'I' for Inactive)
REMARK    1  A    between atoms: C_3  and  C_6
REMARK    2  A    between atoms: N_4  and  C_12
REMARK                            x       y       z     vdW  Elec       q    Type
REMARK                         _______ _______ _______ _____ _____    ______ ____
ROOT
ATOM      1  C   UNL     1       8.128   4.071  -0.903  0.00  0.00    +0.017 C 
ATOM      2  C   UNL     1       8.367   2.737  -0.148  0.00  0.00    +0.025 C 
ATOM      3  C   UNL     1       9.226   1.926  -1.141  0.00  0.00    +0.088 C 
ATOM      4  N   UNL     1       8.988   2.485  -2.483  0.00  0.00    -0.298 NA
ATOM      5  C   UNL     1       8.006   3.584  -2.368  0.00  0.00    +0.085 C 
ATOM      6  C   UNL     1      10.240   2.959  -3.087  0.00  0.00    +0.105 C 
ENDROOT
BRANCH   3   7
ATOM      7  C   UNL     1       8.816   0.476  -1.108  0.00  0.00    -0.012 A 
ATOM      8  C   UNL     1       9.736  -0.517  -1.383  0.00  0.00    +0.115 A 
ATOM      9  N   UNL     1       9.386  -1.788  -1.357  0.00  0.00    -0.263 NA
ATOM     10  C   UNL     1       8.154  -2.162  -1.070  0.00  0.00    +0.111 A 
ATOM     11  C   UNL     1       7.179  -1.224  -0.783  0.00  0.00    +0.020 A 
ATOM     12  C   UNL     1       7.512   0.121  -0.796  0.00  0.00    +0.008 A 
ENDBRANCH   3   7
TORSDOF 1
ENDMDL
MODEL 3
REMARK VINA RESULT:    -4.112      2.565      5.189
REMARK INTER + INTRA:          -4.568
REMARK INTER:                  -4.358
REMARK INTRA:                  -0.211
REMARK UNBOUND:                -0.215
REMARK  Name = Nicotine.pdb
REMARK  2 active torsions:
REMARK  status: ('A' for Active; 'I' for Inactive)
REMARK    1  A    between atoms: C_3  and  C_6
REMARK    2  A    between atoms: N_4  and  C_12
REMARK                            x       y       z     vdW  Elec       q    Type
REMARK                         _______ _______ _______ _____ _____    ______ ____
ROOT
ATOM      1  C   UNL     1       7.599  -1.069   0.298  0.00  0.00    +0.017 C 
ATOM      2  C   UNL     1       7.437  -0.070  -0.878  0.00  0.00    +0.025 C 
ATOM      3  C   UNL     1       8.770   0.708  -0.859  0.00  0.00    +0.088 C 
ATOM      4  N   UNL     1       9.334   0.576   0.497  0.00  0.00    -0.298 NA
ATOM      5  C   UNL     1       8.400  -0.223   1.319  0.00  0.00    +0.085 C 
ATOM      6  C   UNL     1      10.664  -0.044   0.456  0.00  0.00    +0.105 C 
ENDROOT
BRANCH   3   7
ATOM      7  C   UNL     1       8.521   2.160  -1.173  0.00  0.00    -0.012 A 
ATOM      8  C   UNL     1       8.173   2.549  -2.452  0.00  0.00    +0.115 A 
ATOM      9  N   UNL     1       7.953   3.818  -2.736  0.00  0.00    -0.263 NA
ATOM     10  C   UNL     1       8.055   4.761  -1.819  0.00  0.00    +0.111 A 
ATOM     11  C   UNL     1       8.398   4.447  -0.517  0.00  0.00    +0.020 A 
ATOM     12  C   UNL     1       8.632   3.123  -0.181  0.00  0.00    +0.008 A 
ENDBRANCH   3   7
TORSDOF 1
ENDMDL
MODEL 4
REMARK VINA RESULT:    -4.028      2.682      5.477
REMARK INTER + INTRA:          -4.479
REMARK INTER:                  -4.238
REMARK INTRA:                  -0.241
REMARK UNBOUND:                -0.215
REMARK  Name = Nicotine.pdb
REMARK  2 active torsions:
REMARK  status: ('A' for Active; 'I' for Inactive)
REMARK    1  A    between atoms: C_3  and  C_6
REMARK    2  A    between atoms: N_4  and  C_12
REMARK                            x       y       z     vdW  Elec       q    Type
REMARK                         _______ _______ _______ _____ _____    ______ ____
ROOT
ATOM      1  C   UNL     1       7.202  -0.498  -0.746  0.00  0.00    +0.017 C 
ATOM      2  C   UNL     1       7.890   0.744  -1.372  0.00  0.00    +0.025 C 
ATOM      3  C   UNL     1       8.798   1.250  -0.231  0.00  0.00    +0.088 C 
ATOM      4  N   UNL     1       8.242   0.731   1.032  0.00  0.00    -0.298 NA
ATOM      5  C   UNL     1       7.024  -0.048   0.726  0.00  0.00    +0.085 C 
ATOM      6  C   UNL     1       9.229  -0.092   1.743  0.00  0.00    +0.105 C 
ENDROOT
BRANCH   3   7
ATOM      7  C   UNL     1       8.802   2.756  -0.209  0.00  0.00    -0.012 A 
ATOM      8  C   UNL     1       9.567   3.440   0.717  0.00  0.00    +0.115 A 
ATOM      9  N   UNL     1       9.577   4.759   0.743  0.00  0.00    -0.263 NA
ATOM     10  C   UNL     1       8.865   5.473  -0.106  0.00  0.00    +0.111 A 
ATOM     11  C   UNL     1       8.077   4.859  -1.061  0.00  0.00    +0.020 A 
ATOM     12  C   UNL     1       8.045   3.475  -1.122  0.00  0.00    +0.008 A 
ENDBRANCH   3   7
TORSDOF 1
ENDMDL
MODEL 5
REMARK VINA RESULT:    -3.884      2.491      5.158
REMARK INTER + INTRA:          -4.327
REMARK INTER:                  -4.109
REMARK INTRA:                  -0.218
REMARK UNBOUND:                -0.215
REMARK  Name = Nicotine.pdb
REMARK  2 active torsions:
REMARK  status: ('A' for Active; 'I' for Inactive)
REMARK    1  A    between atoms: C_3  and  C_6
REMARK    2  A    between atoms: N_4  and  C_12
REMARK                            x       y       z     vdW  Elec       q    Type
REMARK                         _______ _______ _______ _____ _____    ______ ____
ROOT
ATOM      1  C   UNL     1       9.438  -0.075   1.484  0.00  0.00    +0.017 C 
ATOM      2  C   UNL     1       9.025   1.411   1.325  0.00  0.00    +0.025 C 
ATOM      3  C   UNL     1       7.955   1.357   0.214  0.00  0.00    +0.088 C 
ATOM      4  N   UNL     1       8.180   0.117  -0.549  0.00  0.00    -0.298 NA
ATOM      5  C   UNL     1       9.351  -0.582   0.023  0.00  0.00    +0.085 C 
ATOM      6  C   UNL     1       6.989  -0.742  -0.522  0.00  0.00    +0.105 C 
ENDROOT
BRANCH   3   7
ATOM      7  C   UNL     1       8.098   2.552  -0.693  0.00  0.00    -0.012 A 
ATOM      8  C   UNL     1       7.957   2.411  -2.061  0.00  0.00    +0.115 A 
ATOM      9  N   UNL     1       8.080   3.452  -2.862  0.00  0.00    -0.263 NA
ATOM     10  C   UNL     1       8.341   4.658  -2.397  0.00  0.00    +0.111 A 
ATOM     11  C   UNL     1       8.494   4.875  -1.041  0.00  0.00    +0.020 A 
ATOM     12  C   UNL     1       8.366   3.806  -0.167  0.00  0.00    +0.008 A 
ENDBRANCH   3   7
TORSDOF 1
ENDMDL
MODEL 6
REMARK VINA RESULT:    -3.774      2.686      4.461
REMARK INTER + INTRA:          -4.210
REMARK INTER:                  -3.955
REMARK INTRA:                  -0.254
REMARK UNBOUND:                -0.215
REMARK  Name = Nicotine.pdb
REMARK  2 active torsions:
REMARK  status: ('A' for Active; 'I' for Inactive)
REMARK    1  A    between atoms: C_3  and  C_6
REMARK    2  A    between atoms: N_4  and  C_12
REMARK                            x       y       z     vdW  Elec       q    Type
REMARK                         _______ _______ _______ _____ _____    ______ ____
ROOT
ATOM      1  C   UNL     1       8.830   4.796  -2.428  0.00  0.00    +0.017 C 
ATOM      2  C   UNL     1       7.965   3.564  -2.057  0.00  0.00    +0.025 C 
ATOM      3  C   UNL     1       8.262   3.370  -0.555  0.00  0.00    +0.088 C 
ATOM      4  N   UNL     1       9.557   4.018  -0.279  0.00  0.00    -0.298 NA
ATOM      5  C   UNL     1      10.083   4.577  -1.543  0.00  0.00    +0.085 C 
ATOM      6  C   UNL     1       9.417   5.063   0.742  0.00  0.00    +0.105 C 
ENDROOT
BRANCH   3   7
ATOM      7  C   UNL     1       8.344   1.900  -0.234  0.00  0.00    -0.012 A 
ATOM      8  C   UNL     1       8.318   1.469   1.079  0.00  0.00    +0.115 A 
ATOM      9  N   UNL     1       8.389   0.185   1.369  0.00  0.00    -0.263 NA
ATOM     10  C   UNL     1       8.486  -0.734   0.429  0.00  0.00    +0.111 A 
ATOM     11  C   UNL     1       8.516  -0.378  -0.907  0.00  0.00    +0.020 A 
ATOM     12  C   UNL     1       8.439   0.963  -1.251  0.00  0.00    +0.008 A 
ENDBRANCH   3   7
TORSDOF 1
ENDMDL
MODEL 7
REMARK VINA RESULT:    -3.676      3.561      6.689
REMARK INTER + INTRA:          -4.106
REMARK INTER:                  -3.902
REMARK INTRA:                  -0.204
REMARK UNBOUND:                -0.215
REMARK  Name = Nicotine.pdb
REMARK  2 active torsions:
REMARK  status: ('A' for Active; 'I' for Inactive)
REMARK    1  A    between atoms: C_3  and  C_6
REMARK    2  A    between atoms: N_4  and  C_12
REMARK                            x       y       z     vdW  Elec       q    Type
REMARK                         _______ _______ _______ _____ _____    ______ ____
ROOT
ATOM      1  C   UNL     1       8.422   0.671  -0.624  0.00  0.00    +0.017 C 
ATOM      2  C   UNL     1       8.208   1.833   0.382  0.00  0.00    +0.025 C 
ATOM      3  C   UNL     1       8.161   3.077  -0.529  0.00  0.00    +0.088 C 
ATOM      4  N   UNL     1       8.851   2.727  -1.784  0.00  0.00    -0.298 NA
ATOM      5  C   UNL     1       9.342   1.336  -1.678  0.00  0.00    +0.085 C 
ATOM      6  C   UNL     1       7.958   2.884  -2.939  0.00  0.00    +0.105 C 
ENDROOT
BRANCH   3   7
ATOM      7  C   UNL     1       8.864   4.230   0.140  0.00  0.00    -0.012 A 
ATOM      8  C   UNL     1       9.462   4.062   1.375  0.00  0.00    +0.115 A 
ATOM      9  N   UNL     1      10.080   5.065   1.967  0.00  0.00    -0.263 NA
ATOM     10  C   UNL     1      10.153   6.259   1.413  0.00  0.00    +0.111 A 
ATOM     11  C   UNL     1       9.579   6.502   0.178  0.00  0.00    +0.020 A 
ATOM     12  C   UNL     1       8.925   5.470  -0.477  0.00  0.00    +0.008 A 
ENDBRANCH   3   7
TORSDOF 1
ENDMDL
MODEL 8
REMARK VINA RESULT:    -3.599      2.464      4.404
REMARK INTER + INTRA:          -4.024
REMARK INTER:                  -3.810
REMARK INTRA:                  -0.214
REMARK UNBOUND:                -0.215
REMARK  Name = Nicotine.pdb
REMARK  2 active torsions:
REMARK  status: ('A' for Active; 'I' for Inactive)
REMARK    1  A    between atoms: C_3  and  C_6
REMARK    2  A    between atoms: N_4  and  C_12
REMARK                            x       y       z     vdW  Elec       q    Type
REMARK                         _______ _______ _______ _____ _____    ______ ____
ROOT
ATOM      1  C   UNL     1       8.495  -1.980  -0.816  0.00  0.00    +0.017 C 
ATOM      2  C   UNL     1       9.507  -0.909  -1.301  0.00  0.00    +0.025 C 
ATOM      3  C   UNL     1       8.936   0.399  -0.712  0.00  0.00    +0.088 C 
ATOM      4  N   UNL     1       7.502   0.173  -0.455  0.00  0.00    -0.298 NA
ATOM      5  C   UNL     1       7.158  -1.200  -0.881  0.00  0.00    +0.085 C 
ATOM      6  C   UNL     1       7.181   0.382   0.963  0.00  0.00    +0.105 C 
ENDROOT
BRANCH   3   7
ATOM      7  C   UNL     1       9.111   1.524  -1.698  0.00  0.00    -0.012 A 
ATOM      8  C   UNL     1      10.375   1.919  -2.092  0.00  0.00    +0.115 A 
ATOM      9  N   UNL     1      10.537   2.903  -2.955  0.00  0.00    -0.263 NA
ATOM     10  C   UNL     1       9.509   3.546  -3.473  0.00  0.00    +0.111 A 
ATOM     11  C   UNL     1       8.215   3.207  -3.127  0.00  0.00    +0.020 A 
ATOM     12  C   UNL     1       8.005   2.174  -2.227  0.00  0.00    +0.008 A 
ENDBRANCH   3   7
TORSDOF 1
ENDMDL
MODEL 9
REMARK VINA RESULT:    -3.566      4.767      6.638
REMARK INTER + INTRA:          -3.989
REMARK INTER:                  -3.785
REMARK INTRA:                  -0.204
REMARK UNBOUND:                -0.215
REMARK  Name = Nicotine.pdb
REMARK  2 active torsions:
REMARK  status: ('A' for Active; 'I' for Inactive)
REMARK    1  A    between atoms: C_3  and  C_6
REMARK    2  A    between atoms: N_4  and  C_12
REMARK                            x       y       z     vdW  Elec       q    Type
REMARK                         _______ _______ _______ _____ _____    ______ ____
ROOT
ATOM      1  C   UNL     1       9.342   4.174   4.198  0.00  0.00    +0.017 C 
ATOM      2  C   UNL     1       9.372   3.284   2.927  0.00  0.00    +0.025 C 
ATOM      3  C   UNL     1       9.942   4.233   1.852  0.00  0.00    +0.088 C 
ATOM      4  N   UNL     1       9.695   5.612   2.310  0.00  0.00    -0.298 NA
ATOM      5  C   UNL     1       8.978   5.557   3.602  0.00  0.00    +0.085 C 
ATOM      6  C   UNL     1      10.953   6.358   2.437  0.00  0.00    +0.105 C 
ENDROOT
BRANCH   3   7
ATOM      7  C   UNL     1       9.246   3.995   0.537  0.00  0.00    -0.012 A 
ATOM      8  C   UNL     1       9.104   2.713   0.043  0.00  0.00    +0.115 A 
ATOM      9  N   UNL     1       8.496   2.496  -1.107  0.00  0.00    -0.263 NA
ATOM     10  C   UNL     1       8.002   3.484  -1.827  0.00  0.00    +0.111 A 
ATOM     11  C   UNL     1       8.105   4.794  -1.396  0.00  0.00    +0.020 A 
ATOM     12  C   UNL     1       8.734   5.060  -0.189  0.00  0.00    +0.008 A 
ENDBRANCH   3   7
TORSDOF 1
ENDMDL
MODEL 10
REMARK VINA RESULT:    -3.458      5.543      7.421
REMARK INTER + INTRA:          -3.876
REMARK INTER:                  -3.626
REMARK INTRA:                  -0.250
REMARK UNBOUND:                -0.215
REMARK  Name = Nicotine.pdb
REMARK  2 active torsions:
REMARK  status: ('A' for Active; 'I' for Inactive)
REMARK    1  A    between atoms: C_3  and  C_6
REMARK    2  A    between atoms: N_4  and  C_12
REMARK                            x       y       z     vdW  Elec       q    Type
REMARK                         _______ _______ _______ _____ _____    ______ ____
ROOT
ATOM      1  C   UNL     1       8.434   3.040  -3.347  0.00  0.00    +0.017 C 
ATOM      2  C   UNL     1       7.952   3.858  -2.120  0.00  0.00    +0.025 C 
ATOM      3  C   UNL     1       9.089   4.883  -1.920  0.00  0.00    +0.088 C 
ATOM      4  N   UNL     1      10.296   4.327  -2.556  0.00  0.00    -0.298 NA
ATOM      5  C   UNL     1       9.965   2.999  -3.116  0.00  0.00    +0.085 C 
ATOM      6  C   UNL     1      10.805   5.227  -3.599  0.00  0.00    +0.105 C 
ENDROOT
BRANCH   3   7
ATOM      7  C   UNL     1       9.334   5.095  -0.448  0.00  0.00    -0.012 A 
ATOM      8  C   UNL     1       9.616   6.357   0.039  0.00  0.00    +0.115 A 
ATOM      9  N   UNL     1       9.832   6.551   1.325  0.00  0.00    -0.263 NA
ATOM     10  C   UNL     1       9.789   5.559   2.193  0.00  0.00    +0.111 A 
ATOM     11  C   UNL     1       9.512   4.269   1.779  0.00  0.00    +0.020 A 
ATOM     12  C   UNL     1       9.275   4.028   0.435  0.00  0.00    +0.008 A 
ENDBRANCH   3   7
TORSDOF 1
ENDMDL
