MODEL 1
REMARK VINA RESULT:    -1.310      0.000      0.000
REMARK INTER + INTRA:          -1.634
REMARK INTER:                  -1.386
REMARK INTRA:                  -0.248
REMARK UNBOUND:                -0.248
REMARK  Name = Nicotine.pdb
REMARK  2 active torsions:
REMARK  status: ('A' for Active; 'I' for Inactive)
REMARK    1  A    between atoms: C_3  and  C_6
REMARK    2  A    between atoms: N_4  and  C_12
REMARK                            x       y       z     vdW  Elec       q    Type
REMARK                         _______ _______ _______ _____ _____    ______ ____
ROOT
ATOM      1  C   UNL     1       0.539   6.879  -5.648  0.00  0.00    +0.017 C 
ATOM      2  C   UNL     1      -0.297   7.027  -4.349  0.00  0.00    +0.025 C 
ATOM      3  C   UNL     1      -0.728   5.576  -4.047  0.00  0.00    +0.088 C 
ATOM      4  N   UNL     1      -0.654   4.825  -5.314  0.00  0.00    -0.298 NA
ATOM      5  C   UNL     1      -0.223   5.749  -6.384  0.00  0.00    +0.085 C 
ATOM      6  C   UNL     1       0.266   3.686  -5.199  0.00  0.00    +0.105 C 
ENDROOT
BRANCH   3   7
ATOM      7  C   UNL     1      -2.140   5.559  -3.522  0.00  0.00    -0.012 A 
ATOM      8  C   UNL     1      -2.701   4.383  -3.063  0.00  0.00    +0.115 A 
ATOM      9  N   UNL     1      -3.936   4.360  -2.601  0.00  0.00    -0.263 NA
ATOM     10  C   UNL     1      -4.680   5.447  -2.558  0.00  0.00    +0.111 A 
ATOM     11  C   UNL     1      -4.187   6.660  -2.999  0.00  0.00    +0.020 A 
ATOM     12  C   UNL     1      -2.890   6.724  -3.486  0.00  0.00    +0.008 A 
ENDBRANCH   3   7
TORSDOF 1
ENDMDL
MODEL 2
REMARK VINA RESULT:    -1.283      1.312      4.758
REMARK INTER + INTRA:          -1.606
REMARK INTER:                  -1.390
REMARK INTRA:                  -0.217
REMARK UNBOUND:                -0.248
REMARK  Name = Nicotine.pdb
REMARK  2 active torsions:
REMARK  status: ('A' for Active; 'I' for Inactive)
REMARK    1  A    between atoms: C_3  and  C_6
REMARK    2  A    between atoms: N_4  and  C_12
REMARK                            x       y       z     vdW  Elec       q    Type
REMARK                         _______ _______ _______ _____ _____    ______ ____
ROOT
ATOM      1  C   UNL     1      -5.084   4.329  -2.825  0.00  0.00    +0.017 C 
ATOM      2  C   UNL     1      -3.624   3.968  -3.207  0.00  0.00    +0.025 C 
ATOM      3  C   UNL     1      -2.845   5.253  -2.853  0.00  0.00    +0.088 C 
ATOM      4  N   UNL     1      -3.814   6.364  -2.847  0.00  0.00    -0.298 NA
ATOM      5  C   UNL     1      -5.145   5.830  -3.205  0.00  0.00    +0.085 C 
ATOM      6  C   UNL     1      -3.847   7.027  -1.537  0.00  0.00    +0.105 C 
ENDROOT
BRANCH   3   7
ATOM      7  C   UNL     1      -1.778   5.507  -3.885  0.00  0.00    -0.012 A 
ATOM      8  C   UNL     1      -1.487   6.796  -4.288  0.00  0.00    +0.115 A 
ATOM      9  N   UNL     1      -0.554   7.027  -5.191  0.00  0.00    -0.263 NA
ATOM     10  C   UNL     1       0.133   6.047  -5.744  0.00  0.00    +0.111 A 
ATOM     11  C   UNL     1      -0.102   4.731  -5.391  0.00  0.00    +0.020 A 
ATOM     12  C   UNL     1      -1.072   4.450  -4.440  0.00  0.00    +0.008 A 
ENDBRANCH   3   7
TORSDOF 1
ENDMDL
MODEL 3
REMARK VINA RESULT:    -1.208      1.347      4.614
REMARK INTER + INTRA:          -1.527
REMARK INTER:                  -1.271
REMARK INTRA:                  -0.256
REMARK UNBOUND:                -0.248
REMARK  Name = Nicotine.pdb
REMARK  2 active torsions:
REMARK  status: ('A' for Active; 'I' for Inactive)
REMARK    1  A    between atoms: C_3  and  C_6
REMARK    2  A    between atoms: N_4  and  C_12
REMARK                            x       y       z     vdW  Elec       q    Type
REMARK                         _______ _______ _______ _____ _____    ______ ____
ROOT
ATOM      1  C   UNL     1      -2.793   4.678  -1.166  0.00  0.00    +0.017 C 
ATOM      2  C   UNL     1      -1.526   5.106  -1.952  0.00  0.00    +0.025 C 
ATOM      3  C   UNL     1      -2.078   6.126  -2.971  0.00  0.00    +0.088 C 
ATOM      4  N   UNL     1      -3.517   5.850  -3.130  0.00  0.00    -0.298 NA
ATOM      5  C   UNL     1      -3.871   4.695  -2.278  0.00  0.00    +0.085 C 
ATOM      6  C   UNL     1      -4.321   7.028  -2.782  0.00  0.00    +0.105 C 
ENDROOT
BRANCH   3   7
ATOM      7  C   UNL     1      -1.374   5.961  -4.293  0.00  0.00    -0.012 A 
ATOM      8  C   UNL     1      -1.279   7.024  -5.172  0.00  0.00    +0.115 A 
ATOM      9  N   UNL     1      -0.665   6.889  -6.331  0.00  0.00    -0.263 NA
ATOM     10  C   UNL     1      -0.121   5.745  -6.698  0.00  0.00    +0.111 A 
ATOM     11  C   UNL     1      -0.176   4.638  -5.871  0.00  0.00    +0.020 A 
ATOM     12  C   UNL     1      -0.809   4.744  -4.642  0.00  0.00    +0.008 A 
ENDBRANCH   3   7
TORSDOF 1
ENDMDL
MODEL 4
REMARK VINA RESULT:    -1.196      1.405      4.420
REMARK INTER + INTRA:          -1.514
REMARK INTER:                  -1.303
REMARK INTRA:                  -0.211
REMARK UNBOUND:                -0.248
REMARK  Name = Nicotine.pdb
REMARK  2 active torsions:
REMARK  status: ('A' for Active; 'I' for Inactive)
REMARK    1  A    between atoms: C_3  and  C_6
REMARK    2  A    between atoms: N_4  and  C_12
REMARK                            x       y       z     vdW  Elec       q    Type
REMARK                         _______ _______ _______ _____ _____    ______ ____
ROOT
ATOM      1  C   UNL     1      -3.743   4.324  -2.407  0.00  0.00    +0.017 C 
ATOM      2  C   UNL     1      -2.704   3.924  -3.486  0.00  0.00    +0.025 C 
ATOM      3  C   UNL     1      -1.632   5.028  -3.362  0.00  0.00    +0.088 C 
ATOM      4  N   UNL     1      -2.277   6.194  -2.732  0.00  0.00    -0.298 NA
ATOM      5  C   UNL     1      -3.699   5.870  -2.487  0.00  0.00    +0.085 C 
ATOM      6  C   UNL     1      -1.597   6.562  -1.484  0.00  0.00    +0.105 C 
ENDROOT
BRANCH   3   7
ATOM      7  C   UNL     1      -1.119   5.400  -4.729  0.00  0.00    -0.012 A 
ATOM      8  C   UNL     1      -0.603   4.432  -5.569  0.00  0.00    +0.115 A 
ATOM      9  N   UNL     1      -0.151   4.749  -6.767  0.00  0.00    -0.263 NA
ATOM     10  C   UNL     1      -0.172   5.991  -7.209  0.00  0.00    +0.111 A 
ATOM     11  C   UNL     1      -0.674   7.013  -6.425  0.00  0.00    +0.020 A 
ATOM     12  C   UNL     1      -1.163   6.717  -5.162  0.00  0.00    +0.008 A 
ENDBRANCH   3   7
TORSDOF 1
ENDMDL
MODEL 5
REMARK VINA RESULT:    -1.195      1.582      1.809
REMARK INTER + INTRA:          -1.513
REMARK INTER:                  -1.259
REMARK INTRA:                  -0.254
REMARK UNBOUND:                -0.248
REMARK  Name = Nicotine.pdb
REMARK  2 active torsions:
REMARK  status: ('A' for Active; 'I' for Inactive)
REMARK    1  A    between atoms: C_3  and  C_6
REMARK    2  A    between atoms: N_4  and  C_12
REMARK                            x       y       z     vdW  Elec       q    Type
REMARK                         _______ _______ _______ _____ _____    ______ ____
ROOT
ATOM      1  C   UNL     1      -0.022   5.944  -5.622  0.00  0.00    +0.017 C 
ATOM      2  C   UNL     1      -0.808   6.977  -4.773  0.00  0.00    +0.025 C 
ATOM      3  C   UNL     1      -0.852   6.318  -3.378  0.00  0.00    +0.088 C 
ATOM      4  N   UNL     1      -0.653   4.871  -3.572  0.00  0.00    -0.298 NA
ATOM      5  C   UNL     1      -0.514   4.604  -5.020  0.00  0.00    +0.085 C 
ATOM      6  C   UNL     1       0.525   4.397  -2.834  0.00  0.00    +0.105 C 
ENDROOT
BRANCH   3   7
ATOM      7  C   UNL     1      -2.190   6.571  -2.733  0.00  0.00    -0.012 A 
ATOM      8  C   UNL     1      -2.292   6.694  -1.360  0.00  0.00    +0.115 A 
ATOM      9  N   UNL     1      -3.459   6.916  -0.787  0.00  0.00    -0.263 NA
ATOM     10  C   UNL     1      -4.567   7.028  -1.493  0.00  0.00    +0.111 A 
ATOM     11  C   UNL     1      -4.543   6.917  -2.871  0.00  0.00    +0.020 A 
ATOM     12  C   UNL     1      -3.333   6.689  -3.508  0.00  0.00    +0.008 A 
ENDBRANCH   3   7
TORSDOF 1
ENDMDL
MODEL 6
REMARK VINA RESULT:    -1.190      1.539      4.510
REMARK INTER + INTRA:          -1.508
REMARK INTER:                  -1.252
REMARK INTRA:                  -0.256
REMARK UNBOUND:                -0.248
REMARK  Name = Nicotine.pdb
REMARK  2 active torsions:
REMARK  status: ('A' for Active; 'I' for Inactive)
REMARK    1  A    between atoms: C_3  and  C_6
REMARK    2  A    between atoms: N_4  and  C_12
REMARK                            x       y       z     vdW  Elec       q    Type
REMARK                         _______ _______ _______ _____ _____    ______ ____
ROOT
ATOM      1  C   UNL     1      -4.798   7.026  -1.244  0.00  0.00    +0.017 C 
ATOM      2  C   UNL     1      -4.335   6.794  -2.706  0.00  0.00    +0.025 C 
ATOM      3  C   UNL     1      -3.424   5.554  -2.589  0.00  0.00    +0.088 C 
ATOM      4  N   UNL     1      -2.966   5.478  -1.190  0.00  0.00    -0.298 NA
ATOM      5  C   UNL     1      -3.531   6.625  -0.447  0.00  0.00    +0.085 C 
ATOM      6  C   UNL     1      -3.362   4.205  -0.575  0.00  0.00    +0.105 C 
ENDROOT
BRANCH   3   7
ATOM      7  C   UNL     1      -2.240   5.699  -3.510  0.00  0.00    -0.012 A 
ATOM      8  C   UNL     1      -1.490   4.593  -3.865  0.00  0.00    +0.115 A 
ATOM      9  N   UNL     1      -0.453   4.711  -4.670  0.00  0.00    -0.263 NA
ATOM     10  C   UNL     1      -0.090   5.877  -5.166  0.00  0.00    +0.111 A 
ATOM     11  C   UNL     1      -0.791   7.028  -4.856  0.00  0.00    +0.020 A 
ATOM     12  C   UNL     1      -1.891   6.942  -4.017  0.00  0.00    +0.008 A 
ENDBRANCH   3   7
TORSDOF 1
ENDMDL
MODEL 7
REMARK VINA RESULT:    -1.128      1.548      2.285
REMARK INTER + INTRA:          -1.442
REMARK INTER:                  -1.232
REMARK INTRA:                  -0.210
REMARK UNBOUND:                -0.248
REMARK  Name = Nicotine.pdb
REMARK  2 active torsions:
REMARK  status: ('A' for Active; 'I' for Inactive)
REMARK    1  A    between atoms: C_3  and  C_6
REMARK    2  A    between atoms: N_4  and  C_12
REMARK                            x       y       z     vdW  Elec       q    Type
REMARK                         _______ _______ _______ _____ _____    ______ ____
ROOT
ATOM      1  C   UNL     1       0.117   4.000  -5.490  0.00  0.00    +0.017 C 
ATOM      2  C   UNL     1      -0.695   5.217  -4.974  0.00  0.00    +0.025 C 
ATOM      3  C   UNL     1      -1.238   4.722  -3.617  0.00  0.00    +0.088 C 
ATOM      4  N   UNL     1      -1.235   3.248  -3.657  0.00  0.00    -0.298 NA
ATOM      5  C   UNL     1      -0.739   2.814  -4.980  0.00  0.00    +0.085 C 
ATOM      6  C   UNL     1      -0.408   2.694  -2.577  0.00  0.00    +0.105 C 
ENDROOT
BRANCH   3   7
ATOM      7  C   UNL     1      -2.643   5.227  -3.412  0.00  0.00    -0.012 A 
ATOM      8  C   UNL     1      -2.920   6.578  -3.502  0.00  0.00    +0.115 A 
ATOM      9  N   UNL     1      -4.147   7.028  -3.324  0.00  0.00    -0.263 NA
ATOM     10  C   UNL     1      -5.151   6.217  -3.055  0.00  0.00    +0.111 A 
ATOM     11  C   UNL     1      -4.950   4.853  -2.950  0.00  0.00    +0.020 A 
ATOM     12  C   UNL     1      -3.675   4.342  -3.136  0.00  0.00    +0.008 A 
ENDBRANCH   3   7
TORSDOF 1
ENDMDL
MODEL 8
REMARK VINA RESULT:    -1.121      2.732      4.234
REMARK INTER + INTRA:          -1.434
REMARK INTER:                  -1.209
REMARK INTRA:                  -0.226
REMARK UNBOUND:                -0.248
REMARK  Name = Nicotine.pdb
REMARK  2 active torsions:
REMARK  status: ('A' for Active; 'I' for Inactive)
REMARK    1  A    between atoms: C_3  and  C_6
REMARK    2  A    between atoms: N_4  and  C_12
REMARK                            x       y       z     vdW  Elec       q    Type
REMARK                         _______ _______ _______ _____ _____    ______ ____
ROOT
ATOM      1  C   UNL     1      -4.867   7.028  -3.203  0.00  0.00    +0.017 C 
ATOM      2  C   UNL     1      -5.121   5.514  -2.973  0.00  0.00    +0.025 C 
ATOM      3  C   UNL     1      -3.756   5.009  -2.458  0.00  0.00    +0.088 C 
ATOM      4  N   UNL     1      -2.735   5.970  -2.910  0.00  0.00    -0.298 NA
ATOM      5  C   UNL     1      -3.400   7.028  -3.700  0.00  0.00    +0.085 C 
ATOM      6  C   UNL     1      -2.008   6.542  -1.769  0.00  0.00    +0.105 C 
ENDROOT
BRANCH   3   7
ATOM      7  C   UNL     1      -3.467   3.644  -3.028  0.00  0.00    -0.012 A 
ATOM      8  C   UNL     1      -2.213   3.081  -2.889  0.00  0.00    +0.115 A 
ATOM      9  N   UNL     1      -1.951   1.887  -3.385  0.00  0.00    -0.263 NA
ATOM     10  C   UNL     1      -2.865   1.188  -4.028  0.00  0.00    +0.111 A 
ATOM     11  C   UNL     1      -4.142   1.687  -4.205  0.00  0.00    +0.020 A 
ATOM     12  C   UNL     1      -4.456   2.936  -3.693  0.00  0.00    +0.008 A 
ENDBRANCH   3   7
TORSDOF 1
ENDMDL
MODEL 9
REMARK VINA RESULT:    -1.071      2.412      4.541
REMARK INTER + INTRA:          -1.382
REMARK INTER:                  -1.178
REMARK INTRA:                  -0.204
REMARK UNBOUND:                -0.248
REMARK  Name = Nicotine.pdb
REMARK  2 active torsions:
REMARK  status: ('A' for Active; 'I' for Inactive)
REMARK    1  A    between atoms: C_3  and  C_6
REMARK    2  A    between atoms: N_4  and  C_12
REMARK                            x       y       z     vdW  Elec       q    Type
REMARK                         _______ _______ _______ _____ _____    ______ ____
ROOT
ATOM      1  C   UNL     1      -2.685   1.355  -5.740  0.00  0.00    +0.017 C 
ATOM      2  C   UNL     1      -1.726   2.303  -6.507  0.00  0.00    +0.025 C 
ATOM      3  C   UNL     1      -0.931   2.985  -5.373  0.00  0.00    +0.088 C 
ATOM      4  N   UNL     1      -1.742   2.880  -4.147  0.00  0.00    -0.298 NA
ATOM      5  C   UNL     1      -3.008   2.191  -4.477  0.00  0.00    +0.085 C 
ATOM      6  C   UNL     1      -1.012   2.166  -3.091  0.00  0.00    +0.105 C 
ENDROOT
BRANCH   3   7
ATOM      7  C   UNL     1      -0.695   4.434  -5.711  0.00  0.00    -0.012 A 
ATOM      8  C   UNL     1      -0.200   4.790  -6.951  0.00  0.00    +0.115 A 
ATOM      9  N   UNL     1       0.010   6.056  -7.256  0.00  0.00    -0.263 NA
ATOM     10  C   UNL     1      -0.241   7.026  -6.398  0.00  0.00    +0.111 A 
ATOM     11  C   UNL     1      -0.738   6.746  -5.139  0.00  0.00    +0.020 A 
ATOM     12  C   UNL     1      -0.976   5.427  -4.785  0.00  0.00    +0.008 A 
ENDBRANCH   3   7
TORSDOF 1
ENDMDL
MODEL 10
REMARK VINA RESULT:    -1.070      1.461      1.693
REMARK INTER + INTRA:          -1.381
REMARK INTER:                  -1.143
REMARK INTRA:                  -0.238
REMARK UNBOUND:                -0.248
REMARK  Name = Nicotine.pdb
REMARK  2 active torsions:
REMARK  status: ('A' for Active; 'I' for Inactive)
REMARK    1  A    between atoms: C_3  and  C_6
REMARK    2  A    between atoms: N_4  and  C_12
REMARK                            x       y       z     vdW  Elec       q    Type
REMARK                         _______ _______ _______ _____ _____    ______ ____
ROOT
ATOM      1  C   UNL     1       0.978   6.512  -7.088  0.00  0.00    +0.017 C 
ATOM      2  C   UNL     1       0.672   7.028  -5.657  0.00  0.00    +0.025 C 
ATOM      3  C   UNL     1       0.399   5.728  -4.871  0.00  0.00    +0.088 C 
ATOM      4  N   UNL     1       0.013   4.697  -5.851  0.00  0.00    -0.298 NA
ATOM      5  C   UNL     1       0.012   5.306  -7.199  0.00  0.00    +0.085 C 
ATOM      6  C   UNL     1       0.925   3.548  -5.793  0.00  0.00    +0.105 C 
ENDROOT
BRANCH   3   7
ATOM      7  C   UNL     1      -0.723   5.949  -3.890  0.00  0.00    -0.012 A 
ATOM      8  C   UNL     1      -0.595   5.535  -2.577  0.00  0.00    +0.115 A 
ATOM      9  N   UNL     1      -1.572   5.725  -1.712  0.00  0.00    -0.263 NA
ATOM     10  C   UNL     1      -2.701   6.311  -2.058  0.00  0.00    +0.111 A 
ATOM     11  C   UNL     1      -2.901   6.752  -3.353  0.00  0.00    +0.020 A 
ATOM     12  C   UNL     1      -1.894   6.575  -4.290  0.00  0.00    +0.008 A 
ENDBRANCH   3   7
TORSDOF 1
ENDMDL
