MODEL 1
REMARK VINA RESULT:    -3.447      0.000      0.000
REMARK INTER + INTRA:          -3.849
REMARK INTER:                  -3.649
REMARK INTRA:                  -0.200
REMARK UNBOUND:                -0.200
REMARK  Name = Nicotine.pdb
REMARK  2 active torsions:
REMARK  status: ('A' for Active; 'I' for Inactive)
REMARK    1  A    between atoms: C_3  and  C_6
REMARK    2  A    between atoms: N_4  and  C_12
REMARK                            x       y       z     vdW  Elec       q    Type
REMARK                         _______ _______ _______ _____ _____    ______ ____
ROOT
ATOM      1  C   UNL     1      -2.073   2.335   0.884  0.00  0.00    +0.017 C 
ATOM      2  C   UNL     1      -1.500   2.257  -0.555  0.00  0.00    +0.025 C 
ATOM      3  C   UNL     1      -1.537   3.727  -1.024  0.00  0.00    +0.088 C 
ATOM      4  N   UNL     1      -2.542   4.423  -0.200  0.00  0.00    -0.298 NA
ATOM      5  C   UNL     1      -3.141   3.448   0.735  0.00  0.00    +0.085 C 
ATOM      6  C   UNL     1      -1.939   5.548   0.526  0.00  0.00    +0.105 C 
ENDROOT
BRANCH   3   7
ATOM      7  C   UNL     1      -1.931   3.791  -2.477  0.00  0.00    -0.012 A 
ATOM      8  C   UNL     1      -0.984   3.604  -3.467  0.00  0.00    +0.115 A 
ATOM      9  N   UNL     1      -1.320   3.659  -4.741  0.00  0.00    -0.263 NA
ATOM     10  C   UNL     1      -2.561   3.892  -5.121  0.00  0.00    +0.111 A 
ATOM     11  C   UNL     1      -3.562   4.089  -4.188  0.00  0.00    +0.020 A 
ATOM     12  C   UNL     1      -3.247   4.034  -2.839  0.00  0.00    +0.008 A 
ENDBRANCH   3   7
TORSDOF 1
ENDMDL
MODEL 2
REMARK VINA RESULT:    -3.429      5.513      8.369
REMARK INTER + INTRA:          -3.829
REMARK INTER:                  -3.589
REMARK INTRA:                  -0.240
REMARK UNBOUND:                -0.200
REMARK  Name = Nicotine.pdb
REMARK  2 active torsions:
REMARK  status: ('A' for Active; 'I' for Inactive)
REMARK    1  A    between atoms: C_3  and  C_6
REMARK    2  A    between atoms: N_4  and  C_12
REMARK                            x       y       z     vdW  Elec       q    Type
REMARK                         _______ _______ _______ _____ _____    ______ ____
ROOT
ATOM      1  C   UNL     1      -2.195  -0.585  -0.097  0.00  0.00    +0.017 C 
ATOM      2  C   UNL     1      -2.266  -1.915   0.697  0.00  0.00    +0.025 C 
ATOM      3  C   UNL     1      -2.933  -1.493   2.024  0.00  0.00    +0.088 C 
ATOM      4  N   UNL     1      -2.711  -0.045   2.183  0.00  0.00    -0.298 NA
ATOM      5  C   UNL     1      -1.918   0.439   1.032  0.00  0.00    +0.085 C 
ATOM      6  C   UNL     1      -3.986   0.676   2.285  0.00  0.00    +0.105 C 
ENDROOT
BRANCH   3   7
ATOM      7  C   UNL     1      -2.306  -2.239   3.173  0.00  0.00    -0.012 A 
ATOM      8  C   UNL     1      -3.098  -2.827   4.141  0.00  0.00    +0.115 A 
ATOM      9  N   UNL     1      -2.557  -3.481   5.150  0.00  0.00    -0.263 NA
ATOM     10  C   UNL     1      -1.251  -3.601   5.278  0.00  0.00    +0.111 A 
ATOM     11  C   UNL     1      -0.394  -3.040   4.348  0.00  0.00    +0.020 A 
ATOM     12  C   UNL     1      -0.927  -2.349   3.271  0.00  0.00    +0.008 A 
ENDBRANCH   3   7
TORSDOF 1
ENDMDL
MODEL 3
REMARK VINA RESULT:    -3.399      6.250      8.730
REMARK INTER + INTRA:          -3.797
REMARK INTER:                  -3.579
REMARK INTRA:                  -0.218
REMARK UNBOUND:                -0.200
REMARK  Name = Nicotine.pdb
REMARK  2 active torsions:
REMARK  status: ('A' for Active; 'I' for Inactive)
REMARK    1  A    between atoms: C_3  and  C_6
REMARK    2  A    between atoms: N_4  and  C_12
REMARK                            x       y       z     vdW  Elec       q    Type
REMARK                         _______ _______ _______ _____ _____    ______ ____
ROOT
ATOM      1  C   UNL     1      -3.669  -2.383   2.881  0.00  0.00    +0.017 C 
ATOM      2  C   UNL     1      -2.501  -2.722   3.845  0.00  0.00    +0.025 C 
ATOM      3  C   UNL     1      -1.413  -1.704   3.443  0.00  0.00    +0.088 C 
ATOM      4  N   UNL     1      -1.706  -1.272   2.065  0.00  0.00    -0.298 NA
ATOM      5  C   UNL     1      -2.906  -1.993   1.591  0.00  0.00    +0.085 C 
ATOM      6  C   UNL     1      -1.904   0.182   1.999  0.00  0.00    +0.105 C 
ENDROOT
BRANCH   3   7
ATOM      7  C   UNL     1      -0.056  -2.355   3.500  0.00  0.00    -0.012 A 
ATOM      8  C   UNL     1       0.870  -2.130   2.499  0.00  0.00    +0.115 A 
ATOM      9  N   UNL     1       2.061  -2.696   2.542  0.00  0.00    -0.263 NA
ATOM     10  C   UNL     1       2.414  -3.493   3.530  0.00  0.00    +0.111 A 
ATOM     11  C   UNL     1       1.541  -3.765   4.567  0.00  0.00    +0.020 A 
ATOM     12  C   UNL     1       0.283  -3.183   4.560  0.00  0.00    +0.008 A 
ENDBRANCH   3   7
TORSDOF 1
ENDMDL
MODEL 4
REMARK VINA RESULT:    -3.258      5.524      7.470
REMARK INTER + INTRA:          -3.648
REMARK INTER:                  -3.425
REMARK INTRA:                  -0.223
REMARK UNBOUND:                -0.200
REMARK  Name = Nicotine.pdb
REMARK  2 active torsions:
REMARK  status: ('A' for Active; 'I' for Inactive)
REMARK    1  A    between atoms: C_3  and  C_6
REMARK    2  A    between atoms: N_4  and  C_12
REMARK                            x       y       z     vdW  Elec       q    Type
REMARK                         _______ _______ _______ _____ _____    ______ ____
ROOT
ATOM      1  C   UNL     1      -2.076  -3.713   5.332  0.00  0.00    +0.017 C 
ATOM      2  C   UNL     1      -1.269  -2.862   4.317  0.00  0.00    +0.025 C 
ATOM      3  C   UNL     1      -2.215  -1.678   4.027  0.00  0.00    +0.088 C 
ATOM      4  N   UNL     1      -3.582  -2.119   4.361  0.00  0.00    -0.298 NA
ATOM      5  C   UNL     1      -3.525  -3.524   4.818  0.00  0.00    +0.085 C 
ATOM      6  C   UNL     1      -4.178  -1.254   5.387  0.00  0.00    +0.105 C 
ENDROOT
BRANCH   3   7
ATOM      7  C   UNL     1      -2.138  -1.305   2.569  0.00  0.00    -0.012 A 
ATOM      8  C   UNL     1      -1.807  -0.016   2.194  0.00  0.00    +0.115 A 
ATOM      9  N   UNL     1      -1.737   0.319   0.920  0.00  0.00    -0.263 NA
ATOM     10  C   UNL     1      -1.977  -0.552  -0.040  0.00  0.00    +0.111 A 
ATOM     11  C   UNL     1      -2.313  -1.860   0.259  0.00  0.00    +0.020 A 
ATOM     12  C   UNL     1      -2.391  -2.250   1.587  0.00  0.00    +0.008 A 
ENDBRANCH   3   7
TORSDOF 1
ENDMDL
MODEL 5
REMARK VINA RESULT:    -3.193      3.558      5.494
REMARK INTER + INTRA:          -3.580
REMARK INTER:                  -3.346
REMARK INTRA:                  -0.234
REMARK UNBOUND:                -0.200
REMARK  Name = Nicotine.pdb
REMARK  2 active torsions:
REMARK  status: ('A' for Active; 'I' for Inactive)
REMARK    1  A    between atoms: C_3  and  C_6
REMARK    2  A    between atoms: N_4  and  C_12
REMARK                            x       y       z     vdW  Elec       q    Type
REMARK                         _______ _______ _______ _____ _____    ______ ____
ROOT
ATOM      1  C   UNL     1      -0.475   3.308  -0.009  0.00  0.00    +0.017 C 
ATOM      2  C   UNL     1      -1.435   2.160  -0.419  0.00  0.00    +0.025 C 
ATOM      3  C   UNL     1      -2.175   1.840   0.898  0.00  0.00    +0.088 C 
ATOM      4  N   UNL     1      -1.325   2.318   2.004  0.00  0.00    -0.298 NA
ATOM      5  C   UNL     1      -0.089   2.894   1.433  0.00  0.00    +0.085 C 
ATOM      6  C   UNL     1      -2.036   3.306   2.825  0.00  0.00    +0.105 C 
ENDROOT
BRANCH   3   7
ATOM      7  C   UNL     1      -2.386   0.353   1.018  0.00  0.00    -0.012 A 
ATOM      8  C   UNL     1      -2.954  -0.182   2.159  0.00  0.00    +0.115 A 
ATOM      9  N   UNL     1      -3.143  -1.483   2.272  0.00  0.00    -0.263 NA
ATOM     10  C   UNL     1      -2.801  -2.319   1.312  0.00  0.00    +0.111 A 
ATOM     11  C   UNL     1      -2.228  -1.857   0.142  0.00  0.00    +0.020 A 
ATOM     12  C   UNL     1      -2.019  -0.495  -0.015  0.00  0.00    +0.008 A 
ENDBRANCH   3   7
TORSDOF 1
ENDMDL
MODEL 6
REMARK VINA RESULT:    -3.175      8.624     10.690
REMARK INTER + INTRA:          -3.561
REMARK INTER:                  -3.373
REMARK INTRA:                  -0.187
REMARK UNBOUND:                -0.200
REMARK  Name = Nicotine.pdb
REMARK  2 active torsions:
REMARK  status: ('A' for Active; 'I' for Inactive)
REMARK    1  A    between atoms: C_3  and  C_6
REMARK    2  A    between atoms: N_4  and  C_12
REMARK                            x       y       z     vdW  Elec       q    Type
REMARK                         _______ _______ _______ _____ _____    ______ ____
ROOT
ATOM      1  C   UNL     1       4.966  -3.220   5.899  0.00  0.00    +0.017 C 
ATOM      2  C   UNL     1       3.449  -2.896   5.887  0.00  0.00    +0.025 C 
ATOM      3  C   UNL     1       2.890  -3.891   4.848  0.00  0.00    +0.088 C 
ATOM      4  N   UNL     1       4.010  -4.286   3.975  0.00  0.00    -0.298 NA
ATOM      5  C   UNL     1       5.224  -3.564   4.410  0.00  0.00    +0.085 C 
ATOM      6  C   UNL     1       4.219  -5.739   4.011  0.00  0.00    +0.105 C 
ENDROOT
BRANCH   3   7
ATOM      7  C   UNL     1       1.811  -3.227   4.032  0.00  0.00    -0.012 A 
ATOM      8  C   UNL     1       2.104  -2.687   2.794  0.00  0.00    +0.115 A 
ATOM      9  N   UNL     1       1.165  -2.104   2.073  0.00  0.00    -0.263 NA
ATOM     10  C   UNL     1      -0.079  -2.013   2.499  0.00  0.00    +0.111 A 
ATOM     11  C   UNL     1      -0.447  -2.530   3.727  0.00  0.00    +0.020 A 
ATOM     12  C   UNL     1       0.512  -3.155   4.510  0.00  0.00    +0.008 A 
ENDBRANCH   3   7
TORSDOF 1
ENDMDL
MODEL 7
REMARK VINA RESULT:    -3.095      5.508      7.555
REMARK INTER + INTRA:          -3.476
REMARK INTER:                  -3.268
REMARK INTRA:                  -0.208
REMARK UNBOUND:                -0.200
REMARK  Name = Nicotine.pdb
REMARK  2 active torsions:
REMARK  status: ('A' for Active; 'I' for Inactive)
REMARK    1  A    between atoms: C_3  and  C_6
REMARK    2  A    between atoms: N_4  and  C_12
REMARK                            x       y       z     vdW  Elec       q    Type
REMARK                         _______ _______ _______ _____ _____    ______ ____
ROOT
ATOM      1  C   UNL     1      -0.422  -2.154   5.724  0.00  0.00    +0.017 C 
ATOM      2  C   UNL     1      -0.728  -1.040   4.689  0.00  0.00    +0.025 C 
ATOM      3  C   UNL     1      -2.060  -1.503   4.062  0.00  0.00    +0.088 C 
ATOM      4  N   UNL     1      -2.165  -2.956   4.283  0.00  0.00    -0.298 NA
ATOM      5  C   UNL     1      -0.950  -3.414   4.992  0.00  0.00    +0.085 C 
ATOM      6  C   UNL     1      -3.376  -3.288   5.045  0.00  0.00    +0.105 C 
ENDROOT
BRANCH   3   7
ATOM      7  C   UNL     1      -2.063  -1.206   2.585  0.00  0.00    -0.012 A 
ATOM      8  C   UNL     1      -1.773   0.066   2.127  0.00  0.00    +0.115 A 
ATOM      9  N   UNL     1      -1.773   0.334   0.836  0.00  0.00    -0.263 NA
ATOM     10  C   UNL     1      -2.047  -0.590  -0.064  0.00  0.00    +0.111 A 
ATOM     11  C   UNL     1      -2.345  -1.884   0.319  0.00  0.00    +0.020 A 
ATOM     12  C   UNL     1      -2.350  -2.205   1.668  0.00  0.00    +0.008 A 
ENDBRANCH   3   7
TORSDOF 1
ENDMDL
MODEL 8
REMARK VINA RESULT:    -3.057      4.240      5.928
REMARK INTER + INTRA:          -3.436
REMARK INTER:                  -3.227
REMARK INTRA:                  -0.209
REMARK UNBOUND:                -0.200
REMARK  Name = Nicotine.pdb
REMARK  2 active torsions:
REMARK  status: ('A' for Active; 'I' for Inactive)
REMARK    1  A    between atoms: C_3  and  C_6
REMARK    2  A    between atoms: N_4  and  C_12
REMARK                            x       y       z     vdW  Elec       q    Type
REMARK                         _______ _______ _______ _____ _____    ______ ____
ROOT
ATOM      1  C   UNL     1      -2.073  -1.982   0.138  0.00  0.00    +0.017 C 
ATOM      2  C   UNL     1      -2.171  -0.436   0.056  0.00  0.00    +0.025 C 
ATOM      3  C   UNL     1      -2.174  -0.009   1.539  0.00  0.00    +0.088 C 
ATOM      4  N   UNL     1      -2.623  -1.171   2.327  0.00  0.00    -0.298 NA
ATOM      5  C   UNL     1      -2.921  -2.283   1.399  0.00  0.00    +0.085 C 
ATOM      6  C   UNL     1      -1.608  -1.565   3.312  0.00  0.00    +0.105 C 
ENDROOT
BRANCH   3   7
ATOM      7  C   UNL     1      -3.122   1.145   1.739  0.00  0.00    -0.012 A 
ATOM      8  C   UNL     1      -2.796   2.405   1.275  0.00  0.00    +0.115 A 
ATOM      9  N   UNL     1      -3.620   3.421   1.446  0.00  0.00    -0.263 NA
ATOM     10  C   UNL     1      -4.777   3.278   2.061  0.00  0.00    +0.111 A 
ATOM     11  C   UNL     1      -5.171   2.048   2.552  0.00  0.00    +0.020 A 
ATOM     12  C   UNL     1      -4.333   0.956   2.386  0.00  0.00    +0.008 A 
ENDBRANCH   3   7
TORSDOF 1
ENDMDL
MODEL 9
REMARK VINA RESULT:    -2.988      6.361      8.917
REMARK INTER + INTRA:          -3.362
REMARK INTER:                  -3.107
REMARK INTRA:                  -0.255
REMARK UNBOUND:                -0.200
REMARK  Name = Nicotine.pdb
REMARK  2 active torsions:
REMARK  status: ('A' for Active; 'I' for Inactive)
REMARK    1  A    between atoms: C_3  and  C_6
REMARK    2  A    between atoms: N_4  and  C_12
REMARK                            x       y       z     vdW  Elec       q    Type
REMARK                         _______ _______ _______ _____ _____    ______ ____
ROOT
ATOM      1  C   UNL     1      -2.530  -0.454   1.739  0.00  0.00    +0.017 C 
ATOM      2  C   UNL     1      -1.726  -1.779   1.811  0.00  0.00    +0.025 C 
ATOM      3  C   UNL     1      -1.615  -2.036   3.329  0.00  0.00    +0.088 C 
ATOM      4  N   UNL     1      -1.800  -0.740   4.006  0.00  0.00    -0.298 NA
ATOM      5  C   UNL     1      -1.993   0.305   2.979  0.00  0.00    +0.085 C 
ATOM      6  C   UNL     1      -2.939  -0.787   4.931  0.00  0.00    +0.105 C 
ENDROOT
BRANCH   3   7
ATOM      7  C   UNL     1      -0.256  -2.598   3.655  0.00  0.00    -0.012 A 
ATOM      8  C   UNL     1      -0.086  -3.424   4.750  0.00  0.00    +0.115 A 
ATOM      9  N   UNL     1       1.101  -3.920   5.043  0.00  0.00    -0.263 NA
ATOM     10  C   UNL     1       2.164  -3.651   4.312  0.00  0.00    +0.111 A 
ATOM     11  C   UNL     1       2.071  -2.833   3.202  0.00  0.00    +0.020 A 
ATOM     12  C   UNL     1       0.839  -2.298   2.859  0.00  0.00    +0.008 A 
ENDBRANCH   3   7
TORSDOF 1
ENDMDL
MODEL 10
REMARK VINA RESULT:    -2.892      1.974      4.482
REMARK INTER + INTRA:          -3.261
REMARK INTER:                  -3.051
REMARK INTRA:                  -0.210
REMARK UNBOUND:                -0.200
REMARK  Name = Nicotine.pdb
REMARK  2 active torsions:
REMARK  status: ('A' for Active; 'I' for Inactive)
REMARK    1  A    between atoms: C_3  and  C_6
REMARK    2  A    between atoms: N_4  and  C_12
REMARK                            x       y       z     vdW  Elec       q    Type
REMARK                         _______ _______ _______ _____ _____    ______ ____
ROOT
ATOM      1  C   UNL     1      -3.551   4.054  -4.242  0.00  0.00    +0.017 C 
ATOM      2  C   UNL     1      -3.137   4.009  -2.748  0.00  0.00    +0.025 C 
ATOM      3  C   UNL     1      -2.020   5.071  -2.664  0.00  0.00    +0.088 C 
ATOM      4  N   UNL     1      -1.479   5.244  -4.025  0.00  0.00    -0.298 NA
ATOM      5  C   UNL     1      -2.192   4.322  -4.935  0.00  0.00    +0.085 C 
ATOM      6  C   UNL     1      -1.614   6.636  -4.472  0.00  0.00    +0.105 C 
ENDROOT
BRANCH   3   7
ATOM      7  C   UNL     1      -0.932   4.598  -1.735  0.00  0.00    -0.012 A 
ATOM      8  C   UNL     1      -0.955   3.313  -1.227  0.00  0.00    +0.115 A 
ATOM      9  N   UNL     1      -0.007   2.892  -0.414  0.00  0.00    -0.263 NA
ATOM     10  C   UNL     1       0.994   3.671  -0.053  0.00  0.00    +0.111 A 
ATOM     11  C   UNL     1       1.085   4.969  -0.522  0.00  0.00    +0.020 A 
ATOM     12  C   UNL     1       0.108   5.445  -1.383  0.00  0.00    +0.008 A 
ENDBRANCH   3   7
TORSDOF 1
ENDMDL
