MODEL 1
REMARK VINA RESULT:     3.756      0.000      0.000
REMARK INTER + INTRA:           3.804
REMARK INTER:                   3.976
REMARK INTRA:                  -0.171
REMARK UNBOUND:                -0.171
REMARK  Name = Nicotine.pdb
REMARK  2 active torsions:
REMARK  status: ('A' for Active; 'I' for Inactive)
REMARK    1  A    between atoms: C_3  and  C_6
REMARK    2  A    between atoms: N_4  and  C_12
REMARK                            x       y       z     vdW  Elec       q    Type
REMARK                         _______ _______ _______ _____ _____    ______ ____
ROOT
ATOM      1  C   UNL     1      10.912  -3.052  -7.136  0.00  0.00    +0.017 C 
ATOM      2  C   UNL     1      10.248  -4.173  -6.293  0.00  0.00    +0.025 C 
ATOM      3  C   UNL     1       8.827  -3.624  -6.044  0.00  0.00    +0.088 C 
ATOM      4  N   UNL     1       8.890  -2.160  -6.203  0.00  0.00    -0.298 NA
ATOM      5  C   UNL     1      10.284  -1.779  -6.514  0.00  0.00    +0.085 C 
ATOM      6  C   UNL     1       7.972  -1.706  -7.256  0.00  0.00    +0.105 C 
ENDROOT
BRANCH   3   7
ATOM      7  C   UNL     1       8.383  -3.970  -4.646  0.00  0.00    -0.012 A 
ATOM      8  C   UNL     1       8.987  -3.378  -3.553  0.00  0.00    +0.115 A 
ATOM      9  N   UNL     1       8.603  -3.675  -2.327  0.00  0.00    -0.263 NA
ATOM     10  C   UNL     1       7.637  -4.542  -2.094  0.00  0.00    +0.111 A 
ATOM     11  C   UNL     1       6.986  -5.174  -3.137  0.00  0.00    +0.020 A 
ATOM     12  C   UNL     1       7.359  -4.883  -4.440  0.00  0.00    +0.008 A 
ENDBRANCH   3   7
TORSDOF 1
ENDMDL
MODEL 2
REMARK VINA RESULT:     5.538      1.705      2.411
REMARK INTER + INTRA:           5.690
REMARK INTER:                   5.869
REMARK INTRA:                  -0.178
REMARK UNBOUND:                -0.171
REMARK  Name = Nicotine.pdb
REMARK  2 active torsions:
REMARK  status: ('A' for Active; 'I' for Inactive)
REMARK    1  A    between atoms: C_3  and  C_6
REMARK    2  A    between atoms: N_4  and  C_12
REMARK                            x       y       z     vdW  Elec       q    Type
REMARK                         _______ _______ _______ _____ _____    ______ ____
ROOT
ATOM      1  C   UNL     1       9.834  -1.781  -4.383  0.00  0.00    +0.017 C 
ATOM      2  C   UNL     1       9.268  -2.954  -3.541  0.00  0.00    +0.025 C 
ATOM      3  C   UNL     1       8.580  -3.841  -4.601  0.00  0.00    +0.088 C 
ATOM      4  N   UNL     1       8.285  -2.984  -5.763  0.00  0.00    -0.298 NA
ATOM      5  C   UNL     1       8.734  -1.608  -5.460  0.00  0.00    +0.085 C 
ATOM      6  C   UNL     1       8.936  -3.496  -6.975  0.00  0.00    +0.105 C 
ENDROOT
BRANCH   3   7
ATOM      7  C   UNL     1       7.301  -4.408  -4.042  0.00  0.00    -0.012 A 
ATOM      8  C   UNL     1       6.106  -3.732  -4.206  0.00  0.00    +0.115 A 
ATOM      9  N   UNL     1       4.982  -4.222  -3.721  0.00  0.00    -0.263 NA
ATOM     10  C   UNL     1       4.950  -5.365  -3.064  0.00  0.00    +0.111 A 
ATOM     11  C   UNL     1       6.105  -6.097  -2.862  0.00  0.00    +0.020 A 
ATOM     12  C   UNL     1       7.305  -5.616  -3.362  0.00  0.00    +0.008 A 
ENDBRANCH   3   7
TORSDOF 1
ENDMDL
MODEL 3
REMARK VINA RESULT:     5.976      1.434      4.327
REMARK INTER + INTRA:           6.154
REMARK INTER:                   6.368
REMARK INTRA:                  -0.214
REMARK UNBOUND:                -0.171
REMARK  Name = Nicotine.pdb
REMARK  2 active torsions:
REMARK  status: ('A' for Active; 'I' for Inactive)
REMARK    1  A    between atoms: C_3  and  C_6
REMARK    2  A    between atoms: N_4  and  C_12
REMARK                            x       y       z     vdW  Elec       q    Type
REMARK                         _______ _______ _______ _____ _____    ______ ____
ROOT
ATOM      1  C   UNL     1       8.150  -4.248  -1.973  0.00  0.00    +0.017 C 
ATOM      2  C   UNL     1       9.031  -3.224  -2.736  0.00  0.00    +0.025 C 
ATOM      3  C   UNL     1       8.244  -2.996  -4.044  0.00  0.00    +0.088 C 
ATOM      4  N   UNL     1       7.374  -4.170  -4.241  0.00  0.00    -0.298 NA
ATOM      5  C   UNL     1       7.607  -5.120  -3.132  0.00  0.00    +0.085 C 
ATOM      6  C   UNL     1       5.962  -3.774  -4.308  0.00  0.00    +0.105 C 
ENDROOT
BRANCH   3   7
ATOM      7  C   UNL     1       9.199  -2.864  -5.201  0.00  0.00    -0.012 A 
ATOM      8  C   UNL     1      10.069  -1.792  -5.271  0.00  0.00    +0.115 A 
ATOM      9  N   UNL     1      10.909  -1.669  -6.280  0.00  0.00    -0.263 NA
ATOM     10  C   UNL     1      10.954  -2.554  -7.256  0.00  0.00    +0.111 A 
ATOM     11  C   UNL     1      10.115  -3.653  -7.254  0.00  0.00    +0.020 A 
ATOM     12  C   UNL     1       9.222  -3.818  -6.206  0.00  0.00    +0.008 A 
ENDBRANCH   3   7
TORSDOF 1
ENDMDL
MODEL 4
REMARK VINA RESULT:     6.440      7.257      9.421
REMARK INTER + INTRA:           6.645
REMARK INTER:                   6.885
REMARK INTRA:                  -0.240
REMARK UNBOUND:                -0.171
REMARK  Name = Nicotine.pdb
REMARK  2 active torsions:
REMARK  status: ('A' for Active; 'I' for Inactive)
REMARK    1  A    between atoms: C_3  and  C_6
REMARK    2  A    between atoms: N_4  and  C_12
REMARK                            x       y       z     vdW  Elec       q    Type
REMARK                         _______ _______ _______ _____ _____    ______ ____
ROOT
ATOM      1  C   UNL     1      -2.475  -3.089  -3.044  0.00  0.00    +0.017 C 
ATOM      2  C   UNL     1      -1.173  -2.937  -3.874  0.00  0.00    +0.025 C 
ATOM      3  C   UNL     1      -0.305  -4.113  -3.378  0.00  0.00    +0.088 C 
ATOM      4  N   UNL     1      -0.807  -4.494  -2.045  0.00  0.00    -0.298 NA
ATOM      5  C   UNL     1      -1.924  -3.593  -1.687  0.00  0.00    +0.085 C 
ATOM      6  C   UNL     1      -1.235  -5.899  -2.025  0.00  0.00    +0.105 C 
ENDROOT
BRANCH   3   7
ATOM      7  C   UNL     1       1.135  -3.682  -3.281  0.00  0.00    -0.012 A 
ATOM      8  C   UNL     1       2.104  -4.573  -2.860  0.00  0.00    +0.115 A 
ATOM      9  N   UNL     1       3.368  -4.204  -2.773  0.00  0.00    -0.263 NA
ATOM     10  C   UNL     1       3.756  -2.982  -3.079  0.00  0.00    +0.111 A 
ATOM     11  C   UNL     1       2.843  -2.037  -3.508  0.00  0.00    +0.020 A 
ATOM     12  C   UNL     1       1.507  -2.389  -3.617  0.00  0.00    +0.008 A 
ENDBRANCH   3   7
TORSDOF 1
ENDMDL
