MODEL 1
REMARK VINA RESULT:    -3.352      0.000      0.000
REMARK INTER + INTRA:          -3.732
REMARK INTER:                  -3.548
REMARK INTRA:                  -0.183
REMARK UNBOUND:                -0.183
REMARK  Name = Nicotine.pdb
REMARK  2 active torsions:
REMARK  status: ('A' for Active; 'I' for Inactive)
REMARK    1  A    between atoms: C_3  and  C_6
REMARK    2  A    between atoms: N_4  and  C_12
REMARK                            x       y       z     vdW  Elec       q    Type
REMARK                         _______ _______ _______ _____ _____    ______ ____
ROOT
ATOM      1  C   UNL     1       7.589  -1.198  -3.403  0.00  0.00    +0.017 C 
ATOM      2  C   UNL     1       6.143  -0.654  -3.542  0.00  0.00    +0.025 C 
ATOM      3  C   UNL     1       6.360   0.861  -3.747  0.00  0.00    +0.088 C 
ATOM      4  N   UNL     1       7.688   1.190  -3.198  0.00  0.00    -0.298 NA
ATOM      5  C   UNL     1       8.287  -0.043  -2.643  0.00  0.00    +0.085 C 
ATOM      6  C   UNL     1       8.554   1.778  -4.228  0.00  0.00    +0.105 C 
ENDROOT
BRANCH   3   7
ATOM      7  C   UNL     1       5.295   1.635  -3.015  0.00  0.00    -0.012 A 
ATOM      8  C   UNL     1       5.530   2.112  -1.739  0.00  0.00    +0.115 A 
ATOM      9  N   UNL     1       4.603   2.791  -1.092  0.00  0.00    -0.263 NA
ATOM     10  C   UNL     1       3.425   3.041  -1.628  0.00  0.00    +0.111 A 
ATOM     11  C   UNL     1       3.119   2.597  -2.901  0.00  0.00    +0.020 A 
ATOM     12  C   UNL     1       4.070   1.884  -3.614  0.00  0.00    +0.008 A 
ENDBRANCH   3   7
TORSDOF 1
ENDMDL
MODEL 2
REMARK VINA RESULT:    -3.339      2.336      5.769
REMARK INTER + INTRA:          -3.717
REMARK INTER:                  -3.493
REMARK INTRA:                  -0.224
REMARK UNBOUND:                -0.183
REMARK  Name = Nicotine.pdb
REMARK  2 active torsions:
REMARK  status: ('A' for Active; 'I' for Inactive)
REMARK    1  A    between atoms: C_3  and  C_6
REMARK    2  A    between atoms: N_4  and  C_12
REMARK                            x       y       z     vdW  Elec       q    Type
REMARK                         _______ _______ _______ _____ _____    ______ ____
ROOT
ATOM      1  C   UNL     1       0.859   5.122  -4.588  0.00  0.00    +0.017 C 
ATOM      2  C   UNL     1       1.926   4.001  -4.696  0.00  0.00    +0.025 C 
ATOM      3  C   UNL     1       1.729   3.207  -3.387  0.00  0.00    +0.088 C 
ATOM      4  N   UNL     1       1.072   4.109  -2.424  0.00  0.00    -0.298 NA
ATOM      5  C   UNL     1       0.877   5.425  -3.069  0.00  0.00    +0.085 C 
ATOM      6  C   UNL     1      -0.208   3.551  -1.969  0.00  0.00    +0.105 C 
ENDROOT
BRANCH   3   7
ATOM      7  C   UNL     1       3.066   2.767  -2.849  0.00  0.00    -0.012 A 
ATOM      8  C   UNL     1       3.459   3.126  -1.573  0.00  0.00    +0.115 A 
ATOM      9  N   UNL     1       4.627   2.745  -1.095  0.00  0.00    -0.263 NA
ATOM     10  C   UNL     1       5.462   2.013  -1.805  0.00  0.00    +0.111 A 
ATOM     11  C   UNL     1       5.138   1.615  -3.089  0.00  0.00    +0.020 A 
ATOM     12  C   UNL     1       3.916   1.993  -3.624  0.00  0.00    +0.008 A 
ENDBRANCH   3   7
TORSDOF 1
ENDMDL
MODEL 3
REMARK VINA RESULT:    -3.253      2.296      5.709
REMARK INTER + INTRA:          -3.626
REMARK INTER:                  -3.413
REMARK INTRA:                  -0.213
REMARK UNBOUND:                -0.183
REMARK  Name = Nicotine.pdb
REMARK  2 active torsions:
REMARK  status: ('A' for Active; 'I' for Inactive)
REMARK    1  A    between atoms: C_3  and  C_6
REMARK    2  A    between atoms: N_4  and  C_12
REMARK                            x       y       z     vdW  Elec       q    Type
REMARK                         _______ _______ _______ _____ _____    ______ ____
ROOT
ATOM      1  C   UNL     1       0.072   4.567  -2.259  0.00  0.00    +0.017 C 
ATOM      2  C   UNL     1       1.595   4.622  -2.551  0.00  0.00    +0.025 C 
ATOM      3  C   UNL     1       1.868   3.260  -3.223  0.00  0.00    +0.088 C 
ATOM      4  N   UNL     1       0.786   2.346  -2.817  0.00  0.00    -0.298 NA
ATOM      5  C   UNL     1      -0.126   3.072  -1.906  0.00  0.00    +0.085 C 
ATOM      6  C   UNL     1       0.063   1.831  -3.987  0.00  0.00    +0.105 C 
ENDROOT
BRANCH   3   7
ATOM      7  C   UNL     1       3.197   2.719  -2.764  0.00  0.00    -0.012 A 
ATOM      8  C   UNL     1       3.651   2.973  -1.484  0.00  0.00    +0.115 A 
ATOM      9  N   UNL     1       4.813   2.503  -1.074  0.00  0.00    -0.263 NA
ATOM     10  C   UNL     1       5.584   1.778  -1.860  0.00  0.00    +0.111 A 
ATOM     11  C   UNL     1       5.196   1.482  -3.154  0.00  0.00    +0.020 A 
ATOM     12  C   UNL     1       3.978   1.954  -3.618  0.00  0.00    +0.008 A 
ENDBRANCH   3   7
TORSDOF 1
ENDMDL
MODEL 4
REMARK VINA RESULT:    -2.942      2.567      4.280
REMARK INTER + INTRA:          -3.297
REMARK INTER:                  -3.082
REMARK INTRA:                  -0.215
REMARK UNBOUND:                -0.183
REMARK  Name = Nicotine.pdb
REMARK  2 active torsions:
REMARK  status: ('A' for Active; 'I' for Inactive)
REMARK    1  A    between atoms: C_3  and  C_6
REMARK    2  A    between atoms: N_4  and  C_12
REMARK                            x       y       z     vdW  Elec       q    Type
REMARK                         _______ _______ _______ _____ _____    ______ ____
ROOT
ATOM      1  C   UNL     1       5.050   1.942  -1.255  0.00  0.00    +0.017 C 
ATOM      2  C   UNL     1       3.816   2.882  -1.270  0.00  0.00    +0.025 C 
ATOM      3  C   UNL     1       3.035   2.409  -2.514  0.00  0.00    +0.088 C 
ATOM      4  N   UNL     1       3.993   1.721  -3.397  0.00  0.00    -0.298 NA
ATOM      5  C   UNL     1       5.331   1.769  -2.768  0.00  0.00    +0.085 C 
ATOM      6  C   UNL     1       3.578   0.334  -3.646  0.00  0.00    +0.105 C 
ENDROOT
BRANCH   3   7
ATOM      7  C   UNL     1       2.440   3.596  -3.227  0.00  0.00    -0.012 A 
ATOM      8  C   UNL     1       2.286   3.581  -4.601  0.00  0.00    +0.115 A 
ATOM      9  N   UNL     1       1.767   4.615  -5.233  0.00  0.00    -0.263 NA
ATOM     10  C   UNL     1       1.376   5.697  -4.588  0.00  0.00    +0.111 A 
ATOM     11  C   UNL     1       1.497   5.784  -3.213  0.00  0.00    +0.020 A 
ATOM     12  C   UNL     1       2.034   4.714  -2.514  0.00  0.00    +0.008 A 
ENDBRANCH   3   7
TORSDOF 1
ENDMDL
MODEL 5
REMARK VINA RESULT:    -2.903      2.403      5.407
REMARK INTER + INTRA:          -3.257
REMARK INTER:                  -3.050
REMARK INTRA:                  -0.206
REMARK UNBOUND:                -0.183
REMARK  Name = Nicotine.pdb
REMARK  2 active torsions:
REMARK  status: ('A' for Active; 'I' for Inactive)
REMARK    1  A    between atoms: C_3  and  C_6
REMARK    2  A    between atoms: N_4  and  C_12
REMARK                            x       y       z     vdW  Elec       q    Type
REMARK                         _______ _______ _______ _____ _____    ______ ____
ROOT
ATOM      1  C   UNL     1      -0.501   1.431  -2.240  0.00  0.00    +0.017 C 
ATOM      2  C   UNL     1       0.794   1.741  -1.443  0.00  0.00    +0.025 C 
ATOM      3  C   UNL     1       1.541   2.728  -2.366  0.00  0.00    +0.088 C 
ATOM      4  N   UNL     1       1.027   2.523  -3.732  0.00  0.00    -0.298 NA
ATOM      5  C   UNL     1       0.019   1.442  -3.699  0.00  0.00    +0.085 C 
ATOM      6  C   UNL     1       0.452   3.763  -4.270  0.00  0.00    +0.105 C 
ENDROOT
BRANCH   3   7
ATOM      7  C   UNL     1       3.021   2.447  -2.326  0.00  0.00    -0.012 A 
ATOM      8  C   UNL     1       3.778   2.842  -1.239  0.00  0.00    +0.115 A 
ATOM      9  N   UNL     1       5.074   2.599  -1.196  0.00  0.00    -0.263 NA
ATOM     10  C   UNL     1       5.695   1.977  -2.178  0.00  0.00    +0.111 A 
ATOM     11  C   UNL     1       5.003   1.552  -3.297  0.00  0.00    +0.020 A 
ATOM     12  C   UNL     1       3.639   1.784  -3.375  0.00  0.00    +0.008 A 
ENDBRANCH   3   7
TORSDOF 1
ENDMDL
MODEL 6
REMARK VINA RESULT:    -2.888      1.397      2.100
REMARK INTER + INTRA:          -3.240
REMARK INTER:                  -3.047
REMARK INTRA:                  -0.193
REMARK UNBOUND:                -0.183
REMARK  Name = Nicotine.pdb
REMARK  2 active torsions:
REMARK  status: ('A' for Active; 'I' for Inactive)
REMARK    1  A    between atoms: C_3  and  C_6
REMARK    2  A    between atoms: N_4  and  C_12
REMARK                            x       y       z     vdW  Elec       q    Type
REMARK                         _______ _______ _______ _____ _____    ______ ____
ROOT
ATOM      1  C   UNL     1       7.640   0.315  -4.187  0.00  0.00    +0.017 C 
ATOM      2  C   UNL     1       7.075   1.476  -3.327  0.00  0.00    +0.025 C 
ATOM      3  C   UNL     1       5.881   0.821  -2.600  0.00  0.00    +0.088 C 
ATOM      4  N   UNL     1       5.475  -0.351  -3.396  0.00  0.00    -0.298 NA
ATOM      5  C   UNL     1       6.345  -0.435  -4.589  0.00  0.00    +0.085 C 
ATOM      6  C   UNL     1       5.555  -1.582  -2.599  0.00  0.00    +0.105 C 
ENDROOT
BRANCH   3   7
ATOM      7  C   UNL     1       4.739   1.799  -2.507  0.00  0.00    -0.012 A 
ATOM      8  C   UNL     1       4.584   2.588  -1.382  0.00  0.00    +0.115 A 
ATOM      9  N   UNL     1       3.587   3.447  -1.293  0.00  0.00    -0.263 NA
ATOM     10  C   UNL     1       2.705   3.587  -2.262  0.00  0.00    +0.111 A 
ATOM     11  C   UNL     1       2.795   2.833  -3.417  0.00  0.00    +0.020 A 
ATOM     12  C   UNL     1       3.833   1.924  -3.549  0.00  0.00    +0.008 A 
ENDBRANCH   3   7
TORSDOF 1
ENDMDL
MODEL 7
REMARK VINA RESULT:    -2.838      1.474      4.558
REMARK INTER + INTRA:          -3.187
REMARK INTER:                  -2.935
REMARK INTRA:                  -0.252
REMARK UNBOUND:                -0.183
REMARK  Name = Nicotine.pdb
REMARK  2 active torsions:
REMARK  status: ('A' for Active; 'I' for Inactive)
REMARK    1  A    between atoms: C_3  and  C_6
REMARK    2  A    between atoms: N_4  and  C_12
REMARK                            x       y       z     vdW  Elec       q    Type
REMARK                         _______ _______ _______ _____ _____    ______ ____
ROOT
ATOM      1  C   UNL     1       3.938   2.133  -2.683  0.00  0.00    +0.017 C 
ATOM      2  C   UNL     1       5.013   1.414  -3.540  0.00  0.00    +0.025 C 
ATOM      3  C   UNL     1       5.767   0.555  -2.503  0.00  0.00    +0.088 C 
ATOM      4  N   UNL     1       5.539   1.166  -1.181  0.00  0.00    -0.298 NA
ATOM      5  C   UNL     1       4.703   2.373  -1.358  0.00  0.00    +0.085 C 
ATOM      6  C   UNL     1       4.902   0.213  -0.263  0.00  0.00    +0.105 C 
ENDROOT
BRANCH   3   7
ATOM      7  C   UNL     1       7.240   0.546  -2.819  0.00  0.00    -0.012 A 
ATOM      8  C   UNL     1       8.091  -0.322  -2.161  0.00  0.00    +0.115 A 
ATOM      9  N   UNL     1       9.381  -0.336  -2.431  0.00  0.00    -0.263 NA
ATOM     10  C   UNL     1       9.910   0.469  -3.331  0.00  0.00    +0.111 A 
ATOM     11  C   UNL     1       9.121   1.365  -4.029  0.00  0.00    +0.020 A 
ATOM     12  C   UNL     1       7.759   1.405  -3.776  0.00  0.00    +0.008 A 
ENDBRANCH   3   7
TORSDOF 1
ENDMDL
MODEL 8
REMARK VINA RESULT:    -2.734      2.865      4.459
REMARK INTER + INTRA:          -3.077
REMARK INTER:                  -2.854
REMARK INTRA:                  -0.223
REMARK UNBOUND:                -0.183
REMARK  Name = Nicotine.pdb
REMARK  2 active torsions:
REMARK  status: ('A' for Active; 'I' for Inactive)
REMARK    1  A    between atoms: C_3  and  C_6
REMARK    2  A    between atoms: N_4  and  C_12
REMARK                            x       y       z     vdW  Elec       q    Type
REMARK                         _______ _______ _______ _____ _____    ______ ____
ROOT
ATOM      1  C   UNL     1       4.318   1.091  -0.486  0.00  0.00    +0.017 C 
ATOM      2  C   UNL     1       2.770   1.151  -0.579  0.00  0.00    +0.025 C 
ATOM      3  C   UNL     1       2.528   1.660  -2.016  0.00  0.00    +0.088 C 
ATOM      4  N   UNL     1       3.755   2.355  -2.446  0.00  0.00    -0.298 NA
ATOM      5  C   UNL     1       4.730   2.320  -1.335  0.00  0.00    +0.085 C 
ATOM      6  C   UNL     1       4.313   1.739  -3.656  0.00  0.00    +0.105 C 
ENDROOT
BRANCH   3   7
ATOM      7  C   UNL     1       1.364   2.616  -2.032  0.00  0.00    -0.012 A 
ATOM      8  C   UNL     1       1.530   3.913  -2.479  0.00  0.00    +0.115 A 
ATOM      9  N   UNL     1       0.516   4.756  -2.497  0.00  0.00    -0.263 NA
ATOM     10  C   UNL     1      -0.688   4.401  -2.092  0.00  0.00    +0.111 A 
ATOM     11  C   UNL     1      -0.930   3.120  -1.632  0.00  0.00    +0.020 A 
ATOM     12  C   UNL     1       0.111   2.204  -1.604  0.00  0.00    +0.008 A 
ENDBRANCH   3   7
TORSDOF 1
ENDMDL
MODEL 9
REMARK VINA RESULT:    -2.674      3.660      5.247
REMARK INTER + INTRA:          -3.014
REMARK INTER:                  -2.828
REMARK INTRA:                  -0.185
REMARK UNBOUND:                -0.183
REMARK  Name = Nicotine.pdb
REMARK  2 active torsions:
REMARK  status: ('A' for Active; 'I' for Inactive)
REMARK    1  A    between atoms: C_3  and  C_6
REMARK    2  A    between atoms: N_4  and  C_12
REMARK                            x       y       z     vdW  Elec       q    Type
REMARK                         _______ _______ _______ _____ _____    ______ ____
ROOT
ATOM      1  C   UNL     1       5.159   2.083  -1.602  0.00  0.00    +0.017 C 
ATOM      2  C   UNL     1       5.027   0.974  -0.525  0.00  0.00    +0.025 C 
ATOM      3  C   UNL     1       3.514   0.669  -0.526  0.00  0.00    +0.088 C 
ATOM      4  N   UNL     1       2.830   1.851  -1.080  0.00  0.00    -0.298 NA
ATOM      5  C   UNL     1       3.845   2.878  -1.397  0.00  0.00    +0.085 C 
ATOM      6  C   UNL     1       2.049   1.497  -2.273  0.00  0.00    +0.105 C 
ENDROOT
BRANCH   3   7
ATOM      7  C   UNL     1       3.041   0.415   0.882  0.00  0.00    -0.012 A 
ATOM      8  C   UNL     1       3.935   0.019   1.859  0.00  0.00    +0.115 A 
ATOM      9  N   UNL     1       3.530  -0.206   3.093  0.00  0.00    -0.263 NA
ATOM     10  C   UNL     1       2.268  -0.063   3.445  0.00  0.00    +0.111 A 
ATOM     11  C   UNL     1       1.316   0.331   2.523  0.00  0.00    +0.020 A 
ATOM     12  C   UNL     1       1.706   0.581   1.216  0.00  0.00    +0.008 A 
ENDBRANCH   3   7
TORSDOF 1
ENDMDL
MODEL 10
REMARK VINA RESULT:    -2.551      3.663      4.861
REMARK INTER + INTRA:          -2.884
REMARK INTER:                  -2.668
REMARK INTRA:                  -0.215
REMARK UNBOUND:                -0.183
REMARK  Name = Nicotine.pdb
REMARK  2 active torsions:
REMARK  status: ('A' for Active; 'I' for Inactive)
REMARK    1  A    between atoms: C_3  and  C_6
REMARK    2  A    between atoms: N_4  and  C_12
REMARK                            x       y       z     vdW  Elec       q    Type
REMARK                         _______ _______ _______ _____ _____    ______ ____
ROOT
ATOM      1  C   UNL     1       3.640  -1.226   2.879  0.00  0.00    +0.017 C 
ATOM      2  C   UNL     1       3.399  -1.049   1.357  0.00  0.00    +0.025 C 
ATOM      3  C   UNL     1       4.690  -0.349   0.881  0.00  0.00    +0.088 C 
ATOM      4  N   UNL     1       5.290   0.308   2.057  0.00  0.00    -0.298 NA
ATOM      5  C   UNL     1       4.418   0.068   3.226  0.00  0.00    +0.085 C 
ATOM      6  C   UNL     1       6.650  -0.189   2.301  0.00  0.00    +0.105 C 
ENDROOT
BRANCH   3   7
ATOM      7  C   UNL     1       4.358   0.680  -0.169  0.00  0.00    -0.012 A 
ATOM      8  C   UNL     1       3.053   1.097  -0.351  0.00  0.00    +0.115 A 
ATOM      9  N   UNL     1       2.754   1.996  -1.268  0.00  0.00    -0.263 NA
ATOM     10  C   UNL     1       3.677   2.531  -2.042  0.00  0.00    +0.111 A 
ATOM     11  C   UNL     1       5.004   2.163  -1.917  0.00  0.00    +0.020 A 
ATOM     12  C   UNL     1       5.358   1.224  -0.961  0.00  0.00    +0.008 A 
ENDBRANCH   3   7
TORSDOF 1
ENDMDL
