MODEL 1
REMARK VINA RESULT:     2.753      0.000      0.000
REMARK INTER + INTRA:           2.729
REMARK INTER:                   2.914
REMARK INTRA:                  -0.185
REMARK UNBOUND:                -0.185
REMARK  Name = Nicotine.pdb
REMARK  2 active torsions:
REMARK  status: ('A' for Active; 'I' for Inactive)
REMARK    1  A    between atoms: C_3  and  C_6
REMARK    2  A    between atoms: N_4  and  C_12
REMARK                            x       y       z     vdW  Elec       q    Type
REMARK                         _______ _______ _______ _____ _____    ______ ____
ROOT
ATOM      1  C   UNL     1       7.569   7.020  -5.883  0.00  0.00    +0.017 C 
ATOM      2  C   UNL     1       8.594   6.218  -6.729  0.00  0.00    +0.025 C 
ATOM      3  C   UNL     1       7.757   5.031  -7.253  0.00  0.00    +0.088 C 
ATOM      4  N   UNL     1       6.608   4.871  -6.344  0.00  0.00    -0.298 NA
ATOM      5  C   UNL     1       6.711   5.884  -5.272  0.00  0.00    +0.085 C 
ATOM      6  C   UNL     1       5.339   4.999  -7.071  0.00  0.00    +0.105 C 
ENDROOT
BRANCH   3   7
ATOM      7  C   UNL     1       8.592   3.776  -7.253  0.00  0.00    -0.012 A 
ATOM      8  C   UNL     1       9.971   3.854  -7.251  0.00  0.00    +0.115 A 
ATOM      9  N   UNL     1      10.709   2.761  -7.251  0.00  0.00    -0.263 NA
ATOM     10  C   UNL     1      10.167   1.559  -7.254  0.00  0.00    +0.111 A 
ATOM     11  C   UNL     1       8.793   1.403  -7.255  0.00  0.00    +0.020 A 
ATOM     12  C   UNL     1       7.985   2.529  -7.250  0.00  0.00    +0.008 A 
ENDBRANCH   3   7
TORSDOF 1
ENDMDL
