MODEL 1
REMARK VINA RESULT:    -3.463      0.000      0.000
REMARK INTER + INTRA:          -3.905
REMARK INTER:                  -3.665
REMARK INTRA:                  -0.240
REMARK UNBOUND:                -0.240
REMARK  Name = Nicotine.pdb
REMARK  2 active torsions:
REMARK  status: ('A' for Active; 'I' for Inactive)
REMARK    1  A    between atoms: C_3  and  C_6
REMARK    2  A    between atoms: N_4  and  C_12
REMARK                            x       y       z     vdW  Elec       q    Type
REMARK                         _______ _______ _______ _____ _____    ______ ____
ROOT
ATOM      1  C   UNL     1       7.915  -0.162   5.485  0.00  0.00    +0.017 C 
ATOM      2  C   UNL     1       8.017  -1.543   4.786  0.00  0.00    +0.025 C 
ATOM      3  C   UNL     1       7.686  -1.212   3.315  0.00  0.00    +0.088 C 
ATOM      4  N   UNL     1       6.922   0.049   3.312  0.00  0.00    -0.298 NA
ATOM      5  C   UNL     1       6.746   0.496   4.710  0.00  0.00    +0.085 C 
ATOM      6  C   UNL     1       7.603   1.075   2.512  0.00  0.00    +0.105 C 
ENDROOT
BRANCH   3   7
ATOM      7  C   UNL     1       6.855  -2.317   2.716  0.00  0.00    -0.012 A 
ATOM      8  C   UNL     1       6.439  -2.244   1.400  0.00  0.00    +0.115 A 
ATOM      9  N   UNL     1       5.712  -3.207   0.867  0.00  0.00    -0.263 NA
ATOM     10  C   UNL     1       5.355  -4.269   1.561  0.00  0.00    +0.111 A 
ATOM     11  C   UNL     1       5.734  -4.412   2.882  0.00  0.00    +0.020 A 
ATOM     12  C   UNL     1       6.503  -3.423   3.475  0.00  0.00    +0.008 A 
ENDBRANCH   3   7
TORSDOF 1
ENDMDL
MODEL 2
REMARK VINA RESULT:    -3.377      1.422      2.280
REMARK INTER + INTRA:          -3.815
REMARK INTER:                  -3.592
REMARK INTRA:                  -0.223
REMARK UNBOUND:                -0.240
REMARK  Name = Nicotine.pdb
REMARK  2 active torsions:
REMARK  status: ('A' for Active; 'I' for Inactive)
REMARK    1  A    between atoms: C_3  and  C_6
REMARK    2  A    between atoms: N_4  and  C_12
REMARK                            x       y       z     vdW  Elec       q    Type
REMARK                         _______ _______ _______ _____ _____    ______ ____
ROOT
ATOM      1  C   UNL     1       9.679   0.286   3.079  0.00  0.00    +0.017 C 
ATOM      2  C   UNL     1       8.620  -0.333   2.130  0.00  0.00    +0.025 C 
ATOM      3  C   UNL     1       7.461  -0.686   3.086  0.00  0.00    +0.088 C 
ATOM      4  N   UNL     1       8.032  -0.804   4.440  0.00  0.00    -0.298 NA
ATOM      5  C   UNL     1       9.488  -0.566   4.359  0.00  0.00    +0.085 C 
ATOM      6  C   UNL     1       7.394   0.141   5.365  0.00  0.00    +0.105 C 
ENDROOT
BRANCH   3   7
ATOM      7  C   UNL     1       6.837  -1.995   2.675  0.00  0.00    -0.012 A 
ATOM      8  C   UNL     1       6.823  -3.067   3.548  0.00  0.00    +0.115 A 
ATOM      9  N   UNL     1       6.279  -4.216   3.196  0.00  0.00    -0.263 NA
ATOM     10  C   UNL     1       5.732  -4.389   2.009  0.00  0.00    +0.111 A 
ATOM     11  C   UNL     1       5.709  -3.362   1.084  0.00  0.00    +0.020 A 
ATOM     12  C   UNL     1       6.266  -2.138   1.420  0.00  0.00    +0.008 A 
ENDBRANCH   3   7
TORSDOF 1
ENDMDL
MODEL 3
REMARK VINA RESULT:    -3.255      1.194      4.538
REMARK INTER + INTRA:          -3.686
REMARK INTER:                  -3.475
REMARK INTRA:                  -0.210
REMARK UNBOUND:                -0.240
REMARK  Name = Nicotine.pdb
REMARK  2 active torsions:
REMARK  status: ('A' for Active; 'I' for Inactive)
REMARK    1  A    between atoms: C_3  and  C_6
REMARK    2  A    between atoms: N_4  and  C_12
REMARK                            x       y       z     vdW  Elec       q    Type
REMARK                         _______ _______ _______ _____ _____    ______ ____
ROOT
ATOM      1  C   UNL     1       5.310  -3.006   0.614  0.00  0.00    +0.017 C 
ATOM      2  C   UNL     1       6.452  -2.138   1.204  0.00  0.00    +0.025 C 
ATOM      3  C   UNL     1       6.654  -2.740   2.611  0.00  0.00    +0.088 C 
ATOM      4  N   UNL     1       5.406  -3.435   2.972  0.00  0.00    -0.298 NA
ATOM      5  C   UNL     1       4.438  -3.269   1.867  0.00  0.00    +0.085 C 
ATOM      6  C   UNL     1       5.654  -4.856   3.245  0.00  0.00    +0.105 C 
ENDROOT
BRANCH   3   7
ATOM      7  C   UNL     1       6.936  -1.641   3.602  0.00  0.00    -0.012 A 
ATOM      8  C   UNL     1       6.284  -0.426   3.504  0.00  0.00    +0.115 A 
ATOM      9  N   UNL     1       6.524   0.540   4.368  0.00  0.00    -0.263 NA
ATOM     10  C   UNL     1       7.389   0.391   5.352  0.00  0.00    +0.111 A 
ATOM     11  C   UNL     1       8.078  -0.796   5.514  0.00  0.00    +0.020 A 
ATOM     12  C   UNL     1       7.848  -1.837   4.628  0.00  0.00    +0.008 A 
ENDBRANCH   3   7
TORSDOF 1
ENDMDL
MODEL 4
REMARK VINA RESULT:    -3.250      1.672      2.268
REMARK INTER + INTRA:          -3.680
REMARK INTER:                  -3.467
REMARK INTRA:                  -0.213
REMARK UNBOUND:                -0.240
REMARK  Name = Nicotine.pdb
REMARK  2 active torsions:
REMARK  status: ('A' for Active; 'I' for Inactive)
REMARK    1  A    between atoms: C_3  and  C_6
REMARK    2  A    between atoms: N_4  and  C_12
REMARK                            x       y       z     vdW  Elec       q    Type
REMARK                         _______ _______ _______ _____ _____    ______ ____
ROOT
ATOM      1  C   UNL     1       8.254   1.455   5.496  0.00  0.00    +0.017 C 
ATOM      2  C   UNL     1       7.716   0.003   5.415  0.00  0.00    +0.025 C 
ATOM      3  C   UNL     1       8.576  -0.624   4.297  0.00  0.00    +0.088 C 
ATOM      4  N   UNL     1       9.091   0.482   3.470  0.00  0.00    -0.298 NA
ATOM      5  C   UNL     1       8.570   1.756   4.010  0.00  0.00    +0.085 C 
ATOM      6  C   UNL     1      10.560   0.481   3.445  0.00  0.00    +0.105 C 
ENDROOT
BRANCH   3   7
ATOM      7  C   UNL     1       7.731  -1.545   3.455  0.00  0.00    -0.012 A 
ATOM      8  C   UNL     1       7.231  -2.718   3.989  0.00  0.00    +0.115 A 
ATOM      9  N   UNL     1       6.490  -3.529   3.259  0.00  0.00    -0.263 NA
ATOM     10  C   UNL     1       6.198  -3.258   2.002  0.00  0.00    +0.111 A 
ATOM     11  C   UNL     1       6.662  -2.103   1.400  0.00  0.00    +0.020 A 
ATOM     12  C   UNL     1       7.440  -1.224   2.138  0.00  0.00    +0.008 A 
ENDBRANCH   3   7
TORSDOF 1
ENDMDL
MODEL 5
REMARK VINA RESULT:    -3.154      2.135      4.830
REMARK INTER + INTRA:          -3.578
REMARK INTER:                  -3.403
REMARK INTRA:                  -0.175
REMARK UNBOUND:                -0.240
REMARK  Name = Nicotine.pdb
REMARK  2 active torsions:
REMARK  status: ('A' for Active; 'I' for Inactive)
REMARK    1  A    between atoms: C_3  and  C_6
REMARK    2  A    between atoms: N_4  and  C_12
REMARK                            x       y       z     vdW  Elec       q    Type
REMARK                         _______ _______ _______ _____ _____    ______ ____
ROOT
ATOM      1  C   UNL     1       6.841  -2.895   3.071  0.00  0.00    +0.017 C 
ATOM      2  C   UNL     1       7.569  -2.159   4.226  0.00  0.00    +0.025 C 
ATOM      3  C   UNL     1       7.384  -0.670   3.860  0.00  0.00    +0.088 C 
ATOM      4  N   UNL     1       7.123  -0.606   2.411  0.00  0.00    -0.298 NA
ATOM      5  C   UNL     1       7.163  -1.978   1.864  0.00  0.00    +0.085 C 
ATOM      6  C   UNL     1       5.829   0.034   2.137  0.00  0.00    +0.105 C 
ENDROOT
BRANCH   3   7
ATOM      7  C   UNL     1       8.637   0.098   4.191  0.00  0.00    -0.012 A 
ATOM      8  C   UNL     1       9.824  -0.188   3.543  0.00  0.00    +0.115 A 
ATOM      9  N   UNL     1      10.926   0.480   3.827  0.00  0.00    -0.263 NA
ATOM     10  C   UNL     1      10.941   1.439   4.732  0.00  0.00    +0.111 A 
ATOM     11  C   UNL     1       9.792   1.781   5.420  0.00  0.00    +0.020 A 
ATOM     12  C   UNL     1       8.614   1.104   5.145  0.00  0.00    +0.008 A 
ENDBRANCH   3   7
TORSDOF 1
ENDMDL
MODEL 6
REMARK VINA RESULT:    -3.145      1.496      4.204
REMARK INTER + INTRA:          -3.569
REMARK INTER:                  -3.378
REMARK INTRA:                  -0.191
REMARK UNBOUND:                -0.240
REMARK  Name = Nicotine.pdb
REMARK  2 active torsions:
REMARK  status: ('A' for Active; 'I' for Inactive)
REMARK    1  A    between atoms: C_3  and  C_6
REMARK    2  A    between atoms: N_4  and  C_12
REMARK                            x       y       z     vdW  Elec       q    Type
REMARK                         _______ _______ _______ _____ _____    ______ ____
ROOT
ATOM      1  C   UNL     1       5.499  -4.373   2.239  0.00  0.00    +0.017 C 
ATOM      2  C   UNL     1       6.398  -3.687   3.302  0.00  0.00    +0.025 C 
ATOM      3  C   UNL     1       6.175  -2.185   3.027  0.00  0.00    +0.088 C 
ATOM      4  N   UNL     1       5.702  -2.061   1.636  0.00  0.00    -0.298 NA
ATOM      5  C   UNL     1       5.648  -3.410   1.035  0.00  0.00    +0.085 C 
ATOM      6  C   UNL     1       4.388  -1.406   1.583  0.00  0.00    +0.105 C 
ENDROOT
BRANCH   3   7
ATOM      7  C   UNL     1       7.470  -1.435   3.198  0.00  0.00    -0.012 A 
ATOM      8  C   UNL     1       8.227  -1.086   2.096  0.00  0.00    +0.115 A 
ATOM      9  N   UNL     1       9.362  -0.429   2.237  0.00  0.00    -0.263 NA
ATOM     10  C   UNL     1       9.818  -0.081   3.424  0.00  0.00    +0.111 A 
ATOM     11  C   UNL     1       9.115  -0.395   4.572  0.00  0.00    +0.020 A 
ATOM     12  C   UNL     1       7.915  -1.081   4.463  0.00  0.00    +0.008 A 
ENDBRANCH   3   7
TORSDOF 1
ENDMDL
MODEL 7
REMARK VINA RESULT:    -3.091      1.219      2.097
REMARK INTER + INTRA:          -3.511
REMARK INTER:                  -3.296
REMARK INTRA:                  -0.216
REMARK UNBOUND:                -0.240
REMARK  Name = Nicotine.pdb
REMARK  2 active torsions:
REMARK  status: ('A' for Active; 'I' for Inactive)
REMARK    1  A    between atoms: C_3  and  C_6
REMARK    2  A    between atoms: N_4  and  C_12
REMARK                            x       y       z     vdW  Elec       q    Type
REMARK                         _______ _______ _______ _____ _____    ______ ____
ROOT
ATOM      1  C   UNL     1       7.002   0.473   2.634  0.00  0.00    +0.017 C 
ATOM      2  C   UNL     1       5.869  -0.565   2.422  0.00  0.00    +0.025 C 
ATOM      3  C   UNL     1       6.281  -1.724   3.355  0.00  0.00    +0.088 C 
ATOM      4  N   UNL     1       7.731  -1.605   3.586  0.00  0.00    -0.298 NA
ATOM      5  C   UNL     1       8.236  -0.445   2.821  0.00  0.00    +0.085 C 
ATOM      6  C   UNL     1       8.027  -1.461   5.017  0.00  0.00    +0.105 C 
ENDROOT
BRANCH   3   7
ATOM      7  C   UNL     1       5.972  -3.045   2.699  0.00  0.00    -0.012 A 
ATOM      8  C   UNL     1       5.772  -3.118   1.333  0.00  0.00    +0.115 A 
ATOM      9  N   UNL     1       5.501  -4.270   0.752  0.00  0.00    -0.263 NA
ATOM     10  C   UNL     1       5.410  -5.390   1.441  0.00  0.00    +0.111 A 
ATOM     11  C   UNL     1       5.598  -5.395   2.811  0.00  0.00    +0.020 A 
ATOM     12  C   UNL     1       5.890  -4.203   3.456  0.00  0.00    +0.008 A 
ENDBRANCH   3   7
TORSDOF 1
ENDMDL
MODEL 8
REMARK VINA RESULT:    -3.027      2.138      2.934
REMARK INTER + INTRA:          -3.444
REMARK INTER:                  -3.220
REMARK INTRA:                  -0.223
REMARK UNBOUND:                -0.240
REMARK  Name = Nicotine.pdb
REMARK  2 active torsions:
REMARK  status: ('A' for Active; 'I' for Inactive)
REMARK    1  A    between atoms: C_3  and  C_6
REMARK    2  A    between atoms: N_4  and  C_12
REMARK                            x       y       z     vdW  Elec       q    Type
REMARK                         _______ _______ _______ _____ _____    ______ ____
ROOT
ATOM      1  C   UNL     1       8.253   2.612   5.855  0.00  0.00    +0.017 C 
ATOM      2  C   UNL     1       7.874   1.111   5.752  0.00  0.00    +0.025 C 
ATOM      3  C   UNL     1       8.965   0.541   4.821  0.00  0.00    +0.088 C 
ATOM      4  N   UNL     1       9.507   1.668   4.042  0.00  0.00    -0.298 NA
ATOM      5  C   UNL     1       8.786   2.899   4.429  0.00  0.00    +0.085 C 
ATOM      6  C   UNL     1      10.952   1.814   4.260  0.00  0.00    +0.105 C 
ENDROOT
BRANCH   3   7
ATOM      7  C   UNL     1       8.364  -0.483   3.894  0.00  0.00    -0.012 A 
ATOM      8  C   UNL     1       8.514  -0.361   2.526  0.00  0.00    +0.115 A 
ATOM      9  N   UNL     1       7.991  -1.253   1.707  0.00  0.00    -0.263 NA
ATOM     10  C   UNL     1       7.310  -2.289   2.155  0.00  0.00    +0.111 A 
ATOM     11  C   UNL     1       7.120  -2.478   3.511  0.00  0.00    +0.020 A 
ATOM     12  C   UNL     1       7.659  -1.564   4.402  0.00  0.00    +0.008 A 
ENDBRANCH   3   7
TORSDOF 1
ENDMDL
MODEL 9
REMARK VINA RESULT:    -2.898      3.168      4.446
REMARK INTER + INTRA:          -3.308
REMARK INTER:                  -3.115
REMARK INTRA:                  -0.193
REMARK UNBOUND:                -0.240
REMARK  Name = Nicotine.pdb
REMARK  2 active torsions:
REMARK  status: ('A' for Active; 'I' for Inactive)
REMARK    1  A    between atoms: C_3  and  C_6
REMARK    2  A    between atoms: N_4  and  C_12
REMARK                            x       y       z     vdW  Elec       q    Type
REMARK                         _______ _______ _______ _____ _____    ______ ____
ROOT
ATOM      1  C   UNL     1       9.740   0.912   4.786  0.00  0.00    +0.017 C 
ATOM      2  C   UNL     1       8.475   1.542   5.426  0.00  0.00    +0.025 C 
ATOM      3  C   UNL     1       7.532   0.332   5.595  0.00  0.00    +0.088 C 
ATOM      4  N   UNL     1       7.970  -0.700   4.638  0.00  0.00    -0.298 NA
ATOM      5  C   UNL     1       9.120  -0.175   3.872  0.00  0.00    +0.085 C 
ATOM      6  C   UNL     1       8.324  -1.945   5.332  0.00  0.00    +0.105 C 
ENDROOT
BRANCH   3   7
ATOM      7  C   UNL     1       6.113   0.742   5.295  0.00  0.00    -0.012 A 
ATOM      8  C   UNL     1       5.544   0.445   4.071  0.00  0.00    +0.115 A 
ATOM      9  N   UNL     1       4.303   0.800   3.800  0.00  0.00    -0.263 NA
ATOM     10  C   UNL     1       3.560   1.446   4.676  0.00  0.00    +0.111 A 
ATOM     11  C   UNL     1       4.061   1.777   5.922  0.00  0.00    +0.020 A 
ATOM     12  C   UNL     1       5.360   1.416   6.244  0.00  0.00    +0.008 A 
ENDBRANCH   3   7
TORSDOF 1
ENDMDL
MODEL 10
REMARK VINA RESULT:    -2.808      1.650      2.252
REMARK INTER + INTRA:          -3.212
REMARK INTER:                  -2.973
REMARK INTRA:                  -0.239
REMARK UNBOUND:                -0.240
REMARK  Name = Nicotine.pdb
REMARK  2 active torsions:
REMARK  status: ('A' for Active; 'I' for Inactive)
REMARK    1  A    between atoms: C_3  and  C_6
REMARK    2  A    between atoms: N_4  and  C_12
REMARK                            x       y       z     vdW  Elec       q    Type
REMARK                         _______ _______ _______ _____ _____    ______ ____
ROOT
ATOM      1  C   UNL     1       7.540  -1.212   3.909  0.00  0.00    +0.017 C 
ATOM      2  C   UNL     1       7.187  -2.711   3.718  0.00  0.00    +0.025 C 
ATOM      3  C   UNL     1       6.588  -2.748   2.296  0.00  0.00    +0.088 C 
ATOM      4  N   UNL     1       6.120  -1.385   1.984  0.00  0.00    -0.298 NA
ATOM      5  C   UNL     1       6.379  -0.519   3.153  0.00  0.00    +0.085 C 
ATOM      6  C   UNL     1       6.783  -0.863   0.783  0.00  0.00    +0.105 C 
ENDROOT
BRANCH   3   7
ATOM      7  C   UNL     1       5.430  -3.711   2.253  0.00  0.00    -0.012 A 
ATOM      8  C   UNL     1       5.324  -4.632   1.227  0.00  0.00    +0.115 A 
ATOM      9  N   UNL     1       4.315  -5.479   1.182  0.00  0.00    -0.263 NA
ATOM     10  C   UNL     1       3.372  -5.483   2.104  0.00  0.00    +0.111 A 
ATOM     11  C   UNL     1       3.411  -4.592   3.160  0.00  0.00    +0.020 A 
ATOM     12  C   UNL     1       4.460  -3.690   3.244  0.00  0.00    +0.008 A 
ENDBRANCH   3   7
TORSDOF 1
ENDMDL
