MODEL 1
REMARK VINA RESULT:     0.000      0.000      0.000
REMARK INTER + INTRA:          -0.256
REMARK INTER:                   0.000
REMARK INTRA:                  -0.256
REMARK UNBOUND:                -0.256
REMARK  Name = Nicotine.pdb
REMARK  2 active torsions:
REMARK  status: ('A' for Active; 'I' for Inactive)
REMARK    1  A    between atoms: C_3  and  C_6
REMARK    2  A    between atoms: N_4  and  C_12
REMARK                            x       y       z     vdW  Elec       q    Type
REMARK                         _______ _______ _______ _____ _____    ______ ____
ROOT
ATOM      1  C   UNL     1      -2.331   6.261   0.357  0.00  0.00    +0.017 C 
ATOM      2  C   UNL     1      -2.876   5.581  -0.926  0.00  0.00    +0.025 C 
ATOM      3  C   UNL     1      -1.876   4.429  -1.160  0.00  0.00    +0.088 C 
ATOM      4  N   UNL     1      -0.627   4.786  -0.465  0.00  0.00    -0.298 NA
ATOM      5  C   UNL     1      -0.801   6.113   0.164  0.00  0.00    +0.085 C 
ATOM      6  C   UNL     1      -0.272   3.771   0.536  0.00  0.00    +0.105 C 
ENDROOT
BRANCH   3   7
ATOM      7  C   UNL     1      -1.616   4.268  -2.636  0.00  0.00    -0.012 A 
ATOM      8  C   UNL     1      -1.129   3.073  -3.133  0.00  0.00    +0.115 A 
ATOM      9  N   UNL     1      -0.898   2.924  -4.423  0.00  0.00    -0.263 NA
ATOM     10  C   UNL     1      -1.119   3.898  -5.284  0.00  0.00    +0.111 A 
ATOM     11  C   UNL     1      -1.606   5.121  -4.860  0.00  0.00    +0.020 A 
ATOM     12  C   UNL     1      -1.865   5.313  -3.512  0.00  0.00    +0.008 A 
ENDBRANCH   3   7
TORSDOF 1
ENDMDL
MODEL 2
REMARK VINA RESULT:     0.000      6.519      8.208
REMARK INTER + INTRA:          -0.256
REMARK INTER:                   0.000
REMARK INTRA:                  -0.256
REMARK UNBOUND:                -0.256
REMARK  Name = Nicotine.pdb
REMARK  2 active torsions:
REMARK  status: ('A' for Active; 'I' for Inactive)
REMARK    1  A    between atoms: C_3  and  C_6
REMARK    2  A    between atoms: N_4  and  C_12
REMARK                            x       y       z     vdW  Elec       q    Type
REMARK                         _______ _______ _______ _____ _____    ______ ____
ROOT
ATOM      1  C   UNL     1       2.406   1.726  -1.343  0.00  0.00    +0.017 C 
ATOM      2  C   UNL     1       3.558   0.706  -1.141  0.00  0.00    +0.025 C 
ATOM      3  C   UNL     1       3.203  -0.420  -2.135  0.00  0.00    +0.088 C 
ATOM      4  N   UNL     1       1.757  -0.324  -2.406  0.00  0.00    -0.298 NA
ATOM      5  C   UNL     1       1.201   0.789  -1.608  0.00  0.00    +0.085 C 
ATOM      6  C   UNL     1       1.502  -0.125  -3.839  0.00  0.00    +0.105 C 
ENDROOT
BRANCH   3   7
ATOM      7  C   UNL     1       3.525  -1.761  -1.528  0.00  0.00    -0.012 A 
ATOM      8  C   UNL     1       3.718  -2.866  -2.335  0.00  0.00    +0.115 A 
ATOM      9  N   UNL     1       3.999  -4.043  -1.812  0.00  0.00    -0.263 NA
ATOM     10  C   UNL     1       4.108  -4.214  -0.509  0.00  0.00    +0.111 A 
ATOM     11  C   UNL     1       3.929  -3.155   0.361  0.00  0.00    +0.020 A 
ATOM     12  C   UNL     1       3.637  -1.901  -0.153  0.00  0.00    +0.008 A 
ENDBRANCH   3   7
TORSDOF 1
ENDMDL
MODEL 3
REMARK VINA RESULT:     0.000      6.927      9.055
REMARK INTER + INTRA:          -0.256
REMARK INTER:                   0.000
REMARK INTRA:                  -0.256
REMARK UNBOUND:                -0.256
REMARK  Name = Nicotine.pdb
REMARK  2 active torsions:
REMARK  status: ('A' for Active; 'I' for Inactive)
REMARK    1  A    between atoms: C_3  and  C_6
REMARK    2  A    between atoms: N_4  and  C_12
REMARK                            x       y       z     vdW  Elec       q    Type
REMARK                         _______ _______ _______ _____ _____    ______ ____
ROOT
ATOM      1  C   UNL     1       1.875   0.293   0.274  0.00  0.00    +0.017 C 
ATOM      2  C   UNL     1       3.113   1.071   0.792  0.00  0.00    +0.025 C 
ATOM      3  C   UNL     1       4.224   0.653  -0.195  0.00  0.00    +0.088 C 
ATOM      4  N   UNL     1       3.814  -0.629  -0.796  0.00  0.00    -0.298 NA
ATOM      5  C   UNL     1       2.518  -1.031  -0.209  0.00  0.00    +0.085 C 
ATOM      6  C   UNL     1       3.719  -0.519  -2.258  0.00  0.00    +0.105 C 
ENDROOT
BRANCH   3   7
ATOM      7  C   UNL     1       5.527   0.481   0.542  0.00  0.00    -0.012 A 
ATOM      8  C   UNL     1       6.728   0.545  -0.137  0.00  0.00    +0.115 A 
ATOM      9  N   UNL     1       7.873   0.396   0.501  0.00  0.00    -0.263 NA
ATOM     10  C   UNL     1       7.919   0.182   1.801  0.00  0.00    +0.111 A 
ATOM     11  C   UNL     1       6.758   0.106   2.547  0.00  0.00    +0.020 A 
ATOM     12  C   UNL     1       5.536   0.263   1.912  0.00  0.00    +0.008 A 
ENDBRANCH   3   7
TORSDOF 1
ENDMDL
MODEL 4
REMARK VINA RESULT:     0.000      9.000     10.313
REMARK INTER + INTRA:          -0.256
REMARK INTER:                   0.000
REMARK INTRA:                  -0.256
REMARK UNBOUND:                -0.256
REMARK  Name = Nicotine.pdb
REMARK  2 active torsions:
REMARK  status: ('A' for Active; 'I' for Inactive)
REMARK    1  A    between atoms: C_3  and  C_6
REMARK    2  A    between atoms: N_4  and  C_12
REMARK                            x       y       z     vdW  Elec       q    Type
REMARK                         _______ _______ _______ _____ _____    ______ ____
ROOT
ATOM      1  C   UNL     1       3.406  -2.479   1.432  0.00  0.00    +0.017 C 
ATOM      2  C   UNL     1       2.157  -1.698   1.920  0.00  0.00    +0.025 C 
ATOM      3  C   UNL     1       2.331  -1.689   3.454  0.00  0.00    +0.088 C 
ATOM      4  N   UNL     1       3.219  -2.814   3.800  0.00  0.00    -0.298 NA
ATOM      5  C   UNL     1       3.578  -3.530   2.557  0.00  0.00    +0.085 C 
ATOM      6  C   UNL     1       4.419  -2.342   4.502  0.00  0.00    +0.105 C 
ENDROOT
BRANCH   3   7
ATOM      7  C   UNL     1       0.993  -1.865   4.123  0.00  0.00    -0.012 A 
ATOM      8  C   UNL     1       0.807  -1.462   5.432  0.00  0.00    +0.115 A 
ATOM      9  N   UNL     1      -0.361  -1.612   6.025  0.00  0.00    -0.263 NA
ATOM     10  C   UNL     1      -1.391  -2.149   5.400  0.00  0.00    +0.111 A 
ATOM     11  C   UNL     1      -1.281  -2.575   4.090  0.00  0.00    +0.020 A 
ATOM     12  C   UNL     1      -0.069  -2.428   3.432  0.00  0.00    +0.008 A 
ENDBRANCH   3   7
TORSDOF 1
ENDMDL
MODEL 5
REMARK VINA RESULT:     0.000      7.694      9.567
REMARK INTER + INTRA:          -0.256
REMARK INTER:                   0.000
REMARK INTRA:                  -0.256
REMARK UNBOUND:                -0.256
REMARK  Name = Nicotine.pdb
REMARK  2 active torsions:
REMARK  status: ('A' for Active; 'I' for Inactive)
REMARK    1  A    between atoms: C_3  and  C_6
REMARK    2  A    between atoms: N_4  and  C_12
REMARK                            x       y       z     vdW  Elec       q    Type
REMARK                         _______ _______ _______ _____ _____    ______ ____
ROOT
ATOM      1  C   UNL     1      -0.601  -5.076   1.469  0.00  0.00    +0.017 C 
ATOM      2  C   UNL     1       0.350  -4.437   2.514  0.00  0.00    +0.025 C 
ATOM      3  C   UNL     1       0.127  -2.924   2.306  0.00  0.00    +0.088 C 
ATOM      4  N   UNL     1      -0.407  -2.744   0.944  0.00  0.00    -0.298 NA
ATOM      5  C   UNL     1      -0.500  -4.069   0.296  0.00  0.00    +0.085 C 
ATOM      6  C   UNL     1      -1.717  -2.080   0.975  0.00  0.00    +0.105 C 
ENDROOT
BRANCH   3   7
ATOM      7  C   UNL     1       1.435  -2.189   2.446  0.00  0.00    -0.012 A 
ATOM      8  C   UNL     1       1.450  -0.838   2.740  0.00  0.00    +0.115 A 
ATOM      9  N   UNL     1       2.590  -0.187   2.865  0.00  0.00    -0.263 NA
ATOM     10  C   UNL     1       3.752  -0.791   2.715  0.00  0.00    +0.111 A 
ATOM     11  C   UNL     1       3.816  -2.140   2.421  0.00  0.00    +0.020 A 
ATOM     12  C   UNL     1       2.638  -2.859   2.288  0.00  0.00    +0.008 A 
ENDBRANCH   3   7
TORSDOF 1
ENDMDL
MODEL 6
REMARK VINA RESULT:     0.000      9.795     11.417
REMARK INTER + INTRA:          -0.256
REMARK INTER:                   0.000
REMARK INTRA:                  -0.256
REMARK UNBOUND:                -0.256
REMARK  Name = Nicotine.pdb
REMARK  2 active torsions:
REMARK  status: ('A' for Active; 'I' for Inactive)
REMARK    1  A    between atoms: C_3  and  C_6
REMARK    2  A    between atoms: N_4  and  C_12
REMARK                            x       y       z     vdW  Elec       q    Type
REMARK                         _______ _______ _______ _____ _____    ______ ____
ROOT
ATOM      1  C   UNL     1       2.021  -3.661  -1.249  0.00  0.00    +0.017 C 
ATOM      2  C   UNL     1       3.300  -3.290  -2.045  0.00  0.00    +0.025 C 
ATOM      3  C   UNL     1       3.267  -4.274  -3.234  0.00  0.00    +0.088 C 
ATOM      4  N   UNL     1       2.428  -5.418  -2.831  0.00  0.00    -0.298 NA
ATOM      5  C   UNL     1       1.965  -5.197  -1.445  0.00  0.00    +0.085 C 
ATOM      6  C   UNL     1       1.291  -5.585  -3.746  0.00  0.00    +0.105 C 
ENDROOT
BRANCH   3   7
ATOM      7  C   UNL     1       4.663  -4.747  -3.548  0.00  0.00    -0.012 A 
ATOM      8  C   UNL     1       4.963  -5.261  -4.795  0.00  0.00    +0.115 A 
ATOM      9  N   UNL     1       6.182  -5.676  -5.078  0.00  0.00    -0.263 NA
ATOM     10  C   UNL     1       7.157  -5.619  -4.192  0.00  0.00    +0.111 A 
ATOM     11  C   UNL     1       6.932  -5.117  -2.924  0.00  0.00    +0.020 A 
ATOM     12  C   UNL     1       5.664  -4.666  -2.592  0.00  0.00    +0.008 A 
ENDBRANCH   3   7
TORSDOF 1
ENDMDL
MODEL 7
REMARK VINA RESULT:     0.000      4.382      6.564
REMARK INTER + INTRA:          -0.256
REMARK INTER:                   0.000
REMARK INTRA:                  -0.256
REMARK UNBOUND:                -0.256
REMARK  Name = Nicotine.pdb
REMARK  2 active torsions:
REMARK  status: ('A' for Active; 'I' for Inactive)
REMARK    1  A    between atoms: C_3  and  C_6
REMARK    2  A    between atoms: N_4  and  C_12
REMARK                            x       y       z     vdW  Elec       q    Type
REMARK                         _______ _______ _______ _____ _____    ______ ____
ROOT
ATOM      1  C   UNL     1       2.986   1.341  -4.642  0.00  0.00    +0.017 C 
ATOM      2  C   UNL     1       2.198   1.620  -3.334  0.00  0.00    +0.025 C 
ATOM      3  C   UNL     1       2.467   3.118  -3.081  0.00  0.00    +0.088 C 
ATOM      4  N   UNL     1       3.705   3.468  -3.800  0.00  0.00    -0.298 NA
ATOM      5  C   UNL     1       4.225   2.253  -4.462  0.00  0.00    +0.085 C 
ATOM      6  C   UNL     1       3.463   4.538  -4.777  0.00  0.00    +0.105 C 
ENDROOT
BRANCH   3   7
ATOM      7  C   UNL     1       2.642   3.365  -1.605  0.00  0.00    -0.012 A 
ATOM      8  C   UNL     1       2.454   4.631  -1.081  0.00  0.00    +0.115 A 
ATOM      9  N   UNL     1       2.606   4.855   0.210  0.00  0.00    -0.263 NA
ATOM     10  C   UNL     1       2.939   3.893   1.046  0.00  0.00    +0.111 A 
ATOM     11  C   UNL     1       3.142   2.602   0.595  0.00  0.00    +0.020 A 
ATOM     12  C   UNL     1       2.987   2.326  -0.755  0.00  0.00    +0.008 A 
ENDBRANCH   3   7
TORSDOF 1
ENDMDL
MODEL 8
REMARK VINA RESULT:     0.000      9.022      9.759
REMARK INTER + INTRA:          -0.256
REMARK INTER:                   0.000
REMARK INTRA:                  -0.256
REMARK UNBOUND:                -0.256
REMARK  Name = Nicotine.pdb
REMARK  2 active torsions:
REMARK  status: ('A' for Active; 'I' for Inactive)
REMARK    1  A    between atoms: C_3  and  C_6
REMARK    2  A    between atoms: N_4  and  C_12
REMARK                            x       y       z     vdW  Elec       q    Type
REMARK                         _______ _______ _______ _____ _____    ______ ____
ROOT
ATOM      1  C   UNL     1       6.579   3.962  -0.642  0.00  0.00    +0.017 C 
ATOM      2  C   UNL     1       7.957   4.043  -1.349  0.00  0.00    +0.025 C 
ATOM      3  C   UNL     1       7.654   4.888  -2.605  0.00  0.00    +0.088 C 
ATOM      4  N   UNL     1       6.208   4.777  -2.867  0.00  0.00    -0.298 NA
ATOM      5  C   UNL     1       5.612   3.886  -1.849  0.00  0.00    +0.085 C 
ATOM      6  C   UNL     1       5.567   6.098  -2.851  0.00  0.00    +0.105 C 
ENDROOT
BRANCH   3   7
ATOM      7  C   UNL     1       8.432   4.356  -3.781  0.00  0.00    -0.012 A 
ATOM      8  C   UNL     1       8.683   5.162  -4.875  0.00  0.00    +0.115 A 
ATOM      9  N   UNL     1       9.363   4.704  -5.908  0.00  0.00    -0.263 NA
ATOM     10  C   UNL     1       9.827   3.471  -5.941  0.00  0.00    +0.111 A 
ATOM     11  C   UNL     1       9.615   2.607  -4.883  0.00  0.00    +0.020 A 
ATOM     12  C   UNL     1       8.909   3.054  -3.777  0.00  0.00    +0.008 A 
ENDBRANCH   3   7
TORSDOF 1
ENDMDL
MODEL 9
REMARK VINA RESULT:     0.000      9.655     10.650
REMARK INTER + INTRA:          -0.256
REMARK INTER:                   0.000
REMARK INTRA:                  -0.256
REMARK UNBOUND:                -0.256
REMARK  Name = Nicotine.pdb
REMARK  2 active torsions:
REMARK  status: ('A' for Active; 'I' for Inactive)
REMARK    1  A    between atoms: C_3  and  C_6
REMARK    2  A    between atoms: N_4  and  C_12
REMARK                            x       y       z     vdW  Elec       q    Type
REMARK                         _______ _______ _______ _____ _____    ______ ____
ROOT
ATOM      1  C   UNL     1       4.359  -2.765   1.437  0.00  0.00    +0.017 C 
ATOM      2  C   UNL     1       5.531  -2.028   0.736  0.00  0.00    +0.025 C 
ATOM      3  C   UNL     1       6.399  -1.552   1.919  0.00  0.00    +0.088 C 
ATOM      4  N   UNL     1       5.529  -1.502   3.108  0.00  0.00    -0.298 NA
ATOM      5  C   UNL     1       4.162  -1.901   2.707  0.00  0.00    +0.085 C 
ATOM      6  C   UNL     1       6.041  -2.374   4.173  0.00  0.00    +0.105 C 
ENDROOT
BRANCH   3   7
ATOM      7  C   UNL     1       6.952  -0.180   1.630  0.00  0.00    -0.012 A 
ATOM      8  C   UNL     1       8.076   0.275   2.295  0.00  0.00    +0.115 A 
ATOM      9  N   UNL     1       8.566   1.474   2.047  0.00  0.00    -0.263 NA
ATOM     10  C   UNL     1       8.012   2.281   1.165  0.00  0.00    +0.111 A 
ATOM     11  C   UNL     1       6.886   1.894   0.461  0.00  0.00    +0.020 A 
ATOM     12  C   UNL     1       6.345   0.639   0.690  0.00  0.00    +0.008 A 
ENDBRANCH   3   7
TORSDOF 1
ENDMDL
MODEL 10
REMARK VINA RESULT:     0.000      4.122      5.967
REMARK INTER + INTRA:          -0.256
REMARK INTER:                   0.000
REMARK INTRA:                  -0.256
REMARK UNBOUND:                -0.256
REMARK  Name = Nicotine.pdb
REMARK  2 active torsions:
REMARK  status: ('A' for Active; 'I' for Inactive)
REMARK    1  A    between atoms: C_3  and  C_6
REMARK    2  A    between atoms: N_4  and  C_12
REMARK                            x       y       z     vdW  Elec       q    Type
REMARK                         _______ _______ _______ _____ _____    ______ ____
ROOT
ATOM      1  C   UNL     1       1.039  -0.830   0.951  0.00  0.00    +0.017 C 
ATOM      2  C   UNL     1       0.616   0.480   0.236  0.00  0.00    +0.025 C 
ATOM      3  C   UNL     1       1.245   1.577   1.122  0.00  0.00    +0.088 C 
ATOM      4  N   UNL     1       1.466   0.988   2.455  0.00  0.00    -0.298 NA
ATOM      5  C   UNL     1       0.981  -0.408   2.440  0.00  0.00    +0.085 C 
ATOM      6  C   UNL     1       2.885   1.049   2.829  0.00  0.00    +0.105 C 
ENDROOT
BRANCH   3   7
ATOM      7  C   UNL     1       0.307   2.751   1.228  0.00  0.00    -0.012 A 
ATOM      8  C   UNL     1       0.787   4.000   1.575  0.00  0.00    +0.115 A 
ATOM      9  N   UNL     1      -0.027   5.033   1.670  0.00  0.00    -0.263 NA
ATOM     10  C   UNL     1      -1.320   4.920   1.440  0.00  0.00    +0.111 A 
ATOM     11  C   UNL     1      -1.873   3.703   1.087  0.00  0.00    +0.020 A 
ATOM     12  C   UNL     1      -1.047   2.595   0.973  0.00  0.00    +0.008 A 
ENDBRANCH   3   7
TORSDOF 1
ENDMDL
