MODEL 1
REMARK VINA RESULT:    -3.535      0.000      0.000
REMARK INTER + INTRA:          -3.997
REMARK INTER:                  -3.742
REMARK INTRA:                  -0.255
REMARK UNBOUND:                -0.255
REMARK  Name = Nicotine.pdb
REMARK  2 active torsions:
REMARK  status: ('A' for Active; 'I' for Inactive)
REMARK    1  A    between atoms: C_3  and  C_6
REMARK    2  A    between atoms: N_4  and  C_12
REMARK                            x       y       z     vdW  Elec       q    Type
REMARK                         _______ _______ _______ _____ _____    ______ ____
ROOT
ATOM      1  C   UNL     1       6.952  -5.286   0.966  0.00  0.00    +0.017 C 
ATOM      2  C   UNL     1       7.209  -4.533   2.297  0.00  0.00    +0.025 C 
ATOM      3  C   UNL     1       7.520  -3.095   1.829  0.00  0.00    +0.088 C 
ATOM      4  N   UNL     1       7.966  -3.180   0.426  0.00  0.00    -0.298 NA
ATOM      5  C   UNL     1       7.968  -4.601   0.018  0.00  0.00    +0.085 C 
ATOM      6  C   UNL     1       7.101  -2.381  -0.451  0.00  0.00    +0.105 C 
ENDROOT
BRANCH   3   7
ATOM      7  C   UNL     1       8.613  -2.504   2.680  0.00  0.00    -0.012 A 
ATOM      8  C   UNL     1       8.676  -1.139   2.888  0.00  0.00    +0.115 A 
ATOM      9  N   UNL     1       9.630  -0.613   3.632  0.00  0.00    -0.263 NA
ATOM     10  C   UNL     1      10.554  -1.360   4.204  0.00  0.00    +0.111 A 
ATOM     11  C   UNL     1      10.555  -2.732   4.041  0.00  0.00    +0.020 A 
ATOM     12  C   UNL     1       9.565  -3.322   3.270  0.00  0.00    +0.008 A 
ENDBRANCH   3   7
TORSDOF 1
ENDMDL
MODEL 2
REMARK VINA RESULT:    -3.507      1.909      3.237
REMARK INTER + INTRA:          -3.968
REMARK INTER:                  -3.713
REMARK INTRA:                  -0.255
REMARK UNBOUND:                -0.255
REMARK  Name = Nicotine.pdb
REMARK  2 active torsions:
REMARK  status: ('A' for Active; 'I' for Inactive)
REMARK    1  A    between atoms: C_3  and  C_6
REMARK    2  A    between atoms: N_4  and  C_12
REMARK                            x       y       z     vdW  Elec       q    Type
REMARK                         _______ _______ _______ _____ _____    ______ ____
ROOT
ATOM      1  C   UNL     1       7.113  -4.074   2.420  0.00  0.00    +0.017 C 
ATOM      2  C   UNL     1       8.319  -3.150   2.104  0.00  0.00    +0.025 C 
ATOM      3  C   UNL     1       8.961  -2.931   3.490  0.00  0.00    +0.088 C 
ATOM      4  N   UNL     1       7.920  -3.193   4.500  0.00  0.00    -0.298 NA
ATOM      5  C   UNL     1       6.663  -3.538   3.802  0.00  0.00    +0.085 C 
ATOM      6  C   UNL     1       8.329  -4.269   5.412  0.00  0.00    +0.105 C 
ENDROOT
BRANCH   3   7
ATOM      7  C   UNL     1       9.447  -1.510   3.611  0.00  0.00    -0.012 A 
ATOM      8  C   UNL     1      10.522  -1.206   4.425  0.00  0.00    +0.115 A 
ATOM      9  N   UNL     1      10.954   0.035   4.536  0.00  0.00    -0.263 NA
ATOM     10  C   UNL     1      10.385   1.028   3.882  0.00  0.00    +0.111 A 
ATOM     11  C   UNL     1       9.306   0.801   3.048  0.00  0.00    +0.020 A 
ATOM     12  C   UNL     1       8.827  -0.492   2.902  0.00  0.00    +0.008 A 
ENDBRANCH   3   7
TORSDOF 1
ENDMDL
MODEL 3
REMARK VINA RESULT:    -3.505      2.418      4.484
REMARK INTER + INTRA:          -3.965
REMARK INTER:                  -3.710
REMARK INTRA:                  -0.256
REMARK UNBOUND:                -0.255
REMARK  Name = Nicotine.pdb
REMARK  2 active torsions:
REMARK  status: ('A' for Active; 'I' for Inactive)
REMARK    1  A    between atoms: C_3  and  C_6
REMARK    2  A    between atoms: N_4  and  C_12
REMARK                            x       y       z     vdW  Elec       q    Type
REMARK                         _______ _______ _______ _____ _____    ______ ____
ROOT
ATOM      1  C   UNL     1      10.606   0.640   4.164  0.00  0.00    +0.017 C 
ATOM      2  C   UNL     1      10.697  -0.888   4.420  0.00  0.00    +0.025 C 
ATOM      3  C   UNL     1       9.560  -1.455   3.544  0.00  0.00    +0.088 C 
ATOM      4  N   UNL     1       8.599  -0.362   3.313  0.00  0.00    -0.298 NA
ATOM      5  C   UNL     1       9.077   0.843   4.025  0.00  0.00    +0.085 C 
ATOM      6  C   UNL     1       8.438  -0.096   1.878  0.00  0.00    +0.105 C 
ENDROOT
BRANCH   3   7
ATOM      7  C   UNL     1       8.881  -2.594   4.260  0.00  0.00    -0.012 A 
ATOM      8  C   UNL     1       8.092  -3.488   3.561  0.00  0.00    +0.115 A 
ATOM      9  N   UNL     1       7.494  -4.487   4.180  0.00  0.00    -0.263 NA
ATOM     10  C   UNL     1       7.622  -4.674   5.479  0.00  0.00    +0.111 A 
ATOM     11  C   UNL     1       8.395  -3.820   6.244  0.00  0.00    +0.020 A 
ATOM     12  C   UNL     1       9.044  -2.761   5.627  0.00  0.00    +0.008 A 
ENDBRANCH   3   7
TORSDOF 1
ENDMDL
MODEL 4
REMARK VINA RESULT:    -3.462      1.465      4.585
REMARK INTER + INTRA:          -3.920
REMARK INTER:                  -3.705
REMARK INTRA:                  -0.215
REMARK UNBOUND:                -0.255
REMARK  Name = Nicotine.pdb
REMARK  2 active torsions:
REMARK  status: ('A' for Active; 'I' for Inactive)
REMARK    1  A    between atoms: C_3  and  C_6
REMARK    2  A    between atoms: N_4  and  C_12
REMARK                            x       y       z     vdW  Elec       q    Type
REMARK                         _______ _______ _______ _____ _____    ______ ____
ROOT
ATOM      1  C   UNL     1      10.661  -1.195   4.481  0.00  0.00    +0.017 C 
ATOM      2  C   UNL     1       9.553  -0.607   3.568  0.00  0.00    +0.025 C 
ATOM      3  C   UNL     1       8.630  -1.819   3.319  0.00  0.00    +0.088 C 
ATOM      4  N   UNL     1       9.430  -3.034   3.556  0.00  0.00    -0.298 NA
ATOM      5  C   UNL     1      10.807  -2.629   3.913  0.00  0.00    +0.085 C 
ATOM      6  C   UNL     1       8.833  -3.861   4.612  0.00  0.00    +0.105 C 
ENDROOT
BRANCH   3   7
ATOM      7  C   UNL     1       8.131  -1.801   1.898  0.00  0.00    -0.012 A 
ATOM      8  C   UNL     1       7.885  -2.984   1.228  0.00  0.00    +0.115 A 
ATOM      9  N   UNL     1       7.448  -2.977  -0.017  0.00  0.00    -0.263 NA
ATOM     10  C   UNL     1       7.231  -1.851  -0.668  0.00  0.00    +0.111 A 
ATOM     11  C   UNL     1       7.454  -0.629  -0.063  0.00  0.00    +0.020 A 
ATOM     12  C   UNL     1       7.908  -0.597   1.247  0.00  0.00    +0.008 A 
ENDBRANCH   3   7
TORSDOF 1
ENDMDL
MODEL 5
REMARK VINA RESULT:    -3.430      2.710      4.404
REMARK INTER + INTRA:          -3.886
REMARK INTER:                  -3.654
REMARK INTRA:                  -0.232
REMARK UNBOUND:                -0.255
REMARK  Name = Nicotine.pdb
REMARK  2 active torsions:
REMARK  status: ('A' for Active; 'I' for Inactive)
REMARK    1  A    between atoms: C_3  and  C_6
REMARK    2  A    between atoms: N_4  and  C_12
REMARK                            x       y       z     vdW  Elec       q    Type
REMARK                         _______ _______ _______ _____ _____    ______ ____
ROOT
ATOM      1  C   UNL     1      10.762  -2.812   3.986  0.00  0.00    +0.017 C 
ATOM      2  C   UNL     1      10.752  -1.285   4.259  0.00  0.00    +0.025 C 
ATOM      3  C   UNL     1       9.274  -1.004   4.607  0.00  0.00    +0.088 C 
ATOM      4  N   UNL     1       8.473  -2.095   4.023  0.00  0.00    -0.298 NA
ATOM      5  C   UNL     1       9.382  -3.019   3.311  0.00  0.00    +0.085 C 
ATOM      6  C   UNL     1       7.710  -2.801   5.060  0.00  0.00    +0.105 C 
ENDROOT
BRANCH   3   7
ATOM      7  C   UNL     1       8.851   0.317   4.018  0.00  0.00    -0.012 A 
ATOM      8  C   UNL     1       8.230   1.266   4.807  0.00  0.00    +0.115 A 
ATOM      9  N   UNL     1       7.856   2.425   4.299  0.00  0.00    -0.263 NA
ATOM     10  C   UNL     1       8.057   2.723   3.031  0.00  0.00    +0.111 A 
ATOM     11  C   UNL     1       8.673   1.823   2.181  0.00  0.00    +0.020 A 
ATOM     12  C   UNL     1       9.085   0.597   2.680  0.00  0.00    +0.008 A 
ENDBRANCH   3   7
TORSDOF 1
ENDMDL
MODEL 6
REMARK VINA RESULT:    -3.392      1.300      4.442
REMARK INTER + INTRA:          -3.845
REMARK INTER:                  -3.655
REMARK INTRA:                  -0.190
REMARK UNBOUND:                -0.255
REMARK  Name = Nicotine.pdb
REMARK  2 active torsions:
REMARK  status: ('A' for Active; 'I' for Inactive)
REMARK    1  A    between atoms: C_3  and  C_6
REMARK    2  A    between atoms: N_4  and  C_12
REMARK                            x       y       z     vdW  Elec       q    Type
REMARK                         _______ _______ _______ _____ _____    ______ ____
ROOT
ATOM      1  C   UNL     1      10.147  -1.262   4.106  0.00  0.00    +0.017 C 
ATOM      2  C   UNL     1       9.087  -1.137   2.980  0.00  0.00    +0.025 C 
ATOM      3  C   UNL     1       8.353  -2.493   3.041  0.00  0.00    +0.088 C 
ATOM      4  N   UNL     1       9.263  -3.453   3.692  0.00  0.00    -0.298 NA
ATOM      5  C   UNL     1      10.529  -2.760   4.011  0.00  0.00    +0.085 C 
ATOM      6  C   UNL     1       8.653  -4.020   4.902  0.00  0.00    +0.105 C 
ENDROOT
BRANCH   3   7
ATOM      7  C   UNL     1       8.023  -2.961   1.648  0.00  0.00    -0.012 A 
ATOM      8  C   UNL     1       7.656  -2.052   0.673  0.00  0.00    +0.115 A 
ATOM      9  N   UNL     1       7.366  -2.454  -0.549  0.00  0.00    -0.263 NA
ATOM     10  C   UNL     1       7.413  -3.726  -0.890  0.00  0.00    +0.111 A 
ATOM     11  C   UNL     1       7.772  -4.693   0.031  0.00  0.00    +0.020 A 
ATOM     12  C   UNL     1       8.089  -4.308   1.325  0.00  0.00    +0.008 A 
ENDBRANCH   3   7
TORSDOF 1
ENDMDL
MODEL 7
REMARK VINA RESULT:    -3.288      1.937      4.561
REMARK INTER + INTRA:          -3.736
REMARK INTER:                  -3.549
REMARK INTRA:                  -0.187
REMARK UNBOUND:                -0.255
REMARK  Name = Nicotine.pdb
REMARK  2 active torsions:
REMARK  status: ('A' for Active; 'I' for Inactive)
REMARK    1  A    between atoms: C_3  and  C_6
REMARK    2  A    between atoms: N_4  and  C_12
REMARK                            x       y       z     vdW  Elec       q    Type
REMARK                         _______ _______ _______ _____ _____    ______ ____
ROOT
ATOM      1  C   UNL     1       8.806  -3.316   5.742  0.00  0.00    +0.017 C 
ATOM      2  C   UNL     1       8.936  -3.284   4.196  0.00  0.00    +0.025 C 
ATOM      3  C   UNL     1       9.444  -1.852   3.920  0.00  0.00    +0.088 C 
ATOM      4  N   UNL     1       9.070  -1.025   5.082  0.00  0.00    -0.298 NA
ATOM      5  C   UNL     1       8.337  -1.872   6.047  0.00  0.00    +0.085 C 
ATOM      6  C   UNL     1      10.257  -0.424   5.704  0.00  0.00    +0.105 C 
ENDROOT
BRANCH   3   7
ATOM      7  C   UNL     1       8.795  -1.310   2.673  0.00  0.00    -0.012 A 
ATOM      8  C   UNL     1       8.188  -2.165   1.773  0.00  0.00    +0.115 A 
ATOM      9  N   UNL     1       7.617  -1.698   0.679  0.00  0.00    -0.263 NA
ATOM     10  C   UNL     1       7.603  -0.410   0.401  0.00  0.00    +0.111 A 
ATOM     11  C   UNL     1       8.190   0.505   1.255  0.00  0.00    +0.020 A 
ATOM     12  C   UNL     1       8.794   0.053   2.417  0.00  0.00    +0.008 A 
ENDBRANCH   3   7
TORSDOF 1
ENDMDL
MODEL 8
REMARK VINA RESULT:    -3.255      2.312      3.890
REMARK INTER + INTRA:          -3.701
REMARK INTER:                  -3.445
REMARK INTRA:                  -0.256
REMARK UNBOUND:                -0.255
REMARK  Name = Nicotine.pdb
REMARK  2 active torsions:
REMARK  status: ('A' for Active; 'I' for Inactive)
REMARK    1  A    between atoms: C_3  and  C_6
REMARK    2  A    between atoms: N_4  and  C_12
REMARK                            x       y       z     vdW  Elec       q    Type
REMARK                         _______ _______ _______ _____ _____    ______ ____
ROOT
ATOM      1  C   UNL     1       7.195   0.026   0.873  0.00  0.00    +0.017 C 
ATOM      2  C   UNL     1       8.401   0.724   1.556  0.00  0.00    +0.025 C 
ATOM      3  C   UNL     1       9.002  -0.398   2.429  0.00  0.00    +0.088 C 
ATOM      4  N   UNL     1       7.936  -1.388   2.663  0.00  0.00    -0.298 NA
ATOM      5  C   UNL     1       6.702  -0.918   1.998  0.00  0.00    +0.085 C 
ATOM      6  C   UNL     1       8.329  -2.714   2.168  0.00  0.00    +0.105 C 
ENDROOT
BRANCH   3   7
ATOM      7  C   UNL     1       9.473   0.171   3.743  0.00  0.00    -0.012 A 
ATOM      8  C   UNL     1      10.495  -0.440   4.444  0.00  0.00    +0.115 A 
ATOM      9  N   UNL     1      10.913   0.052   5.594  0.00  0.00    -0.263 NA
ATOM     10  C   UNL     1      10.378   1.136   6.119  0.00  0.00    +0.111 A 
ATOM     11  C   UNL     1       9.351   1.802   5.475  0.00  0.00    +0.020 A 
ATOM     12  C   UNL     1       8.890   1.317   4.261  0.00  0.00    +0.008 A 
ENDBRANCH   3   7
TORSDOF 1
ENDMDL
MODEL 9
REMARK VINA RESULT:    -3.232      1.321      2.097
REMARK INTER + INTRA:          -3.676
REMARK INTER:                  -3.466
REMARK INTRA:                  -0.210
REMARK UNBOUND:                -0.255
REMARK  Name = Nicotine.pdb
REMARK  2 active torsions:
REMARK  status: ('A' for Active; 'I' for Inactive)
REMARK    1  A    between atoms: C_3  and  C_6
REMARK    2  A    between atoms: N_4  and  C_12
REMARK                            x       y       z     vdW  Elec       q    Type
REMARK                         _______ _______ _______ _____ _____    ______ ____
ROOT
ATOM      1  C   UNL     1       6.191  -2.905   0.521  0.00  0.00    +0.017 C 
ATOM      2  C   UNL     1       7.674  -2.490   0.705  0.00  0.00    +0.025 C 
ATOM      3  C   UNL     1       8.080  -3.218   2.005  0.00  0.00    +0.088 C 
ATOM      4  N   UNL     1       6.841  -3.500   2.752  0.00  0.00    -0.298 NA
ATOM      5  C   UNL     1       5.697  -2.959   1.988  0.00  0.00    +0.085 C 
ATOM      6  C   UNL     1       6.684  -4.941   2.987  0.00  0.00    +0.105 C 
ENDROOT
BRANCH   3   7
ATOM      7  C   UNL     1       8.985  -2.337   2.825  0.00  0.00    -0.012 A 
ATOM      8  C   UNL     1       8.761  -0.975   2.894  0.00  0.00    +0.115 A 
ATOM      9  N   UNL     1       9.549  -0.196   3.610  0.00  0.00    -0.263 NA
ATOM     10  C   UNL     1      10.574  -0.679   4.283  0.00  0.00    +0.111 A 
ATOM     11  C   UNL     1      10.861  -2.031   4.261  0.00  0.00    +0.020 A 
ATOM     12  C   UNL     1      10.052  -2.881   3.524  0.00  0.00    +0.008 A 
ENDBRANCH   3   7
TORSDOF 1
ENDMDL
MODEL 10
REMARK VINA RESULT:    -3.203      2.333      5.375
REMARK INTER + INTRA:          -3.645
REMARK INTER:                  -3.396
REMARK INTRA:                  -0.249
REMARK UNBOUND:                -0.255
REMARK  Name = Nicotine.pdb
REMARK  2 active torsions:
REMARK  status: ('A' for Active; 'I' for Inactive)
REMARK    1  A    between atoms: C_3  and  C_6
REMARK    2  A    between atoms: N_4  and  C_12
REMARK                            x       y       z     vdW  Elec       q    Type
REMARK                         _______ _______ _______ _____ _____    ______ ____
ROOT
ATOM      1  C   UNL     1      10.542   0.427   5.765  0.00  0.00    +0.017 C 
ATOM      2  C   UNL     1      10.643   0.067   4.259  0.00  0.00    +0.025 C 
ATOM      3  C   UNL     1       9.469   0.851   3.635  0.00  0.00    +0.088 C 
ATOM      4  N   UNL     1       8.499   1.117   4.713  0.00  0.00    -0.298 NA
ATOM      5  C   UNL     1       9.008   0.513   5.964  0.00  0.00    +0.085 C 
ATOM      6  C   UNL     1       8.276   2.559   4.877  0.00  0.00    +0.105 C 
ENDROOT
BRANCH   3   7
ATOM      7  C   UNL     1       8.820   0.027   2.553  0.00  0.00    -0.012 A 
ATOM      8  C   UNL     1       8.390   0.625   1.383  0.00  0.00    +0.115 A 
ATOM      9  N   UNL     1       7.821  -0.088   0.431  0.00  0.00    -0.263 NA
ATOM     10  C   UNL     1       7.642  -1.389   0.552  0.00  0.00    +0.111 A 
ATOM     11  C   UNL     1       8.047  -2.056   1.693  0.00  0.00    +0.020 A 
ATOM     12  C   UNL     1       8.653  -1.340   2.714  0.00  0.00    +0.008 A 
ENDBRANCH   3   7
TORSDOF 1
ENDMDL
