MODEL 1
REMARK VINA RESULT:    -4.035      0.000      0.000
REMARK INTER + INTRA:          -4.527
REMARK INTER:                  -4.271
REMARK INTRA:                  -0.256
REMARK UNBOUND:                -0.256
REMARK  Name = Nicotine.pdb
REMARK  2 active torsions:
REMARK  status: ('A' for Active; 'I' for Inactive)
REMARK    1  A    between atoms: C_3  and  C_6
REMARK    2  A    between atoms: N_4  and  C_12
REMARK                            x       y       z     vdW  Elec       q    Type
REMARK                         _______ _______ _______ _____ _____    ______ ____
ROOT
ATOM      1  C   UNL     1       4.291   1.289  -6.112  0.00  0.00    +0.017 C 
ATOM      2  C   UNL     1       3.235   2.380  -5.797  0.00  0.00    +0.025 C 
ATOM      3  C   UNL     1       2.263   1.657  -4.840  0.00  0.00    +0.088 C 
ATOM      4  N   UNL     1       2.419   0.210  -5.071  0.00  0.00    -0.298 NA
ATOM      5  C   UNL     1       3.420   0.008  -6.141  0.00  0.00    +0.085 C 
ATOM      6  C   UNL     1       2.818  -0.481  -3.838  0.00  0.00    +0.105 C 
ENDROOT
BRANCH   3   7
ATOM      7  C   UNL     1       0.846   2.075  -5.136  0.00  0.00    -0.012 A 
ATOM      8  C   UNL     1      -0.140   1.931  -4.179  0.00  0.00    +0.115 A 
ATOM      9  N   UNL     1      -1.383   2.294  -4.430  0.00  0.00    -0.263 NA
ATOM     10  C   UNL     1      -1.734   2.806  -5.593  0.00  0.00    +0.111 A 
ATOM     11  C   UNL     1      -0.802   2.981  -6.599  0.00  0.00    +0.020 A 
ATOM     12  C   UNL     1       0.516   2.615  -6.370  0.00  0.00    +0.008 A 
ENDBRANCH   3   7
TORSDOF 1
ENDMDL
MODEL 2
REMARK VINA RESULT:    -3.822      1.370      4.356
REMARK INTER + INTRA:          -4.302
REMARK INTER:                  -4.047
REMARK INTRA:                  -0.254
REMARK UNBOUND:                -0.256
REMARK  Name = Nicotine.pdb
REMARK  2 active torsions:
REMARK  status: ('A' for Active; 'I' for Inactive)
REMARK    1  A    between atoms: C_3  and  C_6
REMARK    2  A    between atoms: N_4  and  C_12
REMARK                            x       y       z     vdW  Elec       q    Type
REMARK                         _______ _______ _______ _____ _____    ______ ____
ROOT
ATOM      1  C   UNL     1      -1.056   2.564  -5.607  0.00  0.00    +0.017 C 
ATOM      2  C   UNL     1       0.150   2.323  -6.553  0.00  0.00    +0.025 C 
ATOM      3  C   UNL     1       0.783   1.034  -5.988  0.00  0.00    +0.088 C 
ATOM      4  N   UNL     1       0.356   0.918  -4.582  0.00  0.00    -0.298 NA
ATOM      5  C   UNL     1      -0.487   2.086  -4.248  0.00  0.00    +0.085 C 
ATOM      6  C   UNL     1      -0.369  -0.338  -4.353  0.00  0.00    +0.105 C 
ENDROOT
BRANCH   3   7
ATOM      7  C   UNL     1       2.285   1.124  -6.064  0.00  0.00    -0.012 A 
ATOM      8  C   UNL     1       3.045  -0.016  -6.243  0.00  0.00    +0.115 A 
ATOM      9  N   UNL     1       4.361   0.054  -6.310  0.00  0.00    -0.263 NA
ATOM     10  C   UNL     1       4.999   1.203  -6.210  0.00  0.00    +0.111 A 
ATOM     11  C   UNL     1       4.305   2.385  -6.030  0.00  0.00    +0.020 A 
ATOM     12  C   UNL     1       2.921   2.352  -5.960  0.00  0.00    +0.008 A 
ENDBRANCH   3   7
TORSDOF 1
ENDMDL
MODEL 3
REMARK VINA RESULT:    -3.683      2.150      4.675
REMARK INTER + INTRA:          -4.154
REMARK INTER:                  -3.942
REMARK INTRA:                  -0.212
REMARK UNBOUND:                -0.256
REMARK  Name = Nicotine.pdb
REMARK  2 active torsions:
REMARK  status: ('A' for Active; 'I' for Inactive)
REMARK    1  A    between atoms: C_3  and  C_6
REMARK    2  A    between atoms: N_4  and  C_12
REMARK                            x       y       z     vdW  Elec       q    Type
REMARK                         _______ _______ _______ _____ _____    ______ ____
ROOT
ATOM      1  C   UNL     1      -3.074   2.521  -2.690  0.00  0.00    +0.017 C 
ATOM      2  C   UNL     1      -2.314   2.451  -4.041  0.00  0.00    +0.025 C 
ATOM      3  C   UNL     1      -1.075   1.597  -3.698  0.00  0.00    +0.088 C 
ATOM      4  N   UNL     1      -0.868   1.692  -2.242  0.00  0.00    -0.298 NA
ATOM      5  C   UNL     1      -1.904   2.582  -1.676  0.00  0.00    +0.085 C 
ATOM      6  C   UNL     1      -0.915   0.364  -1.615  0.00  0.00    +0.105 C 
ENDROOT
BRANCH   3   7
ATOM      7  C   UNL     1       0.132   2.131  -4.424  0.00  0.00    -0.012 A 
ATOM      8  C   UNL     1       0.134   2.225  -5.803  0.00  0.00    +0.115 A 
ATOM      9  N   UNL     1       1.187   2.691  -6.446  0.00  0.00    -0.263 NA
ATOM     10  C   UNL     1       2.271   3.084  -5.808  0.00  0.00    +0.111 A 
ATOM     11  C   UNL     1       2.342   3.021  -4.429  0.00  0.00    +0.020 A 
ATOM     12  C   UNL     1       1.253   2.541  -3.718  0.00  0.00    +0.008 A 
ENDBRANCH   3   7
TORSDOF 1
ENDMDL
MODEL 4
REMARK VINA RESULT:    -3.531      2.052      3.213
REMARK INTER + INTRA:          -3.994
REMARK INTER:                  -3.785
REMARK INTRA:                  -0.209
REMARK UNBOUND:                -0.256
REMARK  Name = Nicotine.pdb
REMARK  2 active torsions:
REMARK  status: ('A' for Active; 'I' for Inactive)
REMARK    1  A    between atoms: C_3  and  C_6
REMARK    2  A    between atoms: N_4  and  C_12
REMARK                            x       y       z     vdW  Elec       q    Type
REMARK                         _______ _______ _______ _____ _____    ______ ____
ROOT
ATOM      1  C   UNL     1       5.600   1.069  -3.128  0.00  0.00    +0.017 C 
ATOM      2  C   UNL     1       4.380   0.442  -3.854  0.00  0.00    +0.025 C 
ATOM      3  C   UNL     1       4.411   1.125  -5.238  0.00  0.00    +0.088 C 
ATOM      4  N   UNL     1       5.165   2.383  -5.087  0.00  0.00    -0.298 NA
ATOM      5  C   UNL     1       5.577   2.518  -3.674  0.00  0.00    +0.085 C 
ATOM      6  C   UNL     1       6.330   2.409  -5.981  0.00  0.00    +0.105 C 
ENDROOT
BRANCH   3   7
ATOM      7  C   UNL     1       3.006   1.420  -5.696  0.00  0.00    -0.012 A 
ATOM      8  C   UNL     1       2.175   0.394  -6.106  0.00  0.00    +0.115 A 
ATOM      9  N   UNL     1       0.944   0.643  -6.508  0.00  0.00    -0.263 NA
ATOM     10  C   UNL     1       0.459   1.869  -6.536  0.00  0.00    +0.111 A 
ATOM     11  C   UNL     1       1.231   2.945  -6.140  0.00  0.00    +0.020 A 
ATOM     12  C   UNL     1       2.529   2.721  -5.706  0.00  0.00    +0.008 A 
ENDBRANCH   3   7
TORSDOF 1
ENDMDL
MODEL 5
REMARK VINA RESULT:    -3.486      2.104      2.867
REMARK INTER + INTRA:          -3.946
REMARK INTER:                  -3.732
REMARK INTRA:                  -0.213
REMARK UNBOUND:                -0.256
REMARK  Name = Nicotine.pdb
REMARK  2 active torsions:
REMARK  status: ('A' for Active; 'I' for Inactive)
REMARK    1  A    between atoms: C_3  and  C_6
REMARK    2  A    between atoms: N_4  and  C_12
REMARK                            x       y       z     vdW  Elec       q    Type
REMARK                         _______ _______ _______ _____ _____    ______ ____
ROOT
ATOM      1  C   UNL     1       2.375   2.753  -5.746  0.00  0.00    +0.017 C 
ATOM      2  C   UNL     1       1.888   2.919  -4.282  0.00  0.00    +0.025 C 
ATOM      3  C   UNL     1       0.941   1.715  -4.093  0.00  0.00    +0.088 C 
ATOM      4  N   UNL     1       0.499   1.292  -5.434  0.00  0.00    -0.298 NA
ATOM      5  C   UNL     1       1.107   2.192  -6.436  0.00  0.00    +0.085 C 
ATOM      6  C   UNL     1       0.863  -0.107  -5.691  0.00  0.00    +0.105 C 
ENDROOT
BRANCH   3   7
ATOM      7  C   UNL     1      -0.249   2.124  -3.265  0.00  0.00    -0.012 A 
ATOM      8  C   UNL     1      -0.086   2.503  -1.945  0.00  0.00    +0.115 A 
ATOM      9  N   UNL     1      -1.123   2.862  -1.213  0.00  0.00    -0.263 NA
ATOM     10  C   UNL     1      -2.346   2.876  -1.704  0.00  0.00    +0.111 A 
ATOM     11  C   UNL     1      -2.587   2.511  -3.016  0.00  0.00    +0.020 A 
ATOM     12  C   UNL     1      -1.521   2.132  -3.817  0.00  0.00    +0.008 A 
ENDBRANCH   3   7
TORSDOF 1
ENDMDL
MODEL 6
REMARK VINA RESULT:    -3.450      2.526      4.991
REMARK INTER + INTRA:          -3.908
REMARK INTER:                  -3.684
REMARK INTRA:                  -0.223
REMARK UNBOUND:                -0.256
REMARK  Name = Nicotine.pdb
REMARK  2 active torsions:
REMARK  status: ('A' for Active; 'I' for Inactive)
REMARK    1  A    between atoms: C_3  and  C_6
REMARK    2  A    between atoms: N_4  and  C_12
REMARK                            x       y       z     vdW  Elec       q    Type
REMARK                         _______ _______ _______ _____ _____    ______ ____
ROOT
ATOM      1  C   UNL     1      -2.690   0.111  -1.932  0.00  0.00    +0.017 C 
ATOM      2  C   UNL     1      -1.380   0.392  -2.715  0.00  0.00    +0.025 C 
ATOM      3  C   UNL     1      -1.468   1.904  -3.008  0.00  0.00    +0.088 C 
ATOM      4  N   UNL     1      -2.891   2.282  -2.932  0.00  0.00    -0.298 NA
ATOM      5  C   UNL     1      -3.684   1.071  -2.632  0.00  0.00    +0.085 C 
ATOM      6  C   UNL     1      -3.107   3.320  -1.916  0.00  0.00    +0.105 C 
ENDROOT
BRANCH   3   7
ATOM      7  C   UNL     1      -0.933   2.191  -4.387  0.00  0.00    -0.012 A 
ATOM      8  C   UNL     1      -1.730   2.809  -5.332  0.00  0.00    +0.115 A 
ATOM      9  N   UNL     1      -1.270   3.064  -6.541  0.00  0.00    -0.263 NA
ATOM     10  C   UNL     1      -0.042   2.743  -6.897  0.00  0.00    +0.111 A 
ATOM     11  C   UNL     1       0.814   2.123  -6.005  0.00  0.00    +0.020 A 
ATOM     12  C   UNL     1       0.367   1.844  -4.723  0.00  0.00    +0.008 A 
ENDBRANCH   3   7
TORSDOF 1
ENDMDL
MODEL 7
REMARK VINA RESULT:    -3.432      2.306      3.619
REMARK INTER + INTRA:          -3.888
REMARK INTER:                  -3.675
REMARK INTRA:                  -0.213
REMARK UNBOUND:                -0.256
REMARK  Name = Nicotine.pdb
REMARK  2 active torsions:
REMARK  status: ('A' for Active; 'I' for Inactive)
REMARK    1  A    between atoms: C_3  and  C_6
REMARK    2  A    between atoms: N_4  and  C_12
REMARK                            x       y       z     vdW  Elec       q    Type
REMARK                         _______ _______ _______ _____ _____    ______ ____
ROOT
ATOM      1  C   UNL     1       0.148   2.509  -6.863  0.00  0.00    +0.017 C 
ATOM      2  C   UNL     1      -1.051   2.716  -5.901  0.00  0.00    +0.025 C 
ATOM      3  C   UNL     1      -0.531   2.137  -4.568  0.00  0.00    +0.088 C 
ATOM      4  N   UNL     1       0.560   1.202  -4.894  0.00  0.00    -0.298 NA
ATOM      5  C   UNL     1       0.720   1.159  -6.363  0.00  0.00    +0.085 C 
ATOM      6  C   UNL     1       1.812   1.604  -4.240  0.00  0.00    +0.105 C 
ENDROOT
BRANCH   3   7
ATOM      7  C   UNL     1      -1.641   1.404  -3.860  0.00  0.00    -0.012 A 
ATOM      8  C   UNL     1      -2.810   2.061  -3.524  0.00  0.00    +0.115 A 
ATOM      9  N   UNL     1      -3.786   1.428  -2.904  0.00  0.00    -0.263 NA
ATOM     10  C   UNL     1      -3.690   0.153  -2.581  0.00  0.00    +0.111 A 
ATOM     11  C   UNL     1      -2.551  -0.570  -2.886  0.00  0.00    +0.020 A 
ATOM     12  C   UNL     1      -1.506   0.061  -3.542  0.00  0.00    +0.008 A 
ENDBRANCH   3   7
TORSDOF 1
ENDMDL
MODEL 8
REMARK VINA RESULT:    -3.424      2.253      4.931
REMARK INTER + INTRA:          -3.880
REMARK INTER:                  -3.685
REMARK INTRA:                  -0.196
REMARK UNBOUND:                -0.256
REMARK  Name = Nicotine.pdb
REMARK  2 active torsions:
REMARK  status: ('A' for Active; 'I' for Inactive)
REMARK    1  A    between atoms: C_3  and  C_6
REMARK    2  A    between atoms: N_4  and  C_12
REMARK                            x       y       z     vdW  Elec       q    Type
REMARK                         _______ _______ _______ _____ _____    ______ ____
ROOT
ATOM      1  C   UNL     1       0.634   2.371  -5.403  0.00  0.00    +0.017 C 
ATOM      2  C   UNL     1       1.997   2.993  -5.806  0.00  0.00    +0.025 C 
ATOM      3  C   UNL     1       2.940   1.772  -5.837  0.00  0.00    +0.088 C 
ATOM      4  N   UNL     1       2.333   0.730  -4.989  0.00  0.00    -0.298 NA
ATOM      5  C   UNL     1       1.076   1.259  -4.419  0.00  0.00    +0.085 C 
ATOM      6  C   UNL     1       2.087  -0.498  -5.757  0.00  0.00    +0.105 C 
ENDROOT
BRANCH   3   7
ATOM      7  C   UNL     1       4.292   2.154  -5.293  0.00  0.00    -0.012 A 
ATOM      8  C   UNL     1       5.363   2.337  -6.147  0.00  0.00    +0.115 A 
ATOM      9  N   UNL     1       6.549   2.672  -5.679  0.00  0.00    -0.263 NA
ATOM     10  C   UNL     1       6.762   2.845  -4.389  0.00  0.00    +0.111 A 
ATOM     11  C   UNL     1       5.739   2.680  -3.475  0.00  0.00    +0.020 A 
ATOM     12  C   UNL     1       4.476   2.333  -3.930  0.00  0.00    +0.008 A 
ENDBRANCH   3   7
TORSDOF 1
ENDMDL
MODEL 9
REMARK VINA RESULT:    -3.378      1.392      2.142
REMARK INTER + INTRA:          -3.832
REMARK INTER:                  -3.634
REMARK INTRA:                  -0.198
REMARK UNBOUND:                -0.256
REMARK  Name = Nicotine.pdb
REMARK  2 active torsions:
REMARK  status: ('A' for Active; 'I' for Inactive)
REMARK    1  A    between atoms: C_3  and  C_6
REMARK    2  A    between atoms: N_4  and  C_12
REMARK                            x       y       z     vdW  Elec       q    Type
REMARK                         _______ _______ _______ _____ _____    ______ ____
ROOT
ATOM      1  C   UNL     1       4.551   0.810  -3.415  0.00  0.00    +0.017 C 
ATOM      2  C   UNL     1       3.127   0.371  -3.847  0.00  0.00    +0.025 C 
ATOM      3  C   UNL     1       2.942   1.081  -5.205  0.00  0.00    +0.088 C 
ATOM      4  N   UNL     1       3.874   2.223  -5.232  0.00  0.00    -0.298 NA
ATOM      5  C   UNL     1       4.606   2.264  -3.947  0.00  0.00    +0.085 C 
ATOM      6  C   UNL     1       4.804   2.117  -6.364  0.00  0.00    +0.105 C 
ENDROOT
BRANCH   3   7
ATOM      7  C   UNL     1       1.524   1.573  -5.337  0.00  0.00    -0.012 A 
ATOM      8  C   UNL     1       0.593   1.295  -4.353  0.00  0.00    +0.115 A 
ATOM      9  N   UNL     1      -0.650   1.722  -4.461  0.00  0.00    -0.263 NA
ATOM     10  C   UNL     1      -1.054   2.424  -5.501  0.00  0.00    +0.111 A 
ATOM     11  C   UNL     1      -0.180   2.741  -6.524  0.00  0.00    +0.020 A 
ATOM     12  C   UNL     1       1.137   2.314  -6.443  0.00  0.00    +0.008 A 
ENDBRANCH   3   7
TORSDOF 1
ENDMDL
MODEL 10
REMARK VINA RESULT:    -3.254      2.245      3.732
REMARK INTER + INTRA:          -3.700
REMARK INTER:                  -3.455
REMARK INTRA:                  -0.246
REMARK UNBOUND:                -0.256
REMARK  Name = Nicotine.pdb
REMARK  2 active torsions:
REMARK  status: ('A' for Active; 'I' for Inactive)
REMARK    1  A    between atoms: C_3  and  C_6
REMARK    2  A    between atoms: N_4  and  C_12
REMARK                            x       y       z     vdW  Elec       q    Type
REMARK                         _______ _______ _______ _____ _____    ______ ____
ROOT
ATOM      1  C   UNL     1       0.370   0.946  -1.028  0.00  0.00    +0.017 C 
ATOM      2  C   UNL     1       0.201   2.141  -2.002  0.00  0.00    +0.025 C 
ATOM      3  C   UNL     1      -0.814   1.607  -3.035  0.00  0.00    +0.088 C 
ATOM      4  N   UNL     1      -0.753   0.135  -2.987  0.00  0.00    -0.298 NA
ATOM      5  C   UNL     1       0.268  -0.261  -1.994  0.00  0.00    +0.085 C 
ATOM      6  C   UNL     1      -2.064  -0.436  -2.652  0.00  0.00    +0.105 C 
ENDROOT
BRANCH   3   7
ATOM      7  C   UNL     1      -0.447   2.092  -4.413  0.00  0.00    -0.012 A 
ATOM      8  C   UNL     1      -1.424   2.550  -5.277  0.00  0.00    +0.115 A 
ATOM      9  N   UNL     1      -1.111   2.976  -6.485  0.00  0.00    -0.263 NA
ATOM     10  C   UNL     1       0.135   2.983  -6.916  0.00  0.00    +0.111 A 
ATOM     11  C   UNL     1       1.166   2.541  -6.108  0.00  0.00    +0.020 A 
ATOM     12  C   UNL     1       0.876   2.090  -4.830  0.00  0.00    +0.008 A 
ENDBRANCH   3   7
TORSDOF 1
ENDMDL
