MODEL 1
REMARK VINA RESULT:    -3.929      0.000      0.000
REMARK INTER + INTRA:          -4.357
REMARK INTER:                  -4.159
REMARK INTRA:                  -0.198
REMARK UNBOUND:                -0.198
REMARK  Name = Nicotine.pdb
REMARK  2 active torsions:
REMARK  status: ('A' for Active; 'I' for Inactive)
REMARK    1  A    between atoms: C_3  and  C_6
REMARK    2  A    between atoms: N_4  and  C_12
REMARK                            x       y       z     vdW  Elec       q    Type
REMARK                         _______ _______ _______ _____ _____    ______ ____
ROOT
ATOM      1  C   UNL     1      -2.163  -5.020  -5.755  0.00  0.00    +0.017 C 
ATOM      2  C   UNL     1      -2.102  -3.498  -6.050  0.00  0.00    +0.025 C 
ATOM      3  C   UNL     1      -2.001  -2.875  -4.641  0.00  0.00    +0.088 C 
ATOM      4  N   UNL     1      -2.537  -3.863  -3.687  0.00  0.00    -0.298 NA
ATOM      5  C   UNL     1      -2.986  -5.052  -4.443  0.00  0.00    +0.085 C 
ATOM      6  C   UNL     1      -1.529  -4.227  -2.683  0.00  0.00    +0.105 C 
ENDROOT
BRANCH   3   7
ATOM      7  C   UNL     1      -2.814  -1.608  -4.581  0.00  0.00    -0.012 A 
ATOM      8  C   UNL     1      -4.041  -1.595  -3.944  0.00  0.00    +0.115 A 
ATOM      9  N   UNL     1      -4.759  -0.490  -3.886  0.00  0.00    -0.263 NA
ATOM     10  C   UNL     1      -4.342   0.637  -4.429  0.00  0.00    +0.111 A 
ATOM     11  C   UNL     1      -3.125   0.700  -5.082  0.00  0.00    +0.020 A 
ATOM     12  C   UNL     1      -2.340  -0.440  -5.158  0.00  0.00    +0.008 A 
ENDBRANCH   3   7
TORSDOF 1
ENDMDL
MODEL 2
REMARK VINA RESULT:    -3.855      1.476      1.901
REMARK INTER + INTRA:          -4.279
REMARK INTER:                  -4.069
REMARK INTRA:                  -0.211
REMARK UNBOUND:                -0.198
REMARK  Name = Nicotine.pdb
REMARK  2 active torsions:
REMARK  status: ('A' for Active; 'I' for Inactive)
REMARK    1  A    between atoms: C_3  and  C_6
REMARK    2  A    between atoms: N_4  and  C_12
REMARK                            x       y       z     vdW  Elec       q    Type
REMARK                         _______ _______ _______ _____ _____    ______ ____
ROOT
ATOM      1  C   UNL     1      -2.237  -3.789  -5.812  0.00  0.00    +0.017 C 
ATOM      2  C   UNL     1      -2.398  -2.309  -5.376  0.00  0.00    +0.025 C 
ATOM      3  C   UNL     1      -2.215  -2.376  -3.845  0.00  0.00    +0.088 C 
ATOM      4  N   UNL     1      -2.514  -3.758  -3.429  0.00  0.00    -0.298 NA
ATOM      5  C   UNL     1      -2.896  -4.538  -4.626  0.00  0.00    +0.085 C 
ATOM      6  C   UNL     1      -1.362  -4.365  -2.751  0.00  0.00    +0.105 C 
ENDROOT
BRANCH   3   7
ATOM      7  C   UNL     1      -3.167  -1.420  -3.173  0.00  0.00    -0.012 A 
ATOM      8  C   UNL     1      -4.137  -0.767  -3.909  0.00  0.00    +0.115 A 
ATOM      9  N   UNL     1      -4.974   0.071  -3.328  0.00  0.00    -0.263 NA
ATOM     10  C   UNL     1      -4.920   0.319  -2.035  0.00  0.00    +0.111 A 
ATOM     11  C   UNL     1      -3.977  -0.298  -1.234  0.00  0.00    +0.020 A 
ATOM     12  C   UNL     1      -3.083  -1.189  -1.808  0.00  0.00    +0.008 A 
ENDBRANCH   3   7
TORSDOF 1
ENDMDL
MODEL 3
REMARK VINA RESULT:    -3.602      1.197      4.555
REMARK INTER + INTRA:          -4.011
REMARK INTER:                  -3.804
REMARK INTRA:                  -0.207
REMARK UNBOUND:                -0.198
REMARK  Name = Nicotine.pdb
REMARK  2 active torsions:
REMARK  status: ('A' for Active; 'I' for Inactive)
REMARK    1  A    between atoms: C_3  and  C_6
REMARK    2  A    between atoms: N_4  and  C_12
REMARK                            x       y       z     vdW  Elec       q    Type
REMARK                         _______ _______ _______ _____ _____    ______ ____
ROOT
ATOM      1  C   UNL     1      -4.487   0.454  -2.712  0.00  0.00    +0.017 C 
ATOM      2  C   UNL     1      -3.719  -0.867  -2.449  0.00  0.00    +0.025 C 
ATOM      3  C   UNL     1      -2.638  -0.866  -3.551  0.00  0.00    +0.088 C 
ATOM      4  N   UNL     1      -3.117   0.015  -4.632  0.00  0.00    -0.298 NA
ATOM      5  C   UNL     1      -4.450   0.535  -4.259  0.00  0.00    +0.085 C 
ATOM      6  C   UNL     1      -2.172   1.112  -4.875  0.00  0.00    +0.105 C 
ENDROOT
BRANCH   3   7
ATOM      7  C   UNL     1      -2.441  -2.265  -4.077  0.00  0.00    -0.012 A 
ATOM      8  C   UNL     1      -2.198  -3.311  -3.208  0.00  0.00    +0.115 A 
ATOM      9  N   UNL     1      -2.025  -4.538  -3.660  0.00  0.00    -0.263 NA
ATOM     10  C   UNL     1      -2.075  -4.815  -4.948  0.00  0.00    +0.111 A 
ATOM     11  C   UNL     1      -2.314  -3.820  -5.877  0.00  0.00    +0.020 A 
ATOM     12  C   UNL     1      -2.507  -2.519  -5.439  0.00  0.00    +0.008 A 
ENDBRANCH   3   7
TORSDOF 1
ENDMDL
MODEL 4
REMARK VINA RESULT:    -3.490      1.580      4.385
REMARK INTER + INTRA:          -3.893
REMARK INTER:                  -3.676
REMARK INTRA:                  -0.216
REMARK UNBOUND:                -0.198
REMARK  Name = Nicotine.pdb
REMARK  2 active torsions:
REMARK  status: ('A' for Active; 'I' for Inactive)
REMARK    1  A    between atoms: C_3  and  C_6
REMARK    2  A    between atoms: N_4  and  C_12
REMARK                            x       y       z     vdW  Elec       q    Type
REMARK                         _______ _______ _______ _____ _____    ______ ____
ROOT
ATOM      1  C   UNL     1      -3.221   1.243  -3.714  0.00  0.00    +0.017 C 
ATOM      2  C   UNL     1      -3.335   0.014  -4.654  0.00  0.00    +0.025 C 
ATOM      3  C   UNL     1      -3.546  -1.157  -3.671  0.00  0.00    +0.088 C 
ATOM      4  N   UNL     1      -3.021  -0.728  -2.362  0.00  0.00    -0.298 NA
ATOM      5  C   UNL     1      -2.475   0.639  -2.499  0.00  0.00    +0.085 C 
ATOM      6  C   UNL     1      -4.068  -0.777  -1.333  0.00  0.00    +0.105 C 
ENDROOT
BRANCH   3   7
ATOM      7  C   UNL     1      -2.797  -2.372  -4.152  0.00  0.00    -0.012 A 
ATOM      8  C   UNL     1      -2.162  -3.205  -3.250  0.00  0.00    +0.115 A 
ATOM      9  N   UNL     1      -1.504  -4.271  -3.663  0.00  0.00    -0.263 NA
ATOM     10  C   UNL     1      -1.425  -4.584  -4.941  0.00  0.00    +0.111 A 
ATOM     11  C   UNL     1      -2.036  -3.800  -5.901  0.00  0.00    +0.020 A 
ATOM     12  C   UNL     1      -2.741  -2.674  -5.504  0.00  0.00    +0.008 A 
ENDBRANCH   3   7
TORSDOF 1
ENDMDL
MODEL 5
REMARK VINA RESULT:    -3.261      3.296      5.006
REMARK INTER + INTRA:          -3.650
REMARK INTER:                  -3.445
REMARK INTRA:                  -0.205
REMARK UNBOUND:                -0.198
REMARK  Name = Nicotine.pdb
REMARK  2 active torsions:
REMARK  status: ('A' for Active; 'I' for Inactive)
REMARK    1  A    between atoms: C_3  and  C_6
REMARK    2  A    between atoms: N_4  and  C_12
REMARK                            x       y       z     vdW  Elec       q    Type
REMARK                         _______ _______ _______ _____ _____    ______ ____
ROOT
ATOM      1  C   UNL     1      -3.185   1.009  -3.958  0.00  0.00    +0.017 C 
ATOM      2  C   UNL     1      -2.707   0.671  -2.521  0.00  0.00    +0.025 C 
ATOM      3  C   UNL     1      -3.066  -0.823  -2.377  0.00  0.00    +0.088 C 
ATOM      4  N   UNL     1      -4.130  -1.112  -3.356  0.00  0.00    -0.298 NA
ATOM      5  C   UNL     1      -4.460   0.136  -4.076  0.00  0.00    +0.085 C 
ATOM      6  C   UNL     1      -3.714  -2.166  -4.290  0.00  0.00    +0.105 C 
ENDROOT
BRANCH   3   7
ATOM      7  C   UNL     1      -3.563  -1.099  -0.982  0.00  0.00    -0.012 A 
ATOM      8  C   UNL     1      -2.836  -1.907  -0.128  0.00  0.00    +0.115 A 
ATOM      9  N   UNL     1      -3.263  -2.153   1.095  0.00  0.00    -0.263 NA
ATOM     10  C   UNL     1      -4.390  -1.644   1.551  0.00  0.00    +0.111 A 
ATOM     11  C   UNL     1      -5.170  -0.826   0.755  0.00  0.00    +0.020 A 
ATOM     12  C   UNL     1      -4.751  -0.540  -0.535  0.00  0.00    +0.008 A 
ENDBRANCH   3   7
TORSDOF 1
ENDMDL
MODEL 6
REMARK VINA RESULT:    -3.244      3.703      5.064
REMARK INTER + INTRA:          -3.633
REMARK INTER:                  -3.407
REMARK INTRA:                  -0.226
REMARK UNBOUND:                -0.198
REMARK  Name = Nicotine.pdb
REMARK  2 active torsions:
REMARK  status: ('A' for Active; 'I' for Inactive)
REMARK    1  A    between atoms: C_3  and  C_6
REMARK    2  A    between atoms: N_4  and  C_12
REMARK                            x       y       z     vdW  Elec       q    Type
REMARK                         _______ _______ _______ _____ _____    ______ ____
ROOT
ATOM      1  C   UNL     1      -3.608  -2.515   1.611  0.00  0.00    +0.017 C 
ATOM      2  C   UNL     1      -2.937  -2.008   0.307  0.00  0.00    +0.025 C 
ATOM      3  C   UNL     1      -3.704  -0.702   0.008  0.00  0.00    +0.088 C 
ATOM      4  N   UNL     1      -5.003  -0.790   0.698  0.00  0.00    -0.298 NA
ATOM      5  C   UNL     1      -5.083  -2.096   1.387  0.00  0.00    +0.085 C 
ATOM      6  C   UNL     1      -5.171   0.318   1.648  0.00  0.00    +0.105 C 
ENDROOT
BRANCH   3   7
ATOM      7  C   UNL     1      -3.919  -0.564  -1.477  0.00  0.00    -0.012 A 
ATOM      8  C   UNL     1      -4.769   0.408  -1.973  0.00  0.00    +0.115 A 
ATOM      9  N   UNL     1      -4.963   0.536  -3.271  0.00  0.00    -0.263 NA
ATOM     10  C   UNL     1      -4.362  -0.249  -4.142  0.00  0.00    +0.111 A 
ATOM     11  C   UNL     1      -3.498  -1.243  -3.721  0.00  0.00    +0.020 A 
ATOM     12  C   UNL     1      -3.265  -1.405  -2.364  0.00  0.00    +0.008 A 
ENDBRANCH   3   7
TORSDOF 1
ENDMDL
MODEL 7
REMARK VINA RESULT:    -3.219      2.742      4.712
REMARK INTER + INTRA:          -3.605
REMARK INTER:                  -3.385
REMARK INTRA:                  -0.221
REMARK UNBOUND:                -0.198
REMARK  Name = Nicotine.pdb
REMARK  2 active torsions:
REMARK  status: ('A' for Active; 'I' for Inactive)
REMARK    1  A    between atoms: C_3  and  C_6
REMARK    2  A    between atoms: N_4  and  C_12
REMARK                            x       y       z     vdW  Elec       q    Type
REMARK                         _______ _______ _______ _____ _____    ______ ____
ROOT
ATOM      1  C   UNL     1      -2.718  -1.257  -4.815  0.00  0.00    +0.017 C 
ATOM      2  C   UNL     1      -3.745  -1.345  -3.656  0.00  0.00    +0.025 C 
ATOM      3  C   UNL     1      -4.399   0.053  -3.664  0.00  0.00    +0.088 C 
ATOM      4  N   UNL     1      -3.456   0.972  -4.326  0.00  0.00    -0.298 NA
ATOM      5  C   UNL     1      -2.244   0.214  -4.702  0.00  0.00    +0.085 C 
ATOM      6  C   UNL     1      -4.071   1.601  -5.502  0.00  0.00    +0.105 C 
ENDROOT
BRANCH   3   7
ATOM      7  C   UNL     1      -4.655   0.508  -2.251  0.00  0.00    -0.012 A 
ATOM      8  C   UNL     1      -4.921   1.837  -1.982  0.00  0.00    +0.115 A 
ATOM      9  N   UNL     1      -5.146   2.244  -0.747  0.00  0.00    -0.263 NA
ATOM     10  C   UNL     1      -5.126   1.409   0.272  0.00  0.00    +0.111 A 
ATOM     11  C   UNL     1      -4.866   0.064   0.080  0.00  0.00    +0.020 A 
ATOM     12  C   UNL     1      -4.631  -0.401  -1.204  0.00  0.00    +0.008 A 
ENDBRANCH   3   7
TORSDOF 1
ENDMDL
MODEL 8
REMARK VINA RESULT:    -3.150      2.865      4.495
REMARK INTER + INTRA:          -3.533
REMARK INTER:                  -3.318
REMARK INTRA:                  -0.215
REMARK UNBOUND:                -0.198
REMARK  Name = Nicotine.pdb
REMARK  2 active torsions:
REMARK  status: ('A' for Active; 'I' for Inactive)
REMARK    1  A    between atoms: C_3  and  C_6
REMARK    2  A    between atoms: N_4  and  C_12
REMARK                            x       y       z     vdW  Elec       q    Type
REMARK                         _______ _______ _______ _____ _____    ______ ____
ROOT
ATOM      1  C   UNL     1      -2.452  -1.494  -5.044  0.00  0.00    +0.017 C 
ATOM      2  C   UNL     1      -3.160  -2.012  -3.765  0.00  0.00    +0.025 C 
ATOM      3  C   UNL     1      -3.993  -0.794  -3.312  0.00  0.00    +0.088 C 
ATOM      4  N   UNL     1      -3.371   0.405  -3.903  0.00  0.00    -0.298 NA
ATOM      5  C   UNL     1      -2.182  -0.014  -4.676  0.00  0.00    +0.085 C 
ATOM      6  C   UNL     1      -4.324   1.128  -4.754  0.00  0.00    +0.105 C 
ENDROOT
BRANCH   3   7
ATOM      7  C   UNL     1      -3.978  -0.693  -1.809  0.00  0.00    -0.012 A 
ATOM      8  C   UNL     1      -2.999  -1.335  -1.075  0.00  0.00    +0.115 A 
ATOM      9  N   UNL     1      -2.978  -1.251   0.241  0.00  0.00    -0.263 NA
ATOM     10  C   UNL     1      -3.882  -0.559   0.906  0.00  0.00    +0.111 A 
ATOM     11  C   UNL     1      -4.891   0.111   0.240  0.00  0.00    +0.020 A 
ATOM     12  C   UNL     1      -4.942   0.050  -1.144  0.00  0.00    +0.008 A 
ENDBRANCH   3   7
TORSDOF 1
ENDMDL
MODEL 9
REMARK VINA RESULT:    -3.029      1.964      4.897
REMARK INTER + INTRA:          -3.405
REMARK INTER:                  -3.190
REMARK INTRA:                  -0.215
REMARK UNBOUND:                -0.198
REMARK  Name = Nicotine.pdb
REMARK  2 active torsions:
REMARK  status: ('A' for Active; 'I' for Inactive)
REMARK    1  A    between atoms: C_3  and  C_6
REMARK    2  A    between atoms: N_4  and  C_12
REMARK                            x       y       z     vdW  Elec       q    Type
REMARK                         _______ _______ _______ _____ _____    ______ ____
ROOT
ATOM      1  C   UNL     1      -2.603   3.019  -4.342  0.00  0.00    +0.017 C 
ATOM      2  C   UNL     1      -2.642   1.633  -3.647  0.00  0.00    +0.025 C 
ATOM      3  C   UNL     1      -1.995   0.701  -4.694  0.00  0.00    +0.088 C 
ATOM      4  N   UNL     1      -2.132   1.358  -6.007  0.00  0.00    -0.298 NA
ATOM      5  C   UNL     1      -2.854   2.635  -5.821  0.00  0.00    +0.085 C 
ATOM      6  C   UNL     1      -0.819   1.580  -6.625  0.00  0.00    +0.105 C 
ENDROOT
BRANCH   3   7
ATOM      7  C   UNL     1      -2.706  -0.627  -4.707  0.00  0.00    -0.012 A 
ATOM      8  C   UNL     1      -3.951  -0.760  -4.121  0.00  0.00    +0.115 A 
ATOM      9  N   UNL     1      -4.579  -1.919  -4.128  0.00  0.00    -0.263 NA
ATOM     10  C   UNL     1      -4.053  -2.990  -4.689  0.00  0.00    +0.111 A 
ATOM     11  C   UNL     1      -2.812  -2.933  -5.295  0.00  0.00    +0.020 A 
ATOM     12  C   UNL     1      -2.123  -1.730  -5.312  0.00  0.00    +0.008 A 
ENDBRANCH   3   7
TORSDOF 1
ENDMDL
MODEL 10
REMARK VINA RESULT:    -2.967      1.962      5.281
REMARK INTER + INTRA:          -3.338
REMARK INTER:                  -3.116
REMARK INTRA:                  -0.222
REMARK UNBOUND:                -0.198
REMARK  Name = Nicotine.pdb
REMARK  2 active torsions:
REMARK  status: ('A' for Active; 'I' for Inactive)
REMARK    1  A    between atoms: C_3  and  C_6
REMARK    2  A    between atoms: N_4  and  C_12
REMARK                            x       y       z     vdW  Elec       q    Type
REMARK                         _______ _______ _______ _____ _____    ______ ____
ROOT
ATOM      1  C   UNL     1      -2.282   3.263  -3.022  0.00  0.00    +0.017 C 
ATOM      2  C   UNL     1      -1.835   2.002  -3.807  0.00  0.00    +0.025 C 
ATOM      3  C   UNL     1      -3.114   1.596  -4.570  0.00  0.00    +0.088 C 
ATOM      4  N   UNL     1      -4.257   2.181  -3.848  0.00  0.00    -0.298 NA
ATOM      5  C   UNL     1      -3.746   2.905  -2.664  0.00  0.00    +0.085 C 
ATOM      6  C   UNL     1      -5.030   3.075  -4.720  0.00  0.00    +0.105 C 
ENDROOT
BRANCH   3   7
ATOM      7  C   UNL     1      -3.238   0.095  -4.600  0.00  0.00    -0.012 A 
ATOM      8  C   UNL     1      -4.330  -0.528  -4.026  0.00  0.00    +0.115 A 
ATOM      9  N   UNL     1      -4.447  -1.841  -4.047  0.00  0.00    -0.263 NA
ATOM     10  C   UNL     1      -3.535  -2.609  -4.611  0.00  0.00    +0.111 A 
ATOM     11  C   UNL     1      -2.415  -2.057  -5.206  0.00  0.00    +0.020 A 
ATOM     12  C   UNL     1      -2.261  -0.680  -5.207  0.00  0.00    +0.008 A 
ENDBRANCH   3   7
TORSDOF 1
ENDMDL
