MODEL 1
REMARK VINA RESULT:    -3.801      0.000      0.000
REMARK INTER + INTRA:          -4.279
REMARK INTER:                  -4.023
REMARK INTRA:                  -0.256
REMARK UNBOUND:                -0.256
REMARK  Name = Nicotine.pdb
REMARK  2 active torsions:
REMARK  status: ('A' for Active; 'I' for Inactive)
REMARK    1  A    between atoms: C_3  and  C_6
REMARK    2  A    between atoms: N_4  and  C_12
REMARK                            x       y       z     vdW  Elec       q    Type
REMARK                         _______ _______ _______ _____ _____    ______ ____
ROOT
ATOM      1  C   UNL     1      -4.251  -4.738  -3.667  0.00  0.00    +0.017 C 
ATOM      2  C   UNL     1      -3.153  -5.748  -4.094  0.00  0.00    +0.025 C 
ATOM      3  C   UNL     1      -1.852  -4.929  -3.945  0.00  0.00    +0.088 C 
ATOM      4  N   UNL     1      -2.223  -3.504  -4.011  0.00  0.00    -0.298 NA
ATOM      5  C   UNL     1      -3.684  -3.407  -4.218  0.00  0.00    +0.085 C 
ATOM      6  C   UNL     1      -1.816  -2.797  -2.790  0.00  0.00    +0.105 C 
ENDROOT
BRANCH   3   7
ATOM      7  C   UNL     1      -0.904  -5.266  -5.066  0.00  0.00    -0.012 A 
ATOM      8  C   UNL     1       0.453  -5.043  -4.924  0.00  0.00    +0.115 A 
ATOM      9  N   UNL     1       1.290  -5.335  -5.900  0.00  0.00    -0.263 NA
ATOM     10  C   UNL     1       0.873  -5.846  -7.042  0.00  0.00    +0.111 A 
ATOM     11  C   UNL     1      -0.470  -6.097  -7.256  0.00  0.00    +0.020 A 
ATOM     12  C   UNL     1      -1.379  -5.808  -6.250  0.00  0.00    +0.008 A 
ENDBRANCH   3   7
TORSDOF 1
ENDMDL
MODEL 2
REMARK VINA RESULT:    -3.684      1.342      2.128
REMARK INTER + INTRA:          -4.155
REMARK INTER:                  -3.958
REMARK INTRA:                  -0.196
REMARK UNBOUND:                -0.256
REMARK  Name = Nicotine.pdb
REMARK  2 active torsions:
REMARK  status: ('A' for Active; 'I' for Inactive)
REMARK    1  A    between atoms: C_3  and  C_6
REMARK    2  A    between atoms: N_4  and  C_12
REMARK                            x       y       z     vdW  Elec       q    Type
REMARK                         _______ _______ _______ _____ _____    ______ ____
ROOT
ATOM      1  C   UNL     1      -3.436  -2.736  -2.961  0.00  0.00    +0.017 C 
ATOM      2  C   UNL     1      -3.235  -3.406  -4.346  0.00  0.00    +0.025 C 
ATOM      3  C   UNL     1      -2.563  -4.749  -3.987  0.00  0.00    +0.088 C 
ATOM      4  N   UNL     1      -1.935  -4.584  -2.664  0.00  0.00    -0.298 NA
ATOM      5  C   UNL     1      -2.166  -3.198  -2.203  0.00  0.00    +0.085 C 
ATOM      6  C   UNL     1      -2.470  -5.555  -1.701  0.00  0.00    +0.105 C 
ENDROOT
BRANCH   3   7
ATOM      7  C   UNL     1      -1.515  -5.088  -5.015  0.00  0.00    -0.012 A 
ATOM      8  C   UNL     1      -1.857  -5.782  -6.160  0.00  0.00    +0.115 A 
ATOM      9  N   UNL     1      -0.946  -6.083  -7.064  0.00  0.00    -0.263 NA
ATOM     10  C   UNL     1       0.318  -5.738  -6.916  0.00  0.00    +0.111 A 
ATOM     11  C   UNL     1       0.735  -5.042  -5.797  0.00  0.00    +0.020 A 
ATOM     12  C   UNL     1      -0.196  -4.704  -4.827  0.00  0.00    +0.008 A 
ENDBRANCH   3   7
TORSDOF 1
ENDMDL
MODEL 3
REMARK VINA RESULT:    -3.581      1.349      4.625
REMARK INTER + INTRA:          -4.046
REMARK INTER:                  -3.801
REMARK INTRA:                  -0.245
REMARK UNBOUND:                -0.256
REMARK  Name = Nicotine.pdb
REMARK  2 active torsions:
REMARK  status: ('A' for Active; 'I' for Inactive)
REMARK    1  A    between atoms: C_3  and  C_6
REMARK    2  A    between atoms: N_4  and  C_12
REMARK                            x       y       z     vdW  Elec       q    Type
REMARK                         _______ _______ _______ _____ _____    ______ ____
ROOT
ATOM      1  C   UNL     1       1.324  -4.686  -4.266  0.00  0.00    +0.017 C 
ATOM      2  C   UNL     1       0.048  -4.883  -3.406  0.00  0.00    +0.025 C 
ATOM      3  C   UNL     1      -0.990  -5.381  -4.434  0.00  0.00    +0.088 C 
ATOM      4  N   UNL     1      -0.530  -4.945  -5.765  0.00  0.00    -0.298 NA
ATOM      5  C   UNL     1       0.725  -4.182  -5.603  0.00  0.00    +0.085 C 
ATOM      6  C   UNL     1      -0.337  -6.094  -6.658  0.00  0.00    +0.105 C 
ENDROOT
BRANCH   3   7
ATOM      7  C   UNL     1      -2.338  -4.780  -4.133  0.00  0.00    -0.012 A 
ATOM      8  C   UNL     1      -3.481  -5.554  -4.204  0.00  0.00    +0.115 A 
ATOM      9  N   UNL     1      -4.665  -5.036  -3.943  0.00  0.00    -0.263 NA
ATOM     10  C   UNL     1      -4.808  -3.769  -3.606  0.00  0.00    +0.111 A 
ATOM     11  C   UNL     1      -3.711  -2.933  -3.514  0.00  0.00    +0.020 A 
ATOM     12  C   UNL     1      -2.449  -3.444  -3.776  0.00  0.00    +0.008 A 
ENDBRANCH   3   7
TORSDOF 1
ENDMDL
MODEL 4
REMARK VINA RESULT:    -3.455      1.493      2.735
REMARK INTER + INTRA:          -3.912
REMARK INTER:                  -3.701
REMARK INTRA:                  -0.212
REMARK UNBOUND:                -0.256
REMARK  Name = Nicotine.pdb
REMARK  2 active torsions:
REMARK  status: ('A' for Active; 'I' for Inactive)
REMARK    1  A    between atoms: C_3  and  C_6
REMARK    2  A    between atoms: N_4  and  C_12
REMARK                            x       y       z     vdW  Elec       q    Type
REMARK                         _______ _______ _______ _____ _____    ______ ____
ROOT
ATOM      1  C   UNL     1      -1.794  -1.556  -1.450  0.00  0.00    +0.017 C 
ATOM      2  C   UNL     1      -1.335  -1.856  -2.902  0.00  0.00    +0.025 C 
ATOM      3  C   UNL     1      -2.429  -2.814  -3.420  0.00  0.00    +0.088 C 
ATOM      4  N   UNL     1      -3.065  -3.430  -2.242  0.00  0.00    -0.298 NA
ATOM      5  C   UNL     1      -2.399  -2.917  -1.026  0.00  0.00    +0.085 C 
ATOM      6  C   UNL     1      -4.506  -3.147  -2.213  0.00  0.00    +0.105 C 
ENDROOT
BRANCH   3   7
ATOM      7  C   UNL     1      -1.808  -3.880  -4.286  0.00  0.00    -0.012 A 
ATOM      8  C   UNL     1      -0.434  -4.009  -4.359  0.00  0.00    +0.115 A 
ATOM      9  N   UNL     1       0.117  -4.939  -5.114  0.00  0.00    -0.263 NA
ATOM     10  C   UNL     1      -0.612  -5.777  -5.824  0.00  0.00    +0.111 A 
ATOM     11  C   UNL     1      -1.993  -5.709  -5.801  0.00  0.00    +0.020 A 
ATOM     12  C   UNL     1      -2.608  -4.747  -5.015  0.00  0.00    +0.008 A 
ENDBRANCH   3   7
TORSDOF 1
ENDMDL
MODEL 5
REMARK VINA RESULT:    -3.373      1.843      4.795
REMARK INTER + INTRA:          -3.826
REMARK INTER:                  -3.569
REMARK INTRA:                  -0.256
REMARK UNBOUND:                -0.256
REMARK  Name = Nicotine.pdb
REMARK  2 active torsions:
REMARK  status: ('A' for Active; 'I' for Inactive)
REMARK    1  A    between atoms: C_3  and  C_6
REMARK    2  A    between atoms: N_4  and  C_12
REMARK                            x       y       z     vdW  Elec       q    Type
REMARK                         _______ _______ _______ _____ _____    ______ ____
ROOT
ATOM      1  C   UNL     1      -2.275  -5.609  -5.146  0.00  0.00    +0.017 C 
ATOM      2  C   UNL     1      -2.870  -4.263  -4.655  0.00  0.00    +0.025 C 
ATOM      3  C   UNL     1      -1.616  -3.445  -4.280  0.00  0.00    +0.088 C 
ATOM      4  N   UNL     1      -0.527  -4.406  -4.028  0.00  0.00    -0.298 NA
ATOM      5  C   UNL     1      -1.057  -5.775  -4.203  0.00  0.00    +0.085 C 
ATOM      6  C   UNL     1       0.610  -4.162  -4.924  0.00  0.00    +0.105 C 
ENDROOT
BRANCH   3   7
ATOM      7  C   UNL     1      -1.885  -2.635  -3.039  0.00  0.00    -0.012 A 
ATOM      8  C   UNL     1      -1.108  -1.530  -2.744  0.00  0.00    +0.115 A 
ATOM      9  N   UNL     1      -1.337  -0.814  -1.660  0.00  0.00    -0.263 NA
ATOM     10  C   UNL     1      -2.305  -1.120  -0.820  0.00  0.00    +0.111 A 
ATOM     11  C   UNL     1      -3.123  -2.211  -1.049  0.00  0.00    +0.020 A 
ATOM     12  C   UNL     1      -2.917  -2.983  -2.181  0.00  0.00    +0.008 A 
ENDBRANCH   3   7
TORSDOF 1
ENDMDL
MODEL 6
REMARK VINA RESULT:    -3.328      2.314      4.443
REMARK INTER + INTRA:          -3.778
REMARK INTER:                  -3.593
REMARK INTRA:                  -0.185
REMARK UNBOUND:                -0.256
REMARK  Name = Nicotine.pdb
REMARK  2 active torsions:
REMARK  status: ('A' for Active; 'I' for Inactive)
REMARK    1  A    between atoms: C_3  and  C_6
REMARK    2  A    between atoms: N_4  and  C_12
REMARK                            x       y       z     vdW  Elec       q    Type
REMARK                         _______ _______ _______ _____ _____    ______ ____
ROOT
ATOM      1  C   UNL     1      -3.660  -3.451  -4.617  0.00  0.00    +0.017 C 
ATOM      2  C   UNL     1      -2.699  -2.699  -3.659  0.00  0.00    +0.025 C 
ATOM      3  C   UNL     1      -1.452  -3.608  -3.633  0.00  0.00    +0.088 C 
ATOM      4  N   UNL     1      -1.888  -4.958  -4.032  0.00  0.00    -0.298 NA
ATOM      5  C   UNL     1      -3.346  -4.929  -4.278  0.00  0.00    +0.085 C 
ATOM      6  C   UNL     1      -1.161  -5.415  -5.224  0.00  0.00    +0.105 C 
ENDROOT
BRANCH   3   7
ATOM      7  C   UNL     1      -0.874  -3.645  -2.242  0.00  0.00    -0.012 A 
ATOM      8  C   UNL     1      -1.029  -2.567  -1.391  0.00  0.00    +0.115 A 
ATOM      9  N   UNL     1      -0.526  -2.592  -0.172  0.00  0.00    -0.263 NA
ATOM     10  C   UNL     1       0.140  -3.635   0.282  0.00  0.00    +0.111 A 
ATOM     11  C   UNL     1       0.335  -4.750  -0.512  0.00  0.00    +0.020 A 
ATOM     12  C   UNL     1      -0.184  -4.763  -1.797  0.00  0.00    +0.008 A 
ENDBRANCH   3   7
TORSDOF 1
ENDMDL
MODEL 7
REMARK VINA RESULT:    -2.883      1.502      2.637
REMARK INTER + INTRA:          -3.308
REMARK INTER:                  -3.052
REMARK INTRA:                  -0.256
REMARK UNBOUND:                -0.256
REMARK  Name = Nicotine.pdb
REMARK  2 active torsions:
REMARK  status: ('A' for Active; 'I' for Inactive)
REMARK    1  A    between atoms: C_3  and  C_6
REMARK    2  A    between atoms: N_4  and  C_12
REMARK                            x       y       z     vdW  Elec       q    Type
REMARK                         _______ _______ _______ _____ _____    ______ ____
ROOT
ATOM      1  C   UNL     1      -1.232  -3.440  -1.859  0.00  0.00    +0.017 C 
ATOM      2  C   UNL     1      -0.932  -3.178  -3.359  0.00  0.00    +0.025 C 
ATOM      3  C   UNL     1      -1.427  -4.470  -4.042  0.00  0.00    +0.088 C 
ATOM      4  N   UNL     1      -1.438  -5.530  -3.018  0.00  0.00    -0.298 NA
ATOM      5  C   UNL     1      -0.950  -4.959  -1.744  0.00  0.00    +0.085 C 
ATOM      6  C   UNL     1      -2.784  -6.097  -2.860  0.00  0.00    +0.105 C 
ENDROOT
BRANCH   3   7
ATOM      7  C   UNL     1      -0.493  -4.848  -5.163  0.00  0.00    -0.012 A 
ATOM      8  C   UNL     1      -0.885  -5.761  -6.122  0.00  0.00    +0.115 A 
ATOM      9  N   UNL     1      -0.074  -6.097  -7.106  0.00  0.00    -0.263 NA
ATOM     10  C   UNL     1       1.135  -5.581  -7.215  0.00  0.00    +0.111 A 
ATOM     11  C   UNL     1       1.596  -4.660  -6.292  0.00  0.00    +0.020 A 
ATOM     12  C   UNL     1       0.769  -4.279  -5.247  0.00  0.00    +0.008 A 
ENDBRANCH   3   7
TORSDOF 1
ENDMDL
MODEL 8
REMARK VINA RESULT:    -2.808      9.840     10.999
REMARK INTER + INTRA:          -3.228
REMARK INTER:                  -3.011
REMARK INTRA:                  -0.217
REMARK UNBOUND:                -0.256
REMARK  Name = Nicotine.pdb
REMARK  2 active torsions:
REMARK  status: ('A' for Active; 'I' for Inactive)
REMARK    1  A    between atoms: C_3  and  C_6
REMARK    2  A    between atoms: N_4  and  C_12
REMARK                            x       y       z     vdW  Elec       q    Type
REMARK                         _______ _______ _______ _____ _____    ______ ____
ROOT
ATOM      1  C   UNL     1       9.264  -1.148  -3.862  0.00  0.00    +0.017 C 
ATOM      2  C   UNL     1       7.898  -0.439  -3.666  0.00  0.00    +0.025 C 
ATOM      3  C   UNL     1       7.264  -0.512  -5.071  0.00  0.00    +0.088 C 
ATOM      4  N   UNL     1       8.363  -0.690  -6.037  0.00  0.00    -0.298 NA
ATOM      5  C   UNL     1       9.643  -0.706  -5.297  0.00  0.00    +0.085 C 
ATOM      6  C   UNL     1       8.187  -1.925  -6.813  0.00  0.00    +0.105 C 
ENDROOT
BRANCH   3   7
ATOM      7  C   UNL     1       6.523   0.767  -5.366  0.00  0.00    -0.012 A 
ATOM      8  C   UNL     1       6.573   1.328  -6.628  0.00  0.00    +0.115 A 
ATOM      9  N   UNL     1       5.927   2.447  -6.894  0.00  0.00    -0.263 NA
ATOM     10  C   UNL     1       5.215   3.071  -5.977  0.00  0.00    +0.111 A 
ATOM     11  C   UNL     1       5.118   2.569  -4.693  0.00  0.00    +0.020 A 
ATOM     12  C   UNL     1       5.779   1.392  -4.377  0.00  0.00    +0.008 A 
ENDBRANCH   3   7
TORSDOF 1
ENDMDL
MODEL 9
REMARK VINA RESULT:    -2.803      8.904     10.904
REMARK INTER + INTRA:          -3.222
REMARK INTER:                  -3.042
REMARK INTRA:                  -0.180
REMARK UNBOUND:                -0.256
REMARK  Name = Nicotine.pdb
REMARK  2 active torsions:
REMARK  status: ('A' for Active; 'I' for Inactive)
REMARK    1  A    between atoms: C_3  and  C_6
REMARK    2  A    between atoms: N_4  and  C_12
REMARK                            x       y       z     vdW  Elec       q    Type
REMARK                         _______ _______ _______ _____ _____    ______ ____
ROOT
ATOM      1  C   UNL     1       7.963   1.322  -6.839  0.00  0.00    +0.017 C 
ATOM      2  C   UNL     1       8.645   0.837  -5.532  0.00  0.00    +0.025 C 
ATOM      3  C   UNL     1       7.700  -0.281  -5.042  0.00  0.00    +0.088 C 
ATOM      4  N   UNL     1       6.381  -0.038  -5.655  0.00  0.00    -0.298 NA
ATOM      5  C   UNL     1       6.463   1.189  -6.477  0.00  0.00    +0.085 C 
ATOM      6  C   UNL     1       5.956  -1.187  -6.463  0.00  0.00    +0.105 C 
ENDROOT
BRANCH   3   7
ATOM      7  C   UNL     1       7.585  -0.233  -3.541  0.00  0.00    -0.012 A 
ATOM      8  C   UNL     1       6.582   0.502  -2.939  0.00  0.00    +0.115 A 
ATOM      9  N   UNL     1       6.475   0.549  -1.625  0.00  0.00    -0.263 NA
ATOM     10  C   UNL     1       7.312  -0.098  -0.838  0.00  0.00    +0.111 A 
ATOM     11  C   UNL     1       8.340  -0.855  -1.368  0.00  0.00    +0.020 A 
ATOM     12  C   UNL     1       8.481  -0.931  -2.745  0.00  0.00    +0.008 A 
ENDBRANCH   3   7
TORSDOF 1
ENDMDL
MODEL 10
REMARK VINA RESULT:    -2.688      2.950      5.699
REMARK INTER + INTRA:          -3.101
REMARK INTER:                  -2.886
REMARK INTRA:                  -0.215
REMARK UNBOUND:                -0.256
REMARK  Name = Nicotine.pdb
REMARK  2 active torsions:
REMARK  status: ('A' for Active; 'I' for Inactive)
REMARK    1  A    between atoms: C_3  and  C_6
REMARK    2  A    between atoms: N_4  and  C_12
REMARK                            x       y       z     vdW  Elec       q    Type
REMARK                         _______ _______ _______ _____ _____    ______ ____
ROOT
ATOM      1  C   UNL     1      -2.278  -4.111  -4.527  0.00  0.00    +0.017 C 
ATOM      2  C   UNL     1      -1.597  -3.419  -3.317  0.00  0.00    +0.025 C 
ATOM      3  C   UNL     1      -2.789  -3.063  -2.404  0.00  0.00    +0.088 C 
ATOM      4  N   UNL     1      -3.992  -3.018  -3.255  0.00  0.00    -0.298 NA
ATOM      5  C   UNL     1      -3.594  -3.303  -4.650  0.00  0.00    +0.085 C 
ATOM      6  C   UNL     1      -5.004  -3.975  -2.789  0.00  0.00    +0.105 C 
ENDROOT
BRANCH   3   7
ATOM      7  C   UNL     1      -2.561  -1.719  -1.764  0.00  0.00    -0.012 A 
ATOM      8  C   UNL     1      -1.651  -0.832  -2.306  0.00  0.00    +0.115 A 
ATOM      9  N   UNL     1      -1.445   0.347  -1.752  0.00  0.00    -0.263 NA
ATOM     10  C   UNL     1      -2.093   0.726  -0.668  0.00  0.00    +0.111 A 
ATOM     11  C   UNL     1      -3.019  -0.108  -0.069  0.00  0.00    +0.020 A 
ATOM     12  C   UNL     1      -3.266  -1.353  -0.627  0.00  0.00    +0.008 A 
ENDBRANCH   3   7
TORSDOF 1
ENDMDL
