MODEL 1
REMARK VINA RESULT:    -0.981      0.000      0.000
REMARK INTER + INTRA:          -1.254
REMARK INTER:                  -1.039
REMARK INTRA:                  -0.216
REMARK UNBOUND:                -0.216
REMARK  Name = Nicotine.pdb
REMARK  2 active torsions:
REMARK  status: ('A' for Active; 'I' for Inactive)
REMARK    1  A    between atoms: C_3  and  C_6
REMARK    2  A    between atoms: N_4  and  C_12
REMARK                            x       y       z     vdW  Elec       q    Type
REMARK                         _______ _______ _______ _____ _____    ______ ____
ROOT
ATOM      1  C   UNL     1       9.949  -5.330  -5.759  0.00  0.00    +0.017 C 
ATOM      2  C   UNL     1       9.274  -5.733  -4.421  0.00  0.00    +0.025 C 
ATOM      3  C   UNL     1       9.211  -4.398  -3.649  0.00  0.00    +0.088 C 
ATOM      4  N   UNL     1      10.241  -3.513  -4.221  0.00  0.00    -0.298 NA
ATOM      5  C   UNL     1      10.952  -4.246  -5.289  0.00  0.00    +0.085 C 
ATOM      6  C   UNL     1       9.645  -2.275  -4.739  0.00  0.00    +0.105 C 
ENDROOT
BRANCH   3   7
ATOM      7  C   UNL     1       9.491  -4.637  -2.188  0.00  0.00    -0.012 A 
ATOM      8  C   UNL     1      10.004  -3.624  -1.400  0.00  0.00    +0.115 A 
ATOM      9  N   UNL     1      10.253  -3.825  -0.120  0.00  0.00    -0.263 NA
ATOM     10  C   UNL     1      10.025  -4.989   0.456  0.00  0.00    +0.111 A 
ATOM     11  C   UNL     1       9.512  -6.048  -0.269  0.00  0.00    +0.020 A 
ATOM     12  C   UNL     1       9.233  -5.873  -1.616  0.00  0.00    +0.008 A 
ENDBRANCH   3   7
TORSDOF 1
ENDMDL
MODEL 2
REMARK VINA RESULT:    -0.895      1.442      4.608
REMARK INTER + INTRA:          -1.163
REMARK INTER:                  -0.933
REMARK INTRA:                  -0.230
REMARK UNBOUND:                -0.216
REMARK  Name = Nicotine.pdb
REMARK  2 active torsions:
REMARK  status: ('A' for Active; 'I' for Inactive)
REMARK    1  A    between atoms: C_3  and  C_6
REMARK    2  A    between atoms: N_4  and  C_12
REMARK                            x       y       z     vdW  Elec       q    Type
REMARK                         _______ _______ _______ _____ _____    ______ ____
ROOT
ATOM      1  C   UNL     1      10.133  -3.187  -0.004  0.00  0.00    +0.017 C 
ATOM      2  C   UNL     1      10.088  -2.930  -1.533  0.00  0.00    +0.025 C 
ATOM      3  C   UNL     1       9.056  -3.966  -2.029  0.00  0.00    +0.088 C 
ATOM      4  N   UNL     1       8.993  -5.037  -1.019  0.00  0.00    -0.298 NA
ATOM      5  C   UNL     1       9.954  -4.724   0.061  0.00  0.00    +0.085 C 
ATOM      6  C   UNL     1       7.632  -5.181  -0.487  0.00  0.00    +0.105 C 
ENDROOT
BRANCH   3   7
ATOM      7  C   UNL     1       9.495  -4.533  -3.354  0.00  0.00    -0.012 A 
ATOM      8  C   UNL     1       8.814  -5.594  -3.919  0.00  0.00    +0.115 A 
ATOM      9  N   UNL     1       9.192  -6.097  -5.079  0.00  0.00    -0.263 NA
ATOM     10  C   UNL     1      10.225  -5.613  -5.741  0.00  0.00    +0.111 A 
ATOM     11  C   UNL     1      10.954  -4.552  -5.237  0.00  0.00    +0.020 A 
ATOM     12  C   UNL     1      10.583  -3.994  -4.023  0.00  0.00    +0.008 A 
ENDBRANCH   3   7
TORSDOF 1
ENDMDL
MODEL 3
REMARK VINA RESULT:    -0.847      1.522      4.168
REMARK INTER + INTRA:          -1.112
REMARK INTER:                  -0.857
REMARK INTRA:                  -0.256
REMARK UNBOUND:                -0.216
REMARK  Name = Nicotine.pdb
REMARK  2 active torsions:
REMARK  status: ('A' for Active; 'I' for Inactive)
REMARK    1  A    between atoms: C_3  and  C_6
REMARK    2  A    between atoms: N_4  and  C_12
REMARK                            x       y       z     vdW  Elec       q    Type
REMARK                         _______ _______ _______ _____ _____    ______ ____
ROOT
ATOM      1  C   UNL     1       8.264  -3.979  -0.344  0.00  0.00    +0.017 C 
ATOM      2  C   UNL     1       9.105  -4.919  -1.247  0.00  0.00    +0.025 C 
ATOM      3  C   UNL     1       9.834  -3.936  -2.188  0.00  0.00    +0.088 C 
ATOM      4  N   UNL     1       9.053  -2.686  -2.204  0.00  0.00    -0.298 NA
ATOM      5  C   UNL     1       7.866  -2.861  -1.340  0.00  0.00    +0.085 C 
ATOM      6  C   UNL     1       9.867  -1.549  -1.756  0.00  0.00    +0.105 C 
ENDROOT
BRANCH   3   7
ATOM      7  C   UNL     1       9.908  -4.514  -3.577  0.00  0.00    -0.012 A 
ATOM      8  C   UNL     1      10.803  -4.007  -4.499  0.00  0.00    +0.115 A 
ATOM      9  N   UNL     1      10.874  -4.508  -5.717  0.00  0.00    -0.263 NA
ATOM     10  C   UNL     1      10.101  -5.503  -6.103  0.00  0.00    +0.111 A 
ATOM     11  C   UNL     1       9.181  -6.063  -5.236  0.00  0.00    +0.020 A 
ATOM     12  C   UNL     1       9.082  -5.566  -3.945  0.00  0.00    +0.008 A 
ENDBRANCH   3   7
TORSDOF 1
ENDMDL
MODEL 4
REMARK VINA RESULT:    -0.833      1.726      5.123
REMARK INTER + INTRA:          -1.097
REMARK INTER:                  -0.889
REMARK INTRA:                  -0.208
REMARK UNBOUND:                -0.216
REMARK  Name = Nicotine.pdb
REMARK  2 active torsions:
REMARK  status: ('A' for Active; 'I' for Inactive)
REMARK    1  A    between atoms: C_3  and  C_6
REMARK    2  A    between atoms: N_4  and  C_12
REMARK                            x       y       z     vdW  Elec       q    Type
REMARK                         _______ _______ _______ _____ _____    ______ ____
ROOT
ATOM      1  C   UNL     1       8.622  -2.917   2.005  0.00  0.00    +0.017 C 
ATOM      2  C   UNL     1       8.172  -3.286   0.567  0.00  0.00    +0.025 C 
ATOM      3  C   UNL     1       9.136  -4.429   0.185  0.00  0.00    +0.088 C 
ATOM      4  N   UNL     1      10.327  -4.302   1.043  0.00  0.00    -0.298 NA
ATOM      5  C   UNL     1      10.155  -3.121   1.917  0.00  0.00    +0.085 C 
ATOM      6  C   UNL     1      10.537  -5.519   1.838  0.00  0.00    +0.105 C 
ENDROOT
BRANCH   3   7
ATOM      7  C   UNL     1       9.531  -4.305  -1.264  0.00  0.00    -0.012 A 
ATOM      8  C   UNL     1       9.167  -5.279  -2.174  0.00  0.00    +0.115 A 
ATOM      9  N   UNL     1       9.508  -5.178  -3.444  0.00  0.00    -0.263 NA
ATOM     10  C   UNL     1      10.204  -4.153  -3.894  0.00  0.00    +0.111 A 
ATOM     11  C   UNL     1      10.603  -3.139  -3.043  0.00  0.00    +0.020 A 
ATOM     12  C   UNL     1      10.258  -3.209  -1.703  0.00  0.00    +0.008 A 
ENDBRANCH   3   7
TORSDOF 1
ENDMDL
MODEL 5
REMARK VINA RESULT:    -0.789      1.946      4.758
REMARK INTER + INTRA:          -1.051
REMARK INTER:                  -0.795
REMARK INTRA:                  -0.256
REMARK UNBOUND:                -0.216
REMARK  Name = Nicotine.pdb
REMARK  2 active torsions:
REMARK  status: ('A' for Active; 'I' for Inactive)
REMARK    1  A    between atoms: C_3  and  C_6
REMARK    2  A    between atoms: N_4  and  C_12
REMARK                            x       y       z     vdW  Elec       q    Type
REMARK                         _______ _______ _______ _____ _____    ______ ____
ROOT
ATOM      1  C   UNL     1       8.980  -3.295   2.072  0.00  0.00    +0.017 C 
ATOM      2  C   UNL     1       9.860  -4.003   1.009  0.00  0.00    +0.025 C 
ATOM      3  C   UNL     1      10.166  -2.873   0.003  0.00  0.00    +0.088 C 
ATOM      4  N   UNL     1       9.116  -1.851   0.162  0.00  0.00    -0.298 NA
ATOM      5  C   UNL     1       8.166  -2.308   1.198  0.00  0.00    +0.085 C 
ATOM      6  C   UNL     1       9.697  -0.549   0.517  0.00  0.00    +0.105 C 
ENDROOT
BRANCH   3   7
ATOM      7  C   UNL     1      10.144  -3.418  -1.402  0.00  0.00    -0.012 A 
ATOM      8  C   UNL     1      10.888  -2.813  -2.398  0.00  0.00    +0.115 A 
ATOM      9  N   UNL     1      10.875  -3.283  -3.630  0.00  0.00    -0.263 NA
ATOM     10  C   UNL     1      10.159  -4.340  -3.961  0.00  0.00    +0.111 A 
ATOM     11  C   UNL     1       9.391  -4.997  -3.018  0.00  0.00    +0.020 A 
ATOM     12  C   UNL     1       9.383  -4.535  -1.711  0.00  0.00    +0.008 A 
ENDBRANCH   3   7
TORSDOF 1
ENDMDL
MODEL 6
REMARK VINA RESULT:    -0.771      1.482      4.393
REMARK INTER + INTRA:          -1.032
REMARK INTER:                  -0.808
REMARK INTRA:                  -0.224
REMARK UNBOUND:                -0.216
REMARK  Name = Nicotine.pdb
REMARK  2 active torsions:
REMARK  status: ('A' for Active; 'I' for Inactive)
REMARK    1  A    between atoms: C_3  and  C_6
REMARK    2  A    between atoms: N_4  and  C_12
REMARK                            x       y       z     vdW  Elec       q    Type
REMARK                         _______ _______ _______ _____ _____    ______ ____
ROOT
ATOM      1  C   UNL     1       6.608  -5.390  -0.630  0.00  0.00    +0.017 C 
ATOM      2  C   UNL     1       7.157  -5.942  -1.972  0.00  0.00    +0.025 C 
ATOM      3  C   UNL     1       8.682  -5.755  -1.826  0.00  0.00    +0.088 C 
ATOM      4  N   UNL     1       8.899  -4.704  -0.816  0.00  0.00    -0.298 NA
ATOM      5  C   UNL     1       7.582  -4.218  -0.351  0.00  0.00    +0.085 C 
ATOM      6  C   UNL     1       9.700  -5.209   0.307  0.00  0.00    +0.105 C 
ENDROOT
BRANCH   3   7
ATOM      7  C   UNL     1       9.275  -5.330  -3.145  0.00  0.00    -0.012 A 
ATOM      8  C   UNL     1      10.026  -4.173  -3.233  0.00  0.00    +0.115 A 
ATOM      9  N   UNL     1      10.548  -3.794  -4.383  0.00  0.00    -0.263 NA
ATOM     10  C   UNL     1      10.378  -4.495  -5.486  0.00  0.00    +0.111 A 
ATOM     11  C   UNL     1       9.640  -5.664  -5.475  0.00  0.00    +0.020 A 
ATOM     12  C   UNL     1       9.080  -6.097  -4.283  0.00  0.00    +0.008 A 
ENDBRANCH   3   7
TORSDOF 1
ENDMDL
MODEL 7
REMARK VINA RESULT:    -0.745      2.107      5.242
REMARK INTER + INTRA:          -1.004
REMARK INTER:                  -0.789
REMARK INTRA:                  -0.215
REMARK UNBOUND:                -0.216
REMARK  Name = Nicotine.pdb
REMARK  2 active torsions:
REMARK  status: ('A' for Active; 'I' for Inactive)
REMARK    1  A    between atoms: C_3  and  C_6
REMARK    2  A    between atoms: N_4  and  C_12
REMARK                            x       y       z     vdW  Elec       q    Type
REMARK                         _______ _______ _______ _____ _____    ______ ____
ROOT
ATOM      1  C   UNL     1      10.043  -3.907   3.152  0.00  0.00    +0.017 C 
ATOM      2  C   UNL     1      10.642  -4.497   1.849  0.00  0.00    +0.025 C 
ATOM      3  C   UNL     1      10.239  -3.459   0.780  0.00  0.00    +0.088 C 
ATOM      4  N   UNL     1       9.077  -2.720   1.305  0.00  0.00    -0.298 NA
ATOM      5  C   UNL     1       8.730  -3.270   2.633  0.00  0.00    +0.085 C 
ATOM      6  C   UNL     1       9.360  -1.282   1.388  0.00  0.00    +0.105 C 
ENDROOT
BRANCH   3   7
ATOM      7  C   UNL     1       9.868  -4.159  -0.501  0.00  0.00    -0.012 A 
ATOM      8  C   UNL     1       9.448  -5.476  -0.481  0.00  0.00    +0.115 A 
ATOM      9  N   UNL     1       9.121  -6.097  -1.598  0.00  0.00    -0.263 NA
ATOM     10  C   UNL     1       9.179  -5.494  -2.769  0.00  0.00    +0.111 A 
ATOM     11  C   UNL     1       9.589  -4.177  -2.867  0.00  0.00    +0.020 A 
ATOM     12  C   UNL     1       9.936  -3.490  -1.714  0.00  0.00    +0.008 A 
ENDBRANCH   3   7
TORSDOF 1
ENDMDL
MODEL 8
REMARK VINA RESULT:    -0.739      2.367      4.932
REMARK INTER + INTRA:          -0.998
REMARK INTER:                  -0.743
REMARK INTRA:                  -0.255
REMARK UNBOUND:                -0.216
REMARK  Name = Nicotine.pdb
REMARK  2 active torsions:
REMARK  status: ('A' for Active; 'I' for Inactive)
REMARK    1  A    between atoms: C_3  and  C_6
REMARK    2  A    between atoms: N_4  and  C_12
REMARK                            x       y       z     vdW  Elec       q    Type
REMARK                         _______ _______ _______ _____ _____    ______ ____
ROOT
ATOM      1  C   UNL     1       9.431  -0.033  -2.941  0.00  0.00    +0.017 C 
ATOM      2  C   UNL     1       8.966  -1.076  -3.991  0.00  0.00    +0.025 C 
ATOM      3  C   UNL     1       9.638  -2.379  -3.507  0.00  0.00    +0.088 C 
ATOM      4  N   UNL     1      10.788  -1.992  -2.670  0.00  0.00    -0.298 NA
ATOM      5  C   UNL     1      10.871  -0.517  -2.636  0.00  0.00    +0.085 C 
ATOM      6  C   UNL     1      10.663  -2.545  -1.315  0.00  0.00    +0.105 C 
ENDROOT
BRANCH   3   7
ATOM      7  C   UNL     1      10.110  -3.182  -4.691  0.00  0.00    -0.012 A 
ATOM      8  C   UNL     1      10.175  -4.560  -4.620  0.00  0.00    +0.115 A 
ATOM      9  N   UNL     1      10.587  -5.271  -5.652  0.00  0.00    -0.263 NA
ATOM     10  C   UNL     1      10.952  -4.701  -6.784  0.00  0.00    +0.111 A 
ATOM     11  C   UNL     1      10.914  -3.327  -6.929  0.00  0.00    +0.020 A 
ATOM     12  C   UNL     1      10.481  -2.548  -5.868  0.00  0.00    +0.008 A 
ENDBRANCH   3   7
TORSDOF 1
ENDMDL
MODEL 9
REMARK VINA RESULT:    -0.674      2.002      4.563
REMARK INTER + INTRA:          -0.929
REMARK INTER:                  -0.702
REMARK INTRA:                  -0.227
REMARK UNBOUND:                -0.216
REMARK  Name = Nicotine.pdb
REMARK  2 active torsions:
REMARK  status: ('A' for Active; 'I' for Inactive)
REMARK    1  A    between atoms: C_3  and  C_6
REMARK    2  A    between atoms: N_4  and  C_12
REMARK                            x       y       z     vdW  Elec       q    Type
REMARK                         _______ _______ _______ _____ _____    ______ ____
ROOT
ATOM      1  C   UNL     1       9.407  -5.414  -4.130  0.00  0.00    +0.017 C 
ATOM      2  C   UNL     1      10.426  -4.377  -4.671  0.00  0.00    +0.025 C 
ATOM      3  C   UNL     1      10.545  -3.369  -3.508  0.00  0.00    +0.088 C 
ATOM      4  N   UNL     1       9.323  -3.495  -2.694  0.00  0.00    -0.298 NA
ATOM      5  C   UNL     1       8.447  -4.514  -3.312  0.00  0.00    +0.085 C 
ATOM      6  C   UNL     1       9.648  -3.852  -1.307  0.00  0.00    +0.105 C 
ENDROOT
BRANCH   3   7
ATOM      7  C   UNL     1      10.656  -1.969  -4.054  0.00  0.00    -0.012 A 
ATOM      8  C   UNL     1      10.560  -0.880  -3.208  0.00  0.00    +0.115 A 
ATOM      9  N   UNL     1      10.657   0.349  -3.678  0.00  0.00    -0.263 NA
ATOM     10  C   UNL     1      10.847   0.588  -4.960  0.00  0.00    +0.111 A 
ATOM     11  C   UNL     1      10.954  -0.451  -5.866  0.00  0.00    +0.020 A 
ATOM     12  C   UNL     1      10.862  -1.757  -5.408  0.00  0.00    +0.008 A 
ENDBRANCH   3   7
TORSDOF 1
ENDMDL
