MODEL 1
REMARK VINA RESULT:    -3.551      0.000      0.000
REMARK INTER + INTRA:          -3.982
REMARK INTER:                  -3.759
REMARK INTRA:                  -0.223
REMARK UNBOUND:                -0.223
REMARK  Name = Nicotine.pdb
REMARK  2 active torsions:
REMARK  status: ('A' for Active; 'I' for Inactive)
REMARK    1  A    between atoms: C_3  and  C_6
REMARK    2  A    between atoms: N_4  and  C_12
REMARK                            x       y       z     vdW  Elec       q    Type
REMARK                         _______ _______ _______ _____ _____    ______ ____
ROOT
ATOM      1  C   UNL     1       8.309   1.078  -4.743  0.00  0.00    +0.017 C 
ATOM      2  C   UNL     1       8.386   2.472  -4.067  0.00  0.00    +0.025 C 
ATOM      3  C   UNL     1       7.860   3.420  -5.166  0.00  0.00    +0.088 C 
ATOM      4  N   UNL     1       8.040   2.734  -6.458  0.00  0.00    -0.298 NA
ATOM      5  C   UNL     1       8.673   1.421  -6.209  0.00  0.00    +0.085 C 
ATOM      6  C   UNL     1       6.756   2.576  -7.154  0.00  0.00    +0.105 C 
ENDROOT
BRANCH   3   7
ATOM      7  C   UNL     1       8.646   4.705  -5.153  0.00  0.00    -0.012 A 
ATOM      8  C   UNL     1       9.330   5.118  -6.281  0.00  0.00    +0.115 A 
ATOM      9  N   UNL     1      10.020   6.242  -6.278  0.00  0.00    -0.263 NA
ATOM     10  C   UNL     1      10.087   7.011  -5.209  0.00  0.00    +0.111 A 
ATOM     11  C   UNL     1       9.429   6.664  -4.045  0.00  0.00    +0.020 A 
ATOM     12  C   UNL     1       8.688   5.492  -4.012  0.00  0.00    +0.008 A 
ENDBRANCH   3   7
TORSDOF 1
ENDMDL
MODEL 2
REMARK VINA RESULT:    -3.500      1.353      4.341
REMARK INTER + INTRA:          -3.928
REMARK INTER:                  -3.723
REMARK INTRA:                  -0.205
REMARK UNBOUND:                -0.223
REMARK  Name = Nicotine.pdb
REMARK  2 active torsions:
REMARK  status: ('A' for Active; 'I' for Inactive)
REMARK    1  A    between atoms: C_3  and  C_6
REMARK    2  A    between atoms: N_4  and  C_12
REMARK                            x       y       z     vdW  Elec       q    Type
REMARK                         _______ _______ _______ _____ _____    ______ ____
ROOT
ATOM      1  C   UNL     1       9.854   7.028  -5.268  0.00  0.00    +0.017 C 
ATOM      2  C   UNL     1       9.882   5.705  -6.077  0.00  0.00    +0.025 C 
ATOM      3  C   UNL     1       8.453   5.153  -5.890  0.00  0.00    +0.088 C 
ATOM      4  N   UNL     1       7.904   5.767  -4.667  0.00  0.00    -0.298 NA
ATOM      5  C   UNL     1       8.935   6.649  -4.080  0.00  0.00    +0.085 C 
ATOM      6  C   UNL     1       6.675   6.515  -4.959  0.00  0.00    +0.105 C 
ENDROOT
BRANCH   3   7
ATOM      7  C   UNL     1       8.497   3.655  -5.737  0.00  0.00    -0.012 A 
ATOM      8  C   UNL     1       8.683   2.845  -6.842  0.00  0.00    +0.115 A 
ATOM      9  N   UNL     1       8.723   1.533  -6.717  0.00  0.00    -0.263 NA
ATOM     10  C   UNL     1       8.589   0.943  -5.545  0.00  0.00    +0.111 A 
ATOM     11  C   UNL     1       8.401   1.688  -4.396  0.00  0.00    +0.020 A 
ATOM     12  C   UNL     1       8.358   3.071  -4.487  0.00  0.00    +0.008 A 
ENDBRANCH   3   7
TORSDOF 1
ENDMDL
MODEL 3
REMARK VINA RESULT:    -3.351      2.798      4.022
REMARK INTER + INTRA:          -3.771
REMARK INTER:                  -3.553
REMARK INTRA:                  -0.217
REMARK UNBOUND:                -0.223
REMARK  Name = Nicotine.pdb
REMARK  2 active torsions:
REMARK  status: ('A' for Active; 'I' for Inactive)
REMARK    1  A    between atoms: C_3  and  C_6
REMARK    2  A    between atoms: N_4  and  C_12
REMARK                            x       y       z     vdW  Elec       q    Type
REMARK                         _______ _______ _______ _____ _____    ______ ____
ROOT
ATOM      1  C   UNL     1       9.897   4.309   0.053  0.00  0.00    +0.017 C 
ATOM      2  C   UNL     1      10.154   5.414  -1.005  0.00  0.00    +0.025 C 
ATOM      3  C   UNL     1       8.820   5.470  -1.780  0.00  0.00    +0.088 C 
ATOM      4  N   UNL     1       8.143   4.176  -1.579  0.00  0.00    -0.298 NA
ATOM      5  C   UNL     1       9.007   3.318  -0.739  0.00  0.00    +0.085 C 
ATOM      6  C   UNL     1       6.824   4.362  -0.960  0.00  0.00    +0.105 C 
ENDROOT
BRANCH   3   7
ATOM      7  C   UNL     1       9.088   5.687  -3.247  0.00  0.00    -0.012 A 
ATOM      8  C   UNL     1       8.768   4.708  -4.168  0.00  0.00    +0.115 A 
ATOM      9  N   UNL     1       9.000   4.890  -5.454  0.00  0.00    -0.263 NA
ATOM     10  C   UNL     1       9.541   6.002  -5.910  0.00  0.00    +0.111 A 
ATOM     11  C   UNL     1       9.886   7.026  -5.048  0.00  0.00    +0.020 A 
ATOM     12  C   UNL     1       9.653   6.873  -3.690  0.00  0.00    +0.008 A 
ENDBRANCH   3   7
TORSDOF 1
ENDMDL
MODEL 4
REMARK VINA RESULT:    -3.284      1.016      1.692
REMARK INTER + INTRA:          -3.699
REMARK INTER:                  -3.490
REMARK INTRA:                  -0.210
REMARK UNBOUND:                -0.223
REMARK  Name = Nicotine.pdb
REMARK  2 active torsions:
REMARK  status: ('A' for Active; 'I' for Inactive)
REMARK    1  A    between atoms: C_3  and  C_6
REMARK    2  A    between atoms: N_4  and  C_12
REMARK                            x       y       z     vdW  Elec       q    Type
REMARK                         _______ _______ _______ _____ _____    ______ ____
ROOT
ATOM      1  C   UNL     1       7.428   1.742  -7.172  0.00  0.00    +0.017 C 
ATOM      2  C   UNL     1       8.689   2.537  -6.740  0.00  0.00    +0.025 C 
ATOM      3  C   UNL     1       8.283   3.111  -5.366  0.00  0.00    +0.088 C 
ATOM      4  N   UNL     1       6.810   3.136  -5.321  0.00  0.00    -0.298 NA
ATOM      5  C   UNL     1       6.291   2.629  -6.609  0.00  0.00    +0.085 C 
ATOM      6  C   UNL     1       6.304   2.338  -4.197  0.00  0.00    +0.105 C 
ENDROOT
BRANCH   3   7
ATOM      7  C   UNL     1       8.826   4.508  -5.214  0.00  0.00    -0.012 A 
ATOM      8  C   UNL     1       9.442   5.139  -6.279  0.00  0.00    +0.115 A 
ATOM      9  N   UNL     1       9.920   6.362  -6.154  0.00  0.00    -0.263 NA
ATOM     10  C   UNL     1       9.832   7.028  -5.020  0.00  0.00    +0.111 A 
ATOM     11  C   UNL     1       9.228   6.463  -3.912  0.00  0.00    +0.020 A 
ATOM     12  C   UNL     1       8.709   5.180  -4.007  0.00  0.00    +0.008 A 
ENDBRANCH   3   7
TORSDOF 1
ENDMDL
MODEL 5
REMARK VINA RESULT:    -3.232      2.564      3.864
REMARK INTER + INTRA:          -3.644
REMARK INTER:                  -3.444
REMARK INTRA:                  -0.201
REMARK UNBOUND:                -0.223
REMARK  Name = Nicotine.pdb
REMARK  2 active torsions:
REMARK  status: ('A' for Active; 'I' for Inactive)
REMARK    1  A    between atoms: C_3  and  C_6
REMARK    2  A    between atoms: N_4  and  C_12
REMARK                            x       y       z     vdW  Elec       q    Type
REMARK                         _______ _______ _______ _____ _____    ______ ____
ROOT
ATOM      1  C   UNL     1       8.714   4.114  -6.482  0.00  0.00    +0.017 C 
ATOM      2  C   UNL     1       8.410   3.587  -5.055  0.00  0.00    +0.025 C 
ATOM      3  C   UNL     1       8.176   4.882  -4.249  0.00  0.00    +0.088 C 
ATOM      4  N   UNL     1       8.846   5.976  -4.976  0.00  0.00    -0.298 NA
ATOM      5  C   UNL     1       9.501   5.412  -6.175  0.00  0.00    +0.085 C 
ATOM      6  C   UNL     1       7.890   7.028  -5.343  0.00  0.00    +0.105 C 
ENDROOT
BRANCH   3   7
ATOM      7  C   UNL     1       8.769   4.742  -2.871  0.00  0.00    -0.012 A 
ATOM      8  C   UNL     1       8.538   3.603  -2.123  0.00  0.00    +0.115 A 
ATOM      9  N   UNL     1       9.053   3.472  -0.916  0.00  0.00    -0.263 NA
ATOM     10  C   UNL     1       9.802   4.413  -0.376  0.00  0.00    +0.111 A 
ATOM     11  C   UNL     1      10.076   5.581  -1.065  0.00  0.00    +0.020 A 
ATOM     12  C   UNL     1       9.557   5.751  -2.338  0.00  0.00    +0.008 A 
ENDBRANCH   3   7
TORSDOF 1
ENDMDL
MODEL 6
REMARK VINA RESULT:    -3.057      2.177      4.113
REMARK INTER + INTRA:          -3.459
REMARK INTER:                  -3.238
REMARK INTRA:                  -0.221
REMARK UNBOUND:                -0.223
REMARK  Name = Nicotine.pdb
REMARK  2 active torsions:
REMARK  status: ('A' for Active; 'I' for Inactive)
REMARK    1  A    between atoms: C_3  and  C_6
REMARK    2  A    between atoms: N_4  and  C_12
REMARK                            x       y       z     vdW  Elec       q    Type
REMARK                         _______ _______ _______ _____ _____    ______ ____
ROOT
ATOM      1  C   UNL     1       7.528   7.028  -5.480  0.00  0.00    +0.017 C 
ATOM      2  C   UNL     1       8.209   6.564  -4.165  0.00  0.00    +0.025 C 
ATOM      3  C   UNL     1       8.823   5.202  -4.555  0.00  0.00    +0.088 C 
ATOM      4  N   UNL     1       8.079   4.707  -5.726  0.00  0.00    -0.298 NA
ATOM      5  C   UNL     1       7.021   5.684  -6.061  0.00  0.00    +0.085 C 
ATOM      6  C   UNL     1       8.977   4.490  -6.868  0.00  0.00    +0.105 C 
ENDROOT
BRANCH   3   7
ATOM      7  C   UNL     1       8.686   4.232  -3.410  0.00  0.00    -0.012 A 
ATOM      8  C   UNL     1       8.197   2.958  -3.628  0.00  0.00    +0.115 A 
ATOM      9  N   UNL     1       8.073   2.103  -2.632  0.00  0.00    -0.263 NA
ATOM     10  C   UNL     1       8.408   2.424  -1.398  0.00  0.00    +0.111 A 
ATOM     11  C   UNL     1       8.906   3.679  -1.103  0.00  0.00    +0.020 A 
ATOM     12  C   UNL     1       9.054   4.604  -2.126  0.00  0.00    +0.008 A 
ENDBRANCH   3   7
TORSDOF 1
ENDMDL
MODEL 7
REMARK VINA RESULT:    -2.910      2.291      3.262
REMARK INTER + INTRA:          -3.304
REMARK INTER:                  -3.095
REMARK INTRA:                  -0.208
REMARK UNBOUND:                -0.223
REMARK  Name = Nicotine.pdb
REMARK  2 active torsions:
REMARK  status: ('A' for Active; 'I' for Inactive)
REMARK    1  A    between atoms: C_3  and  C_6
REMARK    2  A    between atoms: N_4  and  C_12
REMARK                            x       y       z     vdW  Elec       q    Type
REMARK                         _______ _______ _______ _____ _____    ______ ____
ROOT
ATOM      1  C   UNL     1       6.161   2.662  -2.387  0.00  0.00    +0.017 C 
ATOM      2  C   UNL     1       6.956   3.051  -3.662  0.00  0.00    +0.025 C 
ATOM      3  C   UNL     1       8.304   3.541  -3.093  0.00  0.00    +0.088 C 
ATOM      4  N   UNL     1       8.070   3.937  -1.693  0.00  0.00    -0.298 NA
ATOM      5  C   UNL     1       6.639   3.737  -1.380  0.00  0.00    +0.085 C 
ATOM      6  C   UNL     1       8.922   3.166  -0.778  0.00  0.00    +0.105 C 
ENDROOT
BRANCH   3   7
ATOM      7  C   UNL     1       8.795   4.725  -3.886  0.00  0.00    -0.012 A 
ATOM      8  C   UNL     1       8.905   4.647  -5.262  0.00  0.00    +0.115 A 
ATOM      9  N   UNL     1       9.334   5.679  -5.963  0.00  0.00    -0.263 NA
ATOM     10  C   UNL     1       9.672   6.816  -5.388  0.00  0.00    +0.111 A 
ATOM     11  C   UNL     1       9.587   6.968  -4.017  0.00  0.00    +0.020 A 
ATOM     12  C   UNL     1       9.135   5.907  -3.247  0.00  0.00    +0.008 A 
ENDBRANCH   3   7
TORSDOF 1
ENDMDL
MODEL 8
REMARK VINA RESULT:    -2.800      1.670      2.674
REMARK INTER + INTRA:          -3.187
REMARK INTER:                  -2.951
REMARK INTRA:                  -0.235
REMARK UNBOUND:                -0.223
REMARK  Name = Nicotine.pdb
REMARK  2 active torsions:
REMARK  status: ('A' for Active; 'I' for Inactive)
REMARK    1  A    between atoms: C_3  and  C_6
REMARK    2  A    between atoms: N_4  and  C_12
REMARK                            x       y       z     vdW  Elec       q    Type
REMARK                         _______ _______ _______ _____ _____    ______ ____
ROOT
ATOM      1  C   UNL     1       7.692  -0.518  -4.649  0.00  0.00    +0.017 C 
ATOM      2  C   UNL     1       8.758   0.609  -4.647  0.00  0.00    +0.025 C 
ATOM      3  C   UNL     1       7.966   1.835  -4.143  0.00  0.00    +0.088 C 
ATOM      4  N   UNL     1       6.540   1.572  -4.407  0.00  0.00    -0.298 NA
ATOM      5  C   UNL     1       6.419   0.256  -5.071  0.00  0.00    +0.085 C 
ATOM      6  C   UNL     1       5.758   1.609  -3.164  0.00  0.00    +0.105 C 
ENDROOT
BRANCH   3   7
ATOM      7  C   UNL     1       8.407   3.070  -4.884  0.00  0.00    -0.012 A 
ATOM      8  C   UNL     1       8.725   4.224  -4.193  0.00  0.00    +0.115 A 
ATOM      9  N   UNL     1       9.111   5.310  -4.834  0.00  0.00    -0.263 NA
ATOM     10  C   UNL     1       9.210   5.340  -6.148  0.00  0.00    +0.111 A 
ATOM     11  C   UNL     1       8.909   4.224  -6.907  0.00  0.00    +0.020 A 
ATOM     12  C   UNL     1       8.504   3.063  -6.267  0.00  0.00    +0.008 A 
ENDBRANCH   3   7
TORSDOF 1
ENDMDL
MODEL 9
REMARK VINA RESULT:    -2.753      3.526      4.877
REMARK INTER + INTRA:          -3.138
REMARK INTER:                  -2.950
REMARK INTRA:                  -0.188
REMARK UNBOUND:                -0.223
REMARK  Name = Nicotine.pdb
REMARK  2 active torsions:
REMARK  status: ('A' for Active; 'I' for Inactive)
REMARK    1  A    between atoms: C_3  and  C_6
REMARK    2  A    between atoms: N_4  and  C_12
REMARK                            x       y       z     vdW  Elec       q    Type
REMARK                         _______ _______ _______ _____ _____    ______ ____
ROOT
ATOM      1  C   UNL     1       7.884   6.665  -4.350  0.00  0.00    +0.017 C 
ATOM      2  C   UNL     1       9.142   6.367  -3.492  0.00  0.00    +0.025 C 
ATOM      3  C   UNL     1       8.900   4.920  -3.013  0.00  0.00    +0.088 C 
ATOM      4  N   UNL     1       7.450   4.670  -3.091  0.00  0.00    -0.298 NA
ATOM      5  C   UNL     1       6.785   5.901  -3.570  0.00  0.00    +0.085 C 
ATOM      6  C   UNL     1       7.157   3.535  -3.975  0.00  0.00    +0.105 C 
ENDROOT
BRANCH   3   7
ATOM      7  C   UNL     1       9.373   4.765  -1.591  0.00  0.00    -0.012 A 
ATOM      8  C   UNL     1      10.205   5.711  -1.024  0.00  0.00    +0.115 A 
ATOM      9  N   UNL     1      10.624   5.584   0.220  0.00  0.00    -0.263 NA
ATOM     10  C   UNL     1      10.269   4.558   0.969  0.00  0.00    +0.111 A 
ATOM     11  C   UNL     1       9.438   3.572   0.470  0.00  0.00    +0.020 A 
ATOM     12  C   UNL     1       8.974   3.675  -0.832  0.00  0.00    +0.008 A 
ENDBRANCH   3   7
TORSDOF 1
ENDMDL
MODEL 10
REMARK VINA RESULT:    -2.591      2.631      2.881
REMARK INTER + INTRA:          -2.966
REMARK INTER:                  -2.750
REMARK INTRA:                  -0.216
REMARK UNBOUND:                -0.223
REMARK  Name = Nicotine.pdb
REMARK  2 active torsions:
REMARK  status: ('A' for Active; 'I' for Inactive)
REMARK    1  A    between atoms: C_3  and  C_6
REMARK    2  A    between atoms: N_4  and  C_12
REMARK                            x       y       z     vdW  Elec       q    Type
REMARK                         _______ _______ _______ _____ _____    ______ ____
ROOT
ATOM      1  C   UNL     1       4.659   4.080  -3.750  0.00  0.00    +0.017 C 
ATOM      2  C   UNL     1       5.692   5.188  -3.418  0.00  0.00    +0.025 C 
ATOM      3  C   UNL     1       5.947   5.848  -4.790  0.00  0.00    +0.088 C 
ATOM      4  N   UNL     1       5.576   4.865  -5.823  0.00  0.00    -0.298 NA
ATOM      5  C   UNL     1       5.129   3.624  -5.154  0.00  0.00    +0.085 C 
ATOM      6  C   UNL     1       4.527   5.395  -6.704  0.00  0.00    +0.105 C 
ENDROOT
BRANCH   3   7
ATOM      7  C   UNL     1       7.404   6.208  -4.923  0.00  0.00    -0.012 A 
ATOM      8  C   UNL     1       8.034   6.130  -6.151  0.00  0.00    +0.115 A 
ATOM      9  N   UNL     1       9.309   6.444  -6.276  0.00  0.00    -0.263 NA
ATOM     10  C   UNL     1      10.029   6.841  -5.245  0.00  0.00    +0.111 A 
ATOM     11  C   UNL     1       9.467   6.944  -3.986  0.00  0.00    +0.020 A 
ATOM     12  C   UNL     1       8.128   6.627  -3.817  0.00  0.00    +0.008 A 
ENDBRANCH   3   7
TORSDOF 1
ENDMDL
