MODEL 1
REMARK VINA RESULT:    -4.802      0.000      0.000
REMARK INTER + INTRA:          -5.276
REMARK INTER:                  -5.083
REMARK INTRA:                  -0.193
REMARK UNBOUND:                -0.193
REMARK  Name = Nicotine.pdb
REMARK  2 active torsions:
REMARK  status: ('A' for Active; 'I' for Inactive)
REMARK    1  A    between atoms: C_3  and  C_6
REMARK    2  A    between atoms: N_4  and  C_12
REMARK                            x       y       z     vdW  Elec       q    Type
REMARK                         _______ _______ _______ _____ _____    ______ ____
ROOT
ATOM      1  C   UNL     1       8.357  -5.512   2.839  0.00  0.00    +0.017 C 
ATOM      2  C   UNL     1       8.732  -4.036   3.132  0.00  0.00    +0.025 C 
ATOM      3  C   UNL     1       7.918  -3.717   4.404  0.00  0.00    +0.088 C 
ATOM      4  N   UNL     1       6.798  -4.673   4.457  0.00  0.00    -0.298 NA
ATOM      5  C   UNL     1       6.869  -5.548   3.268  0.00  0.00    +0.085 C 
ATOM      6  C   UNL     1       6.838  -5.462   5.695  0.00  0.00    +0.105 C 
ENDROOT
BRANCH   3   7
ATOM      7  C   UNL     1       7.388  -2.308   4.333  0.00  0.00    -0.012 A 
ATOM      8  C   UNL     1       8.016  -1.290   5.026  0.00  0.00    +0.115 A 
ATOM      9  N   UNL     1       7.558  -0.054   4.969  0.00  0.00    -0.263 NA
ATOM     10  C   UNL     1       6.494   0.259   4.258  0.00  0.00    +0.111 A 
ATOM     11  C   UNL     1       5.814  -0.706   3.538  0.00  0.00    +0.020 A 
ATOM     12  C   UNL     1       6.269  -2.015   3.569  0.00  0.00    +0.008 A 
ENDBRANCH   3   7
TORSDOF 1
ENDMDL
MODEL 2
REMARK VINA RESULT:    -4.631      1.497      4.379
REMARK INTER + INTRA:          -5.095
REMARK INTER:                  -4.914
REMARK INTRA:                  -0.181
REMARK UNBOUND:                -0.193
REMARK  Name = Nicotine.pdb
REMARK  2 active torsions:
REMARK  status: ('A' for Active; 'I' for Inactive)
REMARK    1  A    between atoms: C_3  and  C_6
REMARK    2  A    between atoms: N_4  and  C_12
REMARK                            x       y       z     vdW  Elec       q    Type
REMARK                         _______ _______ _______ _____ _____    ______ ____
ROOT
ATOM      1  C   UNL     1       6.867  -0.330   5.456  0.00  0.00    +0.017 C 
ATOM      2  C   UNL     1       7.986  -1.201   4.827  0.00  0.00    +0.025 C 
ATOM      3  C   UNL     1       7.195  -2.252   4.019  0.00  0.00    +0.088 C 
ATOM      4  N   UNL     1       5.843  -2.324   4.602  0.00  0.00    -0.298 NA
ATOM      5  C   UNL     1       5.772  -1.388   5.743  0.00  0.00    +0.085 C 
ATOM      6  C   UNL     1       4.819  -2.009   3.597  0.00  0.00    +0.105 C 
ENDROOT
BRANCH   3   7
ATOM      7  C   UNL     1       7.872  -3.594   4.123  0.00  0.00    -0.012 A 
ATOM      8  C   UNL     1       8.057  -4.190   5.357  0.00  0.00    +0.115 A 
ATOM      9  N   UNL     1       8.649  -5.364   5.457  0.00  0.00    -0.263 NA
ATOM     10  C   UNL     1       9.084  -6.014   4.395  0.00  0.00    +0.111 A 
ATOM     11  C   UNL     1       8.933  -5.481   3.128  0.00  0.00    +0.020 A 
ATOM     12  C   UNL     1       8.311  -4.250   2.984  0.00  0.00    +0.008 A 
ENDBRANCH   3   7
TORSDOF 1
ENDMDL
MODEL 3
REMARK VINA RESULT:    -4.498      1.947      2.907
REMARK INTER + INTRA:          -4.954
REMARK INTER:                  -4.701
REMARK INTRA:                  -0.253
REMARK UNBOUND:                -0.193
REMARK  Name = Nicotine.pdb
REMARK  2 active torsions:
REMARK  status: ('A' for Active; 'I' for Inactive)
REMARK    1  A    between atoms: C_3  and  C_6
REMARK    2  A    between atoms: N_4  and  C_12
REMARK                            x       y       z     vdW  Elec       q    Type
REMARK                         _______ _______ _______ _____ _____    ______ ____
ROOT
ATOM      1  C   UNL     1       8.759  -2.488   4.494  0.00  0.00    +0.017 C 
ATOM      2  C   UNL     1       8.164  -1.141   4.984  0.00  0.00    +0.025 C 
ATOM      3  C   UNL     1       6.657  -1.450   5.103  0.00  0.00    +0.088 C 
ATOM      4  N   UNL     1       6.377  -2.606   4.232  0.00  0.00    -0.298 NA
ATOM      5  C   UNL     1       7.634  -3.007   3.564  0.00  0.00    +0.085 C 
ATOM      6  C   UNL     1       5.811  -3.721   5.001  0.00  0.00    +0.105 C 
ENDROOT
BRANCH   3   7
ATOM      7  C   UNL     1       5.852  -0.259   4.652  0.00  0.00    -0.012 A 
ATOM      8  C   UNL     1       4.648   0.042   5.260  0.00  0.00    +0.115 A 
ATOM      9  N   UNL     1       3.938   1.083   4.871  0.00  0.00    -0.263 NA
ATOM     10  C   UNL     1       4.342   1.872   3.894  0.00  0.00    +0.111 A 
ATOM     11  C   UNL     1       5.535   1.633   3.239  0.00  0.00    +0.020 A 
ATOM     12  C   UNL     1       6.312   0.551   3.624  0.00  0.00    +0.008 A 
ENDBRANCH   3   7
TORSDOF 1
ENDMDL
MODEL 4
REMARK VINA RESULT:    -4.492      1.794      4.703
REMARK INTER + INTRA:          -4.948
REMARK INTER:                  -4.747
REMARK INTRA:                  -0.201
REMARK UNBOUND:                -0.193
REMARK  Name = Nicotine.pdb
REMARK  2 active torsions:
REMARK  status: ('A' for Active; 'I' for Inactive)
REMARK    1  A    between atoms: C_3  and  C_6
REMARK    2  A    between atoms: N_4  and  C_12
REMARK                            x       y       z     vdW  Elec       q    Type
REMARK                         _______ _______ _______ _____ _____    ______ ____
ROOT
ATOM      1  C   UNL     1       4.535   0.237   5.995  0.00  0.00    +0.017 C 
ATOM      2  C   UNL     1       5.854  -0.576   6.084  0.00  0.00    +0.025 C 
ATOM      3  C   UNL     1       6.529  -0.292   4.725  0.00  0.00    +0.088 C 
ATOM      4  N   UNL     1       5.469   0.122   3.789  0.00  0.00    -0.298 NA
ATOM      5  C   UNL     1       4.172   0.082   4.498  0.00  0.00    +0.085 C 
ATOM      6  C   UNL     1       5.734   1.463   3.251  0.00  0.00    +0.105 C 
ENDROOT
BRANCH   3   7
ATOM      7  C   UNL     1       7.205  -1.539   4.217  0.00  0.00    -0.012 A 
ATOM      8  C   UNL     1       8.456  -1.895   4.684  0.00  0.00    +0.115 A 
ATOM      9  N   UNL     1       9.055  -2.985   4.245  0.00  0.00    -0.263 NA
ATOM     10  C   UNL     1       8.492  -3.773   3.351  0.00  0.00    +0.111 A 
ATOM     11  C   UNL     1       7.241  -3.481   2.839  0.00  0.00    +0.020 A 
ATOM     12  C   UNL     1       6.579  -2.346   3.281  0.00  0.00    +0.008 A 
ENDBRANCH   3   7
TORSDOF 1
ENDMDL
MODEL 5
REMARK VINA RESULT:    -4.491      1.052      1.772
REMARK INTER + INTRA:          -4.947
REMARK INTER:                  -4.730
REMARK INTRA:                  -0.217
REMARK UNBOUND:                -0.193
REMARK  Name = Nicotine.pdb
REMARK  2 active torsions:
REMARK  status: ('A' for Active; 'I' for Inactive)
REMARK    1  A    between atoms: C_3  and  C_6
REMARK    2  A    between atoms: N_4  and  C_12
REMARK                            x       y       z     vdW  Elec       q    Type
REMARK                         _______ _______ _______ _____ _____    ______ ____
ROOT
ATOM      1  C   UNL     1       5.921  -6.097   3.664  0.00  0.00    +0.017 C 
ATOM      2  C   UNL     1       5.656  -4.619   3.273  0.00  0.00    +0.025 C 
ATOM      3  C   UNL     1       7.077  -4.020   3.198  0.00  0.00    +0.088 C 
ATOM      4  N   UNL     1       7.956  -4.876   4.015  0.00  0.00    -0.298 NA
ATOM      5  C   UNL     1       7.140  -5.957   4.609  0.00  0.00    +0.085 C 
ATOM      6  C   UNL     1       9.053  -5.426   3.210  0.00  0.00    +0.105 C 
ENDROOT
BRANCH   3   7
ATOM      7  C   UNL     1       7.071  -2.617   3.747  0.00  0.00    -0.012 A 
ATOM      8  C   UNL     1       8.100  -2.180   4.559  0.00  0.00    +0.115 A 
ATOM      9  N   UNL     1       8.103  -0.953   5.043  0.00  0.00    -0.263 NA
ATOM     10  C   UNL     1       7.134  -0.100   4.776  0.00  0.00    +0.111 A 
ATOM     11  C   UNL     1       6.071  -0.466   3.971  0.00  0.00    +0.020 A 
ATOM     12  C   UNL     1       6.037  -1.746   3.439  0.00  0.00    +0.008 A 
ENDBRANCH   3   7
TORSDOF 1
ENDMDL
MODEL 6
REMARK VINA RESULT:    -4.456      2.109      4.675
REMARK INTER + INTRA:          -4.910
REMARK INTER:                  -4.656
REMARK INTRA:                  -0.254
REMARK UNBOUND:                -0.193
REMARK  Name = Nicotine.pdb
REMARK  2 active torsions:
REMARK  status: ('A' for Active; 'I' for Inactive)
REMARK    1  A    between atoms: C_3  and  C_6
REMARK    2  A    between atoms: N_4  and  C_12
REMARK                            x       y       z     vdW  Elec       q    Type
REMARK                         _______ _______ _______ _____ _____    ______ ____
ROOT
ATOM      1  C   UNL     1       4.461   1.426   4.186  0.00  0.00    +0.017 C 
ATOM      2  C   UNL     1       5.715   0.770   3.551  0.00  0.00    +0.025 C 
ATOM      3  C   UNL     1       5.452  -0.739   3.741  0.00  0.00    +0.088 C 
ATOM      4  N   UNL     1       4.493  -0.878   4.852  0.00  0.00    -0.298 NA
ATOM      5  C   UNL     1       4.173   0.470   5.370  0.00  0.00    +0.085 C 
ATOM      6  C   UNL     1       3.277  -1.576   4.415  0.00  0.00    +0.105 C 
ENDROOT
BRANCH   3   7
ATOM      7  C   UNL     1       6.739  -1.445   4.082  0.00  0.00    -0.012 A 
ATOM      8  C   UNL     1       6.961  -2.739   3.652  0.00  0.00    +0.115 A 
ATOM      9  N   UNL     1       8.085  -3.364   3.945  0.00  0.00    -0.263 NA
ATOM     10  C   UNL     1       9.034  -2.786   4.654  0.00  0.00    +0.111 A 
ATOM     11  C   UNL     1       8.883  -1.493   5.118  0.00  0.00    +0.020 A 
ATOM     12  C   UNL     1       7.717  -0.802   4.825  0.00  0.00    +0.008 A 
ENDBRANCH   3   7
TORSDOF 1
ENDMDL
MODEL 7
REMARK VINA RESULT:    -4.291      1.655      4.471
REMARK INTER + INTRA:          -4.735
REMARK INTER:                  -4.481
REMARK INTRA:                  -0.254
REMARK UNBOUND:                -0.193
REMARK  Name = Nicotine.pdb
REMARK  2 active torsions:
REMARK  status: ('A' for Active; 'I' for Inactive)
REMARK    1  A    between atoms: C_3  and  C_6
REMARK    2  A    between atoms: N_4  and  C_12
REMARK                            x       y       z     vdW  Elec       q    Type
REMARK                         _______ _______ _______ _____ _____    ______ ____
ROOT
ATOM      1  C   UNL     1       5.658  -0.179   4.370  0.00  0.00    +0.017 C 
ATOM      2  C   UNL     1       5.969  -1.215   3.259  0.00  0.00    +0.025 C 
ATOM      3  C   UNL     1       5.523  -2.550   3.893  0.00  0.00    +0.088 C 
ATOM      4  N   UNL     1       5.530  -2.362   5.355  0.00  0.00    -0.298 NA
ATOM      5  C   UNL     1       5.984  -0.987   5.652  0.00  0.00    +0.085 C 
ATOM      6  C   UNL     1       4.201  -2.613   5.926  0.00  0.00    +0.105 C 
ENDROOT
BRANCH   3   7
ATOM      7  C   UNL     1       6.483  -3.646   3.511  0.00  0.00    -0.012 A 
ATOM      8  C   UNL     1       6.032  -4.941   3.336  0.00  0.00    +0.115 A 
ATOM      9  N   UNL     1       6.866  -5.906   3.001  0.00  0.00    -0.263 NA
ATOM     10  C   UNL     1       8.152  -5.680   2.821  0.00  0.00    +0.111 A 
ATOM     11  C   UNL     1       8.676  -4.410   2.978  0.00  0.00    +0.020 A 
ATOM     12  C   UNL     1       7.829  -3.368   3.324  0.00  0.00    +0.008 A 
ENDBRANCH   3   7
TORSDOF 1
ENDMDL
MODEL 8
REMARK VINA RESULT:    -4.186      1.835      2.730
REMARK INTER + INTRA:          -4.624
REMARK INTER:                  -4.431
REMARK INTRA:                  -0.194
REMARK UNBOUND:                -0.193
REMARK  Name = Nicotine.pdb
REMARK  2 active torsions:
REMARK  status: ('A' for Active; 'I' for Inactive)
REMARK    1  A    between atoms: C_3  and  C_6
REMARK    2  A    between atoms: N_4  and  C_12
REMARK                            x       y       z     vdW  Elec       q    Type
REMARK                         _______ _______ _______ _____ _____    ______ ____
ROOT
ATOM      1  C   UNL     1       7.432  -4.293   3.432  0.00  0.00    +0.017 C 
ATOM      2  C   UNL     1       6.616  -3.122   2.825  0.00  0.00    +0.025 C 
ATOM      3  C   UNL     1       7.090  -1.905   3.649  0.00  0.00    +0.088 C 
ATOM      4  N   UNL     1       7.631  -2.421   4.919  0.00  0.00    -0.298 NA
ATOM      5  C   UNL     1       7.490  -3.893   4.928  0.00  0.00    +0.085 C 
ATOM      6  C   UNL     1       9.035  -2.026   5.093  0.00  0.00    +0.105 C 
ENDROOT
BRANCH   3   7
ATOM      7  C   UNL     1       5.928  -0.986   3.921  0.00  0.00    -0.012 A 
ATOM      8  C   UNL     1       4.750  -1.484   4.445  0.00  0.00    +0.115 A 
ATOM      9  N   UNL     1       3.728  -0.686   4.686  0.00  0.00    -0.263 NA
ATOM     10  C   UNL     1       3.786   0.608   4.440  0.00  0.00    +0.111 A 
ATOM     11  C   UNL     1       4.931   1.178   3.916  0.00  0.00    +0.020 A 
ATOM     12  C   UNL     1       6.028   0.371   3.654  0.00  0.00    +0.008 A 
ENDBRANCH   3   7
TORSDOF 1
ENDMDL
MODEL 9
REMARK VINA RESULT:    -4.012      1.351      4.468
REMARK INTER + INTRA:          -4.440
REMARK INTER:                  -4.219
REMARK INTRA:                  -0.220
REMARK UNBOUND:                -0.193
REMARK  Name = Nicotine.pdb
REMARK  2 active torsions:
REMARK  status: ('A' for Active; 'I' for Inactive)
REMARK    1  A    between atoms: C_3  and  C_6
REMARK    2  A    between atoms: N_4  and  C_12
REMARK                            x       y       z     vdW  Elec       q    Type
REMARK                         _______ _______ _______ _____ _____    ______ ____
ROOT
ATOM      1  C   UNL     1       4.512  -1.308   4.389  0.00  0.00    +0.017 C 
ATOM      2  C   UNL     1       4.884  -2.803   4.574  0.00  0.00    +0.025 C 
ATOM      3  C   UNL     1       6.416  -2.760   4.754  0.00  0.00    +0.088 C 
ATOM      4  N   UNL     1       6.891  -1.500   4.154  0.00  0.00    -0.298 NA
ATOM      5  C   UNL     1       5.729  -0.779   3.591  0.00  0.00    +0.085 C 
ATOM      6  C   UNL     1       7.593  -0.676   5.146  0.00  0.00    +0.105 C 
ENDROOT
BRANCH   3   7
ATOM      7  C   UNL     1       7.048  -3.934   4.053  0.00  0.00    -0.012 A 
ATOM      8  C   UNL     1       8.405  -3.945   3.793  0.00  0.00    +0.115 A 
ATOM      9  N   UNL     1       8.967  -4.969   3.180  0.00  0.00    -0.263 NA
ATOM     10  C   UNL     1       8.263  -6.015   2.792  0.00  0.00    +0.111 A 
ATOM     11  C   UNL     1       6.901  -6.074   3.018  0.00  0.00    +0.020 A 
ATOM     12  C   UNL     1       6.277  -5.019   3.664  0.00  0.00    +0.008 A 
ENDBRANCH   3   7
TORSDOF 1
ENDMDL
MODEL 10
REMARK VINA RESULT:    -3.984      2.148      3.622
REMARK INTER + INTRA:          -4.410
REMARK INTER:                  -4.197
REMARK INTRA:                  -0.214
REMARK UNBOUND:                -0.193
REMARK  Name = Nicotine.pdb
REMARK  2 active torsions:
REMARK  status: ('A' for Active; 'I' for Inactive)
REMARK    1  A    between atoms: C_3  and  C_6
REMARK    2  A    between atoms: N_4  and  C_12
REMARK                            x       y       z     vdW  Elec       q    Type
REMARK                         _______ _______ _______ _____ _____    ______ ____
ROOT
ATOM      1  C   UNL     1       9.134  -5.887   3.927  0.00  0.00    +0.017 C 
ATOM      2  C   UNL     1       8.024  -5.624   2.875  0.00  0.00    +0.025 C 
ATOM      3  C   UNL     1       7.395  -4.299   3.358  0.00  0.00    +0.088 C 
ATOM      4  N   UNL     1       7.704  -4.167   4.793  0.00  0.00    -0.298 NA
ATOM      5  C   UNL     1       8.469  -5.357   5.222  0.00  0.00    +0.085 C 
ATOM      6  C   UNL     1       8.455  -2.933   5.059  0.00  0.00    +0.105 C 
ENDROOT
BRANCH   3   7
ATOM      7  C   UNL     1       5.903  -4.336   3.154  0.00  0.00    -0.012 A 
ATOM      8  C   UNL     1       5.216  -5.532   3.233  0.00  0.00    +0.115 A 
ATOM      9  N   UNL     1       3.909  -5.573   3.056  0.00  0.00    -0.263 NA
ATOM     10  C   UNL     1       3.211  -4.485   2.798  0.00  0.00    +0.111 A 
ATOM     11  C   UNL     1       3.829  -3.252   2.704  0.00  0.00    +0.020 A 
ATOM     12  C   UNL     1       5.201  -3.170   2.890  0.00  0.00    +0.008 A 
ENDBRANCH   3   7
TORSDOF 1
ENDMDL
