MODEL 1
REMARK VINA RESULT:    -4.427      0.000      0.000
REMARK INTER + INTRA:          -4.894
REMARK INTER:                  -4.685
REMARK INTRA:                  -0.209
REMARK UNBOUND:                -0.209
REMARK  Name = Nicotine.pdb
REMARK  2 active torsions:
REMARK  status: ('A' for Active; 'I' for Inactive)
REMARK    1  A    between atoms: C_3  and  C_6
REMARK    2  A    between atoms: N_4  and  C_12
REMARK                            x       y       z     vdW  Elec       q    Type
REMARK                         _______ _______ _______ _____ _____    ______ ____
ROOT
ATOM      1  C   UNL     1       6.841   1.403   2.931  0.00  0.00    +0.017 C 
ATOM      2  C   UNL     1       6.972   2.932   2.701  0.00  0.00    +0.025 C 
ATOM      3  C   UNL     1       7.565   3.020   1.279  0.00  0.00    +0.088 C 
ATOM      4  N   UNL     1       8.227   1.732   1.001  0.00  0.00    -0.298 NA
ATOM      5  C   UNL     1       8.093   0.867   2.193  0.00  0.00    +0.085 C 
ATOM      6  C   UNL     1       7.651   1.088  -0.186  0.00  0.00    +0.105 C 
ENDROOT
BRANCH   3   7
ATOM      7  C   UNL     1       8.570   4.140   1.210  0.00  0.00    -0.012 A 
ATOM      8  C   UNL     1       8.224   5.416   1.614  0.00  0.00    +0.115 A 
ATOM      9  N   UNL     1       9.097   6.402   1.557  0.00  0.00    -0.263 NA
ATOM     10  C   UNL     1      10.326   6.215   1.117  0.00  0.00    +0.111 A 
ATOM     11  C   UNL     1      10.745   4.966   0.696  0.00  0.00    +0.020 A 
ATOM     12  C   UNL     1       9.855   3.904   0.747  0.00  0.00    +0.008 A 
ENDBRANCH   3   7
TORSDOF 1
ENDMDL
MODEL 2
REMARK VINA RESULT:    -4.273      1.175      1.983
REMARK INTER + INTRA:          -4.732
REMARK INTER:                  -4.562
REMARK INTRA:                  -0.170
REMARK UNBOUND:                -0.209
REMARK  Name = Nicotine.pdb
REMARK  2 active torsions:
REMARK  status: ('A' for Active; 'I' for Inactive)
REMARK    1  A    between atoms: C_3  and  C_6
REMARK    2  A    between atoms: N_4  and  C_12
REMARK                            x       y       z     vdW  Elec       q    Type
REMARK                         _______ _______ _______ _____ _____    ______ ____
ROOT
ATOM      1  C   UNL     1       7.208   0.268   0.628  0.00  0.00    +0.017 C 
ATOM      2  C   UNL     1       7.945   1.524   0.093  0.00  0.00    +0.025 C 
ATOM      3  C   UNL     1       8.721   2.025   1.330  0.00  0.00    +0.088 C 
ATOM      4  N   UNL     1       8.040   1.484   2.520  0.00  0.00    -0.298 NA
ATOM      5  C   UNL     1       6.870   0.698   2.078  0.00  0.00    +0.085 C 
ATOM      6  C   UNL     1       8.955   0.662   3.322  0.00  0.00    +0.105 C 
ENDROOT
BRANCH   3   7
ATOM      7  C   UNL     1       8.707   3.531   1.369  0.00  0.00    -0.012 A 
ATOM      8  C   UNL     1       7.606   4.207   1.861  0.00  0.00    +0.115 A 
ATOM      9  N   UNL     1       7.586   5.525   1.899  0.00  0.00    -0.263 NA
ATOM     10  C   UNL     1       8.604   6.247   1.473  0.00  0.00    +0.111 A 
ATOM     11  C   UNL     1       9.739   5.640   0.968  0.00  0.00    +0.020 A 
ATOM     12  C   UNL     1       9.799   4.256   0.917  0.00  0.00    +0.008 A 
ENDBRANCH   3   7
TORSDOF 1
ENDMDL
MODEL 3
REMARK VINA RESULT:    -4.040      1.715      2.947
REMARK INTER + INTRA:          -4.486
REMARK INTER:                  -4.232
REMARK INTRA:                  -0.254
REMARK UNBOUND:                -0.209
REMARK  Name = Nicotine.pdb
REMARK  2 active torsions:
REMARK  status: ('A' for Active; 'I' for Inactive)
REMARK    1  A    between atoms: C_3  and  C_6
REMARK    2  A    between atoms: N_4  and  C_12
REMARK                            x       y       z     vdW  Elec       q    Type
REMARK                         _______ _______ _______ _____ _____    ______ ____
ROOT
ATOM      1  C   UNL     1       7.566  -0.098   0.621  0.00  0.00    +0.017 C 
ATOM      2  C   UNL     1       7.556   1.312  -0.025  0.00  0.00    +0.025 C 
ATOM      3  C   UNL     1       8.072   2.219   1.112  0.00  0.00    +0.088 C 
ATOM      4  N   UNL     1       7.826   1.510   2.381  0.00  0.00    -0.298 NA
ATOM      5  C   UNL     1       7.162   0.224   2.081  0.00  0.00    +0.085 C 
ATOM      6  C   UNL     1       9.079   1.297   3.117  0.00  0.00    +0.105 C 
ENDROOT
BRANCH   3   7
ATOM      7  C   UNL     1       7.327   3.529   1.102  0.00  0.00    -0.012 A 
ATOM      8  C   UNL     1       7.958   4.695   1.493  0.00  0.00    +0.115 A 
ATOM      9  N   UNL     1       7.313   5.845   1.487  0.00  0.00    -0.263 NA
ATOM     10  C   UNL     1       6.052   5.931   1.112  0.00  0.00    +0.111 A 
ATOM     11  C   UNL     1       5.356   4.807   0.708  0.00  0.00    +0.020 A 
ATOM     12  C   UNL     1       6.002   3.581   0.696  0.00  0.00    +0.008 A 
ENDBRANCH   3   7
TORSDOF 1
ENDMDL
MODEL 4
REMARK VINA RESULT:    -3.984      2.354      3.519
REMARK INTER + INTRA:          -4.426
REMARK INTER:                  -4.233
REMARK INTRA:                  -0.194
REMARK UNBOUND:                -0.209
REMARK  Name = Nicotine.pdb
REMARK  2 active torsions:
REMARK  status: ('A' for Active; 'I' for Inactive)
REMARK    1  A    between atoms: C_3  and  C_6
REMARK    2  A    between atoms: N_4  and  C_12
REMARK                            x       y       z     vdW  Elec       q    Type
REMARK                         _______ _______ _______ _____ _____    ______ ____
ROOT
ATOM      1  C   UNL     1       4.548   3.867   0.114  0.00  0.00    +0.017 C 
ATOM      2  C   UNL     1       5.970   3.371   0.488  0.00  0.00    +0.025 C 
ATOM      3  C   UNL     1       6.423   4.389   1.556  0.00  0.00    +0.088 C 
ATOM      4  N   UNL     1       5.622   5.611   1.362  0.00  0.00    -0.298 NA
ATOM      5  C   UNL     1       4.718   5.403   0.211  0.00  0.00    +0.085 C 
ATOM      6  C   UNL     1       4.864   5.943   2.575  0.00  0.00    +0.105 C 
ENDROOT
BRANCH   3   7
ATOM      7  C   UNL     1       7.887   4.699   1.380  0.00  0.00    -0.012 A 
ATOM      8  C   UNL     1       8.783   3.693   1.076  0.00  0.00    +0.115 A 
ATOM      9  N   UNL     1      10.066   3.956   0.920  0.00  0.00    -0.263 NA
ATOM     10  C   UNL     1      10.543   5.179   1.047  0.00  0.00    +0.111 A 
ATOM     11  C   UNL     1       9.706   6.237   1.350  0.00  0.00    +0.020 A 
ATOM     12  C   UNL     1       8.351   5.999   1.516  0.00  0.00    +0.008 A 
ENDBRANCH   3   7
TORSDOF 1
ENDMDL
MODEL 5
REMARK VINA RESULT:    -3.952      3.252      4.573
REMARK INTER + INTRA:          -4.392
REMARK INTER:                  -4.168
REMARK INTRA:                  -0.224
REMARK UNBOUND:                -0.209
REMARK  Name = Nicotine.pdb
REMARK  2 active torsions:
REMARK  status: ('A' for Active; 'I' for Inactive)
REMARK    1  A    between atoms: C_3  and  C_6
REMARK    2  A    between atoms: N_4  and  C_12
REMARK                            x       y       z     vdW  Elec       q    Type
REMARK                         _______ _______ _______ _____ _____    ______ ____
ROOT
ATOM      1  C   UNL     1       3.535   4.886  -1.366  0.00  0.00    +0.017 C 
ATOM      2  C   UNL     1       4.431   3.637  -1.151  0.00  0.00    +0.025 C 
ATOM      3  C   UNL     1       4.710   3.667   0.367  0.00  0.00    +0.088 C 
ATOM      4  N   UNL     1       4.505   5.055   0.821  0.00  0.00    -0.298 NA
ATOM      5  C   UNL     1       4.140   5.884  -0.347  0.00  0.00    +0.085 C 
ATOM      6  C   UNL     1       3.470   5.122   1.860  0.00  0.00    +0.105 C 
ENDROOT
BRANCH   3   7
ATOM      7  C   UNL     1       6.130   3.242   0.636  0.00  0.00    -0.012 A 
ATOM      8  C   UNL     1       6.990   4.075   1.326  0.00  0.00    +0.115 A 
ATOM      9  N   UNL     1       8.235   3.710   1.566  0.00  0.00    -0.263 NA
ATOM     10  C   UNL     1       8.707   2.548   1.161  0.00  0.00    +0.111 A 
ATOM     11  C   UNL     1       7.905   1.663   0.465  0.00  0.00    +0.020 A 
ATOM     12  C   UNL     1       6.589   2.009   0.199  0.00  0.00    +0.008 A 
ENDBRANCH   3   7
TORSDOF 1
ENDMDL
MODEL 6
REMARK VINA RESULT:    -3.926      2.455      3.828
REMARK INTER + INTRA:          -4.364
REMARK INTER:                  -4.181
REMARK INTRA:                  -0.183
REMARK UNBOUND:                -0.209
REMARK  Name = Nicotine.pdb
REMARK  2 active torsions:
REMARK  status: ('A' for Active; 'I' for Inactive)
REMARK    1  A    between atoms: C_3  and  C_6
REMARK    2  A    between atoms: N_4  and  C_12
REMARK                            x       y       z     vdW  Elec       q    Type
REMARK                         _______ _______ _______ _____ _____    ______ ____
ROOT
ATOM      1  C   UNL     1       5.753   6.736   3.699  0.00  0.00    +0.017 C 
ATOM      2  C   UNL     1       7.272   6.884   3.425  0.00  0.00    +0.025 C 
ATOM      3  C   UNL     1       7.363   6.741   1.891  0.00  0.00    +0.088 C 
ATOM      4  N   UNL     1       6.158   6.018   1.447  0.00  0.00    -0.298 NA
ATOM      5  C   UNL     1       5.343   5.687   2.636  0.00  0.00    +0.085 C 
ATOM      6  C   UNL     1       5.388   6.817   0.486  0.00  0.00    +0.105 C 
ENDROOT
BRANCH   3   7
ATOM      7  C   UNL     1       8.597   5.959   1.521  0.00  0.00    -0.012 A 
ATOM      8  C   UNL     1       8.525   4.595   1.314  0.00  0.00    +0.115 A 
ATOM      9  N   UNL     1       9.600   3.903   0.991  0.00  0.00    -0.263 NA
ATOM     10  C   UNL     1      10.778   4.478   0.852  0.00  0.00    +0.111 A 
ATOM     11  C   UNL     1      10.928   5.839   1.043  0.00  0.00    +0.020 A 
ATOM     12  C   UNL     1       9.819   6.600   1.379  0.00  0.00    +0.008 A 
ENDBRANCH   3   7
TORSDOF 1
ENDMDL
MODEL 7
REMARK VINA RESULT:    -3.856      1.689      4.506
REMARK INTER + INTRA:          -4.290
REMARK INTER:                  -4.040
REMARK INTRA:                  -0.250
REMARK UNBOUND:                -0.209
REMARK  Name = Nicotine.pdb
REMARK  2 active torsions:
REMARK  status: ('A' for Active; 'I' for Inactive)
REMARK    1  A    between atoms: C_3  and  C_6
REMARK    2  A    between atoms: N_4  and  C_12
REMARK                            x       y       z     vdW  Elec       q    Type
REMARK                         _______ _______ _______ _____ _____    ______ ____
ROOT
ATOM      1  C   UNL     1       8.811   5.437   1.329  0.00  0.00    +0.017 C 
ATOM      2  C   UNL     1       9.294   3.989   1.052  0.00  0.00    +0.025 C 
ATOM      3  C   UNL     1       7.973   3.196   0.957  0.00  0.00    +0.088 C 
ATOM      4  N   UNL     1       6.945   3.971   1.675  0.00  0.00    -0.298 NA
ATOM      5  C   UNL     1       7.575   5.189   2.228  0.00  0.00    +0.085 C 
ATOM      6  C   UNL     1       5.826   4.312   0.787  0.00  0.00    +0.105 C 
ENDROOT
BRANCH   3   7
ATOM      7  C   UNL     1       8.140   1.844   1.601  0.00  0.00    -0.012 A 
ATOM      8  C   UNL     1       7.544   0.727   1.046  0.00  0.00    +0.115 A 
ATOM      9  N   UNL     1       7.685  -0.460   1.602  0.00  0.00    -0.263 NA
ATOM     10  C   UNL     1       8.393  -0.631   2.701  0.00  0.00    +0.111 A 
ATOM     11  C   UNL     1       9.019   0.439   3.312  0.00  0.00    +0.020 A 
ATOM     12  C   UNL     1       8.898   1.702   2.753  0.00  0.00    +0.008 A 
ENDBRANCH   3   7
TORSDOF 1
ENDMDL
MODEL 8
REMARK VINA RESULT:    -3.742      2.535      4.021
REMARK INTER + INTRA:          -4.169
REMARK INTER:                  -3.957
REMARK INTRA:                  -0.212
REMARK UNBOUND:                -0.209
REMARK  Name = Nicotine.pdb
REMARK  2 active torsions:
REMARK  status: ('A' for Active; 'I' for Inactive)
REMARK    1  A    between atoms: C_3  and  C_6
REMARK    2  A    between atoms: N_4  and  C_12
REMARK                            x       y       z     vdW  Elec       q    Type
REMARK                         _______ _______ _______ _____ _____    ______ ____
ROOT
ATOM      1  C   UNL     1       9.990   4.405   1.112  0.00  0.00    +0.017 C 
ATOM      2  C   UNL     1       8.903   5.510   1.053  0.00  0.00    +0.025 C 
ATOM      3  C   UNL     1       7.701   4.853   1.765  0.00  0.00    +0.088 C 
ATOM      4  N   UNL     1       7.893   3.394   1.690  0.00  0.00    -0.298 NA
ATOM      5  C   UNL     1       9.141   3.121   0.945  0.00  0.00    +0.085 C 
ATOM      6  C   UNL     1       7.940   2.799   3.032  0.00  0.00    +0.105 C 
ENDROOT
BRANCH   3   7
ATOM      7  C   UNL     1       6.421   5.240   1.072  0.00  0.00    -0.012 A 
ATOM      8  C   UNL     1       6.076   6.571   0.932  0.00  0.00    +0.115 A 
ATOM      9  N   UNL     1       4.956   6.918   0.327  0.00  0.00    -0.263 NA
ATOM     10  C   UNL     1       4.128   6.018  -0.165  0.00  0.00    +0.111 A 
ATOM     11  C   UNL     1       4.406   4.668  -0.064  0.00  0.00    +0.020 A 
ATOM     12  C   UNL     1       5.576   4.266   0.562  0.00  0.00    +0.008 A 
ENDBRANCH   3   7
TORSDOF 1
ENDMDL
MODEL 9
REMARK VINA RESULT:    -3.644      3.873      5.091
REMARK INTER + INTRA:          -4.066
REMARK INTER:                  -3.852
REMARK INTRA:                  -0.214
REMARK UNBOUND:                -0.209
REMARK  Name = Nicotine.pdb
REMARK  2 active torsions:
REMARK  status: ('A' for Active; 'I' for Inactive)
REMARK    1  A    between atoms: C_3  and  C_6
REMARK    2  A    between atoms: N_4  and  C_12
REMARK                            x       y       z     vdW  Elec       q    Type
REMARK                         _______ _______ _______ _____ _____    ______ ____
ROOT
ATOM      1  C   UNL     1       7.693   5.249   1.772  0.00  0.00    +0.017 C 
ATOM      2  C   UNL     1       6.474   5.887   1.055  0.00  0.00    +0.025 C 
ATOM      3  C   UNL     1       5.394   4.790   1.162  0.00  0.00    +0.088 C 
ATOM      4  N   UNL     1       6.092   3.508   1.369  0.00  0.00    -0.298 NA
ATOM      5  C   UNL     1       7.549   3.760   1.368  0.00  0.00    +0.085 C 
ATOM      6  C   UNL     1       5.668   2.873   2.623  0.00  0.00    +0.105 C 
ENDROOT
BRANCH   3   7
ATOM      7  C   UNL     1       4.588   4.737  -0.110  0.00  0.00    -0.012 A 
ATOM      8  C   UNL     1       3.856   5.836  -0.519  0.00  0.00    +0.115 A 
ATOM      9  N   UNL     1       3.148   5.798  -1.631  0.00  0.00    -0.263 NA
ATOM     10  C   UNL     1       3.109   4.722  -2.392  0.00  0.00    +0.111 A 
ATOM     11  C   UNL     1       3.816   3.585  -2.047  0.00  0.00    +0.020 A 
ATOM     12  C   UNL     1       4.576   3.589  -0.887  0.00  0.00    +0.008 A 
ENDBRANCH   3   7
TORSDOF 1
ENDMDL
