MODEL 1
REMARK VINA RESULT:     0.000      0.000      0.000
REMARK INTER + INTRA:          -0.256
REMARK INTER:                   0.000
REMARK INTRA:                  -0.256
REMARK UNBOUND:                -0.256
REMARK  Name = Nicotine.pdb
REMARK  2 active torsions:
REMARK  status: ('A' for Active; 'I' for Inactive)
REMARK    1  A    between atoms: C_3  and  C_6
REMARK    2  A    between atoms: N_4  and  C_12
REMARK                            x       y       z     vdW  Elec       q    Type
REMARK                         _______ _______ _______ _____ _____    ______ ____
ROOT
ATOM      1  C   UNL     1      -0.962   1.687  -0.609  0.00  0.00    +0.017 C 
ATOM      2  C   UNL     1      -0.886   2.407  -1.981  0.00  0.00    +0.025 C 
ATOM      3  C   UNL     1      -1.861   1.591  -2.856  0.00  0.00    +0.088 C 
ATOM      4  N   UNL     1      -1.993   0.259  -2.238  0.00  0.00    -0.298 NA
ATOM      5  C   UNL     1      -1.127   0.208  -1.041  0.00  0.00    +0.085 C 
ATOM      6  C   UNL     1      -3.391  -0.024  -1.890  0.00  0.00    +0.105 C 
ENDROOT
BRANCH   3   7
ATOM      7  C   UNL     1      -1.309   1.457  -4.251  0.00  0.00    -0.012 A 
ATOM      8  C   UNL     1      -2.149   1.173  -5.311  0.00  0.00    +0.115 A 
ATOM      9  N   UNL     1      -1.674   1.055  -6.536  0.00  0.00    -0.263 NA
ATOM     10  C   UNL     1      -0.391   1.201  -6.798  0.00  0.00    +0.111 A 
ATOM     11  C   UNL     1       0.510   1.487  -5.789  0.00  0.00    +0.020 A 
ATOM     12  C   UNL     1       0.047   1.624  -4.490  0.00  0.00    +0.008 A 
ENDBRANCH   3   7
TORSDOF 1
ENDMDL
MODEL 2
REMARK VINA RESULT:     0.000      5.169      6.929
REMARK INTER + INTRA:          -0.256
REMARK INTER:                   0.000
REMARK INTRA:                  -0.256
REMARK UNBOUND:                -0.256
REMARK  Name = Nicotine.pdb
REMARK  2 active torsions:
REMARK  status: ('A' for Active; 'I' for Inactive)
REMARK    1  A    between atoms: C_3  and  C_6
REMARK    2  A    between atoms: N_4  and  C_12
REMARK                            x       y       z     vdW  Elec       q    Type
REMARK                         _______ _______ _______ _____ _____    ______ ____
ROOT
ATOM      1  C   UNL     1       1.609   1.107  -0.310  0.00  0.00    +0.017 C 
ATOM      2  C   UNL     1       1.285   2.543  -0.796  0.00  0.00    +0.025 C 
ATOM      3  C   UNL     1       2.080   3.430   0.185  0.00  0.00    +0.088 C 
ATOM      4  N   UNL     1       2.319   2.631   1.401  0.00  0.00    -0.298 NA
ATOM      5  C   UNL     1       1.687   1.306   1.225  0.00  0.00    +0.085 C 
ATOM      6  C   UNL     1       3.756   2.499   1.670  0.00  0.00    +0.105 C 
ENDROOT
BRANCH   3   7
ATOM      7  C   UNL     1       1.281   4.661   0.527  0.00  0.00    -0.012 A 
ATOM      8  C   UNL     1       1.911   5.792   1.011  0.00  0.00    +0.115 A 
ATOM      9  N   UNL     1       1.219   6.873   1.312  0.00  0.00    -0.263 NA
ATOM     10  C   UNL     1      -0.090   6.920   1.168  0.00  0.00    +0.111 A 
ATOM     11  C   UNL     1      -0.790   5.828   0.689  0.00  0.00    +0.020 A 
ATOM     12  C   UNL     1      -0.095   4.675   0.356  0.00  0.00    +0.008 A 
ENDBRANCH   3   7
TORSDOF 1
ENDMDL
MODEL 3
REMARK VINA RESULT:     0.000      8.469     10.079
REMARK INTER + INTRA:          -0.256
REMARK INTER:                   0.000
REMARK INTRA:                  -0.256
REMARK UNBOUND:                -0.256
REMARK  Name = Nicotine.pdb
REMARK  2 active torsions:
REMARK  status: ('A' for Active; 'I' for Inactive)
REMARK    1  A    between atoms: C_3  and  C_6
REMARK    2  A    between atoms: N_4  and  C_12
REMARK                            x       y       z     vdW  Elec       q    Type
REMARK                         _______ _______ _______ _____ _____    ______ ____
ROOT
ATOM      1  C   UNL     1       8.149  -0.774  -4.496  0.00  0.00    +0.017 C 
ATOM      2  C   UNL     1       7.083  -0.533  -3.395  0.00  0.00    +0.025 C 
ATOM      3  C   UNL     1       7.701  -1.216  -2.157  0.00  0.00    +0.088 C 
ATOM      4  N   UNL     1       8.676  -2.207  -2.646  0.00  0.00    -0.298 NA
ATOM      5  C   UNL     1       8.668  -2.186  -4.124  0.00  0.00    +0.085 C 
ATOM      6  C   UNL     1      10.019  -1.929  -2.121  0.00  0.00    +0.105 C 
ENDROOT
BRANCH   3   7
ATOM      7  C   UNL     1       6.624  -1.904  -1.359  0.00  0.00    -0.012 A 
ATOM      8  C   UNL     1       6.824  -2.199  -0.023  0.00  0.00    +0.115 A 
ATOM      9  N   UNL     1       5.886  -2.801   0.682  0.00  0.00    -0.263 NA
ATOM     10  C   UNL     1       4.730  -3.143   0.149  0.00  0.00    +0.111 A 
ATOM     11  C   UNL     1       4.459  -2.880  -1.181  0.00  0.00    +0.020 A 
ATOM     12  C   UNL     1       5.418  -2.244  -1.953  0.00  0.00    +0.008 A 
ENDBRANCH   3   7
TORSDOF 1
ENDMDL
MODEL 4
REMARK VINA RESULT:     0.000      6.293      8.100
REMARK INTER + INTRA:          -0.256
REMARK INTER:                   0.000
REMARK INTRA:                  -0.256
REMARK UNBOUND:                -0.256
REMARK  Name = Nicotine.pdb
REMARK  2 active torsions:
REMARK  status: ('A' for Active; 'I' for Inactive)
REMARK    1  A    between atoms: C_3  and  C_6
REMARK    2  A    between atoms: N_4  and  C_12
REMARK                            x       y       z     vdW  Elec       q    Type
REMARK                         _______ _______ _______ _____ _____    ______ ____
ROOT
ATOM      1  C   UNL     1       5.869  -3.401  -6.137  0.00  0.00    +0.017 C 
ATOM      2  C   UNL     1       4.649  -2.566  -5.665  0.00  0.00    +0.025 C 
ATOM      3  C   UNL     1       5.296  -1.473  -4.788  0.00  0.00    +0.088 C 
ATOM      4  N   UNL     1       6.606  -1.984  -4.348  0.00  0.00    -0.298 NA
ATOM      5  C   UNL     1       6.786  -3.348  -4.890  0.00  0.00    +0.085 C 
ATOM      6  C   UNL     1       7.692  -1.096  -4.784  0.00  0.00    +0.105 C 
ENDROOT
BRANCH   3   7
ATOM      7  C   UNL     1       4.425  -1.194  -3.591  0.00  0.00    -0.012 A 
ATOM      8  C   UNL     1       4.536   0.003  -2.909  0.00  0.00    +0.115 A 
ATOM      9  N   UNL     1       3.777   0.255  -1.861  0.00  0.00    -0.263 NA
ATOM     10  C   UNL     1       2.889  -0.615  -1.422  0.00  0.00    +0.111 A 
ATOM     11  C   UNL     1       2.721  -1.833  -2.054  0.00  0.00    +0.020 A 
ATOM     12  C   UNL     1       3.497  -2.131  -3.163  0.00  0.00    +0.008 A 
ENDBRANCH   3   7
TORSDOF 1
ENDMDL
MODEL 5
REMARK VINA RESULT:     0.000      5.108      6.421
REMARK INTER + INTRA:          -0.256
REMARK INTER:                   0.000
REMARK INTRA:                  -0.256
REMARK UNBOUND:                -0.256
REMARK  Name = Nicotine.pdb
REMARK  2 active torsions:
REMARK  status: ('A' for Active; 'I' for Inactive)
REMARK    1  A    between atoms: C_3  and  C_6
REMARK    2  A    between atoms: N_4  and  C_12
REMARK                            x       y       z     vdW  Elec       q    Type
REMARK                         _______ _______ _______ _____ _____    ______ ____
ROOT
ATOM      1  C   UNL     1       1.314  -1.711  -4.360  0.00  0.00    +0.017 C 
ATOM      2  C   UNL     1       1.785  -0.242  -4.202  0.00  0.00    +0.025 C 
ATOM      3  C   UNL     1       3.227  -0.278  -4.753  0.00  0.00    +0.088 C 
ATOM      4  N   UNL     1       3.693  -1.673  -4.665  0.00  0.00    -0.298 NA
ATOM      5  C   UNL     1       2.619  -2.492  -4.063  0.00  0.00    +0.085 C 
ATOM      6  C   UNL     1       4.070  -2.188  -5.988  0.00  0.00    +0.105 C 
ENDROOT
BRANCH   3   7
ATOM      7  C   UNL     1       4.115   0.615  -3.926  0.00  0.00    -0.012 A 
ATOM      8  C   UNL     1       5.301   1.097  -4.446  0.00  0.00    +0.115 A 
ATOM      9  N   UNL     1       6.084   1.879  -3.728  0.00  0.00    -0.263 NA
ATOM     10  C   UNL     1       5.772   2.229  -2.496  0.00  0.00    +0.111 A 
ATOM     11  C   UNL     1       4.601   1.786  -1.909  0.00  0.00    +0.020 A 
ATOM     12  C   UNL     1       3.750   0.967  -2.635  0.00  0.00    +0.008 A 
ENDBRANCH   3   7
TORSDOF 1
ENDMDL
MODEL 6
REMARK VINA RESULT:     0.000      8.174      8.950
REMARK INTER + INTRA:          -0.256
REMARK INTER:                   0.000
REMARK INTRA:                  -0.256
REMARK UNBOUND:                -0.256
REMARK  Name = Nicotine.pdb
REMARK  2 active torsions:
REMARK  status: ('A' for Active; 'I' for Inactive)
REMARK    1  A    between atoms: C_3  and  C_6
REMARK    2  A    between atoms: N_4  and  C_12
REMARK                            x       y       z     vdW  Elec       q    Type
REMARK                         _______ _______ _______ _____ _____    ______ ____
ROOT
ATOM      1  C   UNL     1       7.571  -0.919   0.521  0.00  0.00    +0.017 C 
ATOM      2  C   UNL     1       7.686  -1.955  -0.628  0.00  0.00    +0.025 C 
ATOM      3  C   UNL     1       7.698  -1.071  -1.893  0.00  0.00    +0.088 C 
ATOM      4  N   UNL     1       7.074   0.215  -1.534  0.00  0.00    -0.298 NA
ATOM      5  C   UNL     1       6.655   0.156  -0.117  0.00  0.00    +0.085 C 
ATOM      6  C   UNL     1       7.999   1.333  -1.763  0.00  0.00    +0.105 C 
ENDROOT
BRANCH   3   7
ATOM      7  C   UNL     1       6.910  -1.736  -2.991  0.00  0.00    -0.012 A 
ATOM      8  C   UNL     1       7.124  -1.392  -4.312  0.00  0.00    +0.115 A 
ATOM      9  N   UNL     1       6.439  -1.969  -5.280  0.00  0.00    -0.263 NA
ATOM     10  C   UNL     1       5.529  -2.890  -5.030  0.00  0.00    +0.111 A 
ATOM     11  C   UNL     1       5.260  -3.286  -3.733  0.00  0.00    +0.020 A 
ATOM     12  C   UNL     1       5.965  -2.705  -2.690  0.00  0.00    +0.008 A 
ENDBRANCH   3   7
TORSDOF 1
ENDMDL
MODEL 7
REMARK VINA RESULT:     0.000      5.885      7.603
REMARK INTER + INTRA:          -0.256
REMARK INTER:                   0.000
REMARK INTRA:                  -0.256
REMARK UNBOUND:                -0.256
REMARK  Name = Nicotine.pdb
REMARK  2 active torsions:
REMARK  status: ('A' for Active; 'I' for Inactive)
REMARK    1  A    between atoms: C_3  and  C_6
REMARK    2  A    between atoms: N_4  and  C_12
REMARK                            x       y       z     vdW  Elec       q    Type
REMARK                         _______ _______ _______ _____ _____    ______ ____
ROOT
ATOM      1  C   UNL     1       5.611   0.588   0.704  0.00  0.00    +0.017 C 
ATOM      2  C   UNL     1       4.100   0.258   0.582  0.00  0.00    +0.025 C 
ATOM      3  C   UNL     1       3.451   1.652   0.447  0.00  0.00    +0.088 C 
ATOM      4  N   UNL     1       4.393   2.630   1.019  0.00  0.00    -0.298 NA
ATOM      5  C   UNL     1       5.579   1.904   1.521  0.00  0.00    +0.085 C 
ATOM      6  C   UNL     1       4.775   3.638   0.022  0.00  0.00    +0.105 C 
ENDROOT
BRANCH   3   7
ATOM      7  C   UNL     1       2.150   1.686   1.207  0.00  0.00    -0.012 A 
ATOM      8  C   UNL     1       1.185   2.626   0.899  0.00  0.00    +0.115 A 
ATOM      9  N   UNL     1       0.044   2.663   1.558  0.00  0.00    -0.263 NA
ATOM     10  C   UNL     1      -0.222   1.814   2.531  0.00  0.00    +0.111 A 
ATOM     11  C   UNL     1       0.694   0.845   2.895  0.00  0.00    +0.020 A 
ATOM     12  C   UNL     1       1.903   0.772   2.220  0.00  0.00    +0.008 A 
ENDBRANCH   3   7
TORSDOF 1
ENDMDL
MODEL 8
REMARK VINA RESULT:     0.000      3.835      5.078
REMARK INTER + INTRA:          -0.256
REMARK INTER:                   0.000
REMARK INTRA:                  -0.256
REMARK UNBOUND:                -0.256
REMARK  Name = Nicotine.pdb
REMARK  2 active torsions:
REMARK  status: ('A' for Active; 'I' for Inactive)
REMARK    1  A    between atoms: C_3  and  C_6
REMARK    2  A    between atoms: N_4  and  C_12
REMARK                            x       y       z     vdW  Elec       q    Type
REMARK                         _______ _______ _______ _____ _____    ______ ____
ROOT
ATOM      1  C   UNL     1       0.722  -0.167  -2.510  0.00  0.00    +0.017 C 
ATOM      2  C   UNL     1       0.243  -1.361  -3.378  0.00  0.00    +0.025 C 
ATOM      3  C   UNL     1      -1.175  -1.638  -2.835  0.00  0.00    +0.088 C 
ATOM      4  N   UNL     1      -1.237  -1.082  -1.471  0.00  0.00    -0.298 NA
ATOM      5  C   UNL     1       0.080  -0.499  -1.140  0.00  0.00    +0.085 C 
ATOM      6  C   UNL     1      -2.301  -0.076  -1.360  0.00  0.00    +0.105 C 
ENDROOT
BRANCH   3   7
ATOM      7  C   UNL     1      -1.429  -3.123  -2.797  0.00  0.00    -0.012 A 
ATOM      8  C   UNL     1      -2.721  -3.611  -2.778  0.00  0.00    +0.115 A 
ATOM      9  N   UNL     1      -2.952  -4.909  -2.745  0.00  0.00    -0.263 NA
ATOM     10  C   UNL     1      -1.969  -5.787  -2.728  0.00  0.00    +0.111 A 
ATOM     11  C   UNL     1      -0.650  -5.373  -2.745  0.00  0.00    +0.020 A 
ATOM     12  C   UNL     1      -0.369  -4.017  -2.786  0.00  0.00    +0.008 A 
ENDBRANCH   3   7
TORSDOF 1
ENDMDL
MODEL 9
REMARK VINA RESULT:     0.000      5.179      6.036
REMARK INTER + INTRA:          -0.256
REMARK INTER:                   0.000
REMARK INTRA:                  -0.256
REMARK UNBOUND:                -0.256
REMARK  Name = Nicotine.pdb
REMARK  2 active torsions:
REMARK  status: ('A' for Active; 'I' for Inactive)
REMARK    1  A    between atoms: C_3  and  C_6
REMARK    2  A    between atoms: N_4  and  C_12
REMARK                            x       y       z     vdW  Elec       q    Type
REMARK                         _______ _______ _______ _____ _____    ______ ____
ROOT
ATOM      1  C   UNL     1       0.108  -2.843  -2.473  0.00  0.00    +0.017 C 
ATOM      2  C   UNL     1       1.098  -2.144  -3.442  0.00  0.00    +0.025 C 
ATOM      3  C   UNL     1       2.473  -2.653  -2.961  0.00  0.00    +0.088 C 
ATOM      4  N   UNL     1       2.313  -3.086  -1.561  0.00  0.00    -0.298 NA
ATOM      5  C   UNL     1       0.914  -2.844  -1.150  0.00  0.00    +0.085 C 
ATOM      6  C   UNL     1       2.672  -4.501  -1.402  0.00  0.00    +0.105 C 
ENDROOT
BRANCH   3   7
ATOM      7  C   UNL     1       3.489  -1.543  -3.043  0.00  0.00    -0.012 A 
ATOM      8  C   UNL     1       4.839  -1.834  -3.097  0.00  0.00    +0.115 A 
ATOM      9  N   UNL     1       5.734  -0.868  -3.169  0.00  0.00    -0.263 NA
ATOM     10  C   UNL     1       5.383   0.402  -3.193  0.00  0.00    +0.111 A 
ATOM     11  C   UNL     1       4.051   0.769  -3.143  0.00  0.00    +0.020 A 
ATOM     12  C   UNL     1       3.081  -0.218  -3.072  0.00  0.00    +0.008 A 
ENDBRANCH   3   7
TORSDOF 1
ENDMDL
MODEL 10
REMARK VINA RESULT:     0.000      4.852      5.218
REMARK INTER + INTRA:          -0.256
REMARK INTER:                   0.000
REMARK INTRA:                  -0.256
REMARK UNBOUND:                -0.256
REMARK  Name = Nicotine.pdb
REMARK  2 active torsions:
REMARK  status: ('A' for Active; 'I' for Inactive)
REMARK    1  A    between atoms: C_3  and  C_6
REMARK    2  A    between atoms: N_4  and  C_12
REMARK                            x       y       z     vdW  Elec       q    Type
REMARK                         _______ _______ _______ _____ _____    ______ ____
ROOT
ATOM      1  C   UNL     1      -3.114   0.707   2.134  0.00  0.00    +0.017 C 
ATOM      2  C   UNL     1      -2.078   0.684   0.980  0.00  0.00    +0.025 C 
ATOM      3  C   UNL     1      -2.232  -0.739   0.403  0.00  0.00    +0.088 C 
ATOM      4  N   UNL     1      -2.827  -1.577   1.460  0.00  0.00    -0.298 NA
ATOM      5  C   UNL     1      -3.022  -0.745   2.666  0.00  0.00    +0.085 C 
ATOM      6  C   UNL     1      -4.096  -2.165   1.014  0.00  0.00    +0.105 C 
ENDROOT
BRANCH   3   7
ATOM      7  C   UNL     1      -0.882  -1.283   0.014  0.00  0.00    -0.012 A 
ATOM      8  C   UNL     1      -0.782  -2.313  -0.903  0.00  0.00    +0.115 A 
ATOM      9  N   UNL     1       0.396  -2.796  -1.249  0.00  0.00    -0.263 NA
ATOM     10  C   UNL     1       1.516  -2.321  -0.741  0.00  0.00    +0.111 A 
ATOM     11  C   UNL     1       1.494  -1.291   0.181  0.00  0.00    +0.020 A 
ATOM     12  C   UNL     1       0.275  -0.755   0.565  0.00  0.00    +0.008 A 
ENDBRANCH   3   7
TORSDOF 1
ENDMDL
