MODEL 1
REMARK VINA RESULT:    -2.731      0.000      0.000
REMARK INTER + INTRA:          -3.112
REMARK INTER:                  -2.891
REMARK INTRA:                  -0.221
REMARK UNBOUND:                -0.221
REMARK  Name = Nicotine.pdb
REMARK  2 active torsions:
REMARK  status: ('A' for Active; 'I' for Inactive)
REMARK    1  A    between atoms: C_3  and  C_6
REMARK    2  A    between atoms: N_4  and  C_12
REMARK                            x       y       z     vdW  Elec       q    Type
REMARK                         _______ _______ _______ _____ _____    ______ ____
ROOT
ATOM      1  C   UNL     1      10.523  -4.860   1.494  0.00  0.00    +0.017 C 
ATOM      2  C   UNL     1      10.159  -4.463   2.949  0.00  0.00    +0.025 C 
ATOM      3  C   UNL     1       8.788  -3.771   2.787  0.00  0.00    +0.088 C 
ATOM      4  N   UNL     1       8.692  -3.314   1.389  0.00  0.00    -0.298 NA
ATOM      5  C   UNL     1       9.946  -3.669   0.690  0.00  0.00    +0.085 C 
ATOM      6  C   UNL     1       7.529  -3.910   0.718  0.00  0.00    +0.105 C 
ENDROOT
BRANCH   3   7
ATOM      7  C   UNL     1       8.695  -2.592   3.720  0.00  0.00    -0.012 A 
ATOM      8  C   UNL     1       8.551  -1.313   3.218  0.00  0.00    +0.115 A 
ATOM      9  N   UNL     1       8.469  -0.275   4.028  0.00  0.00    -0.263 NA
ATOM     10  C   UNL     1       8.521  -0.413   5.338  0.00  0.00    +0.111 A 
ATOM     11  C   UNL     1       8.663  -1.662   5.913  0.00  0.00    +0.020 A 
ATOM     12  C   UNL     1       8.748  -2.777   5.093  0.00  0.00    +0.008 A 
ENDBRANCH   3   7
TORSDOF 1
ENDMDL
MODEL 2
REMARK VINA RESULT:    -2.691      1.962      4.132
REMARK INTER + INTRA:          -3.069
REMARK INTER:                  -2.846
REMARK INTRA:                  -0.223
REMARK UNBOUND:                -0.221
REMARK  Name = Nicotine.pdb
REMARK  2 active torsions:
REMARK  status: ('A' for Active; 'I' for Inactive)
REMARK    1  A    between atoms: C_3  and  C_6
REMARK    2  A    between atoms: N_4  and  C_12
REMARK                            x       y       z     vdW  Elec       q    Type
REMARK                         _______ _______ _______ _____ _____    ______ ____
ROOT
ATOM      1  C   UNL     1       8.608  -1.888   5.866  0.00  0.00    +0.017 C 
ATOM      2  C   UNL     1       8.589  -0.833   4.729  0.00  0.00    +0.025 C 
ATOM      3  C   UNL     1       7.799  -1.543   3.609  0.00  0.00    +0.088 C 
ATOM      4  N   UNL     1       7.893  -2.992   3.860  0.00  0.00    -0.298 NA
ATOM      5  C   UNL     1       8.723  -3.209   5.064  0.00  0.00    +0.085 C 
ATOM      6  C   UNL     1       6.560  -3.587   4.024  0.00  0.00    +0.105 C 
ENDROOT
BRANCH   3   7
ATOM      7  C   UNL     1       8.402  -1.213   2.268  0.00  0.00    -0.012 A 
ATOM      8  C   UNL     1       8.751  -2.223   1.391  0.00  0.00    +0.115 A 
ATOM      9  N   UNL     1       9.279  -1.942   0.216  0.00  0.00    -0.263 NA
ATOM     10  C   UNL     1       9.495  -0.700  -0.169  0.00  0.00    +0.111 A 
ATOM     11  C   UNL     1       9.170   0.362   0.654  0.00  0.00    +0.020 A 
ATOM     12  C   UNL     1       8.608   0.107   1.896  0.00  0.00    +0.008 A 
ENDBRANCH   3   7
TORSDOF 1
ENDMDL
MODEL 3
REMARK VINA RESULT:    -2.668      1.749      2.205
REMARK INTER + INTRA:          -3.045
REMARK INTER:                  -2.832
REMARK INTRA:                  -0.213
REMARK UNBOUND:                -0.221
REMARK  Name = Nicotine.pdb
REMARK  2 active torsions:
REMARK  status: ('A' for Active; 'I' for Inactive)
REMARK    1  A    between atoms: C_3  and  C_6
REMARK    2  A    between atoms: N_4  and  C_12
REMARK                            x       y       z     vdW  Elec       q    Type
REMARK                         _______ _______ _______ _____ _____    ______ ____
ROOT
ATOM      1  C   UNL     1       7.997  -3.137   0.583  0.00  0.00    +0.017 C 
ATOM      2  C   UNL     1       8.430  -3.228   2.070  0.00  0.00    +0.025 C 
ATOM      3  C   UNL     1       7.172  -2.755   2.828  0.00  0.00    +0.088 C 
ATOM      4  N   UNL     1       6.372  -1.949   1.889  0.00  0.00    -0.298 NA
ATOM      5  C   UNL     1       7.090  -1.880   0.598  0.00  0.00    +0.085 C 
ATOM      6  C   UNL     1       5.030  -2.518   1.715  0.00  0.00    +0.105 C 
ENDROOT
BRANCH   3   7
ATOM      7  C   UNL     1       7.572  -1.917   4.014  0.00  0.00    -0.012 A 
ATOM      8  C   UNL     1       8.695  -1.113   3.955  0.00  0.00    +0.115 A 
ATOM      9  N   UNL     1       9.052  -0.376   4.989  0.00  0.00    -0.263 NA
ATOM     10  C   UNL     1       8.360  -0.374   6.111  0.00  0.00    +0.111 A 
ATOM     11  C   UNL     1       7.225  -1.152   6.244  0.00  0.00    +0.020 A 
ATOM     12  C   UNL     1       6.816  -1.937   5.176  0.00  0.00    +0.008 A 
ENDBRANCH   3   7
TORSDOF 1
ENDMDL
MODEL 4
REMARK VINA RESULT:    -2.653      2.195      3.110
REMARK INTER + INTRA:          -3.028
REMARK INTER:                  -2.835
REMARK INTRA:                  -0.193
REMARK UNBOUND:                -0.221
REMARK  Name = Nicotine.pdb
REMARK  2 active torsions:
REMARK  status: ('A' for Active; 'I' for Inactive)
REMARK    1  A    between atoms: C_3  and  C_6
REMARK    2  A    between atoms: N_4  and  C_12
REMARK                            x       y       z     vdW  Elec       q    Type
REMARK                         _______ _______ _______ _____ _____    ______ ____
ROOT
ATOM      1  C   UNL     1       8.881  -1.642  -0.766  0.00  0.00    +0.017 C 
ATOM      2  C   UNL     1       8.197  -2.222   0.499  0.00  0.00    +0.025 C 
ATOM      3  C   UNL     1       8.117  -1.002   1.441  0.00  0.00    +0.088 C 
ATOM      4  N   UNL     1       9.146  -0.043   1.001  0.00  0.00    -0.298 NA
ATOM      5  C   UNL     1       9.872  -0.625  -0.148  0.00  0.00    +0.085 C 
ATOM      6  C   UNL     1       8.546   1.249   0.646  0.00  0.00    +0.105 C 
ENDROOT
BRANCH   3   7
ATOM      7  C   UNL     1       8.385  -1.430   2.860  0.00  0.00    -0.012 A 
ATOM      8  C   UNL     1       8.502  -2.771   3.175  0.00  0.00    +0.115 A 
ATOM      9  N   UNL     1       8.737  -3.155   4.415  0.00  0.00    -0.263 NA
ATOM     10  C   UNL     1       8.870  -2.284   5.396  0.00  0.00    +0.111 A 
ATOM     11  C   UNL     1       8.766  -0.927   5.157  0.00  0.00    +0.020 A 
ATOM     12  C   UNL     1       8.524  -0.486   3.865  0.00  0.00    +0.008 A 
ENDBRANCH   3   7
TORSDOF 1
ENDMDL
MODEL 5
REMARK VINA RESULT:    -2.605      1.893      3.005
REMARK INTER + INTRA:          -2.978
REMARK INTER:                  -2.724
REMARK INTRA:                  -0.254
REMARK UNBOUND:                -0.221
REMARK  Name = Nicotine.pdb
REMARK  2 active torsions:
REMARK  status: ('A' for Active; 'I' for Inactive)
REMARK    1  A    between atoms: C_3  and  C_6
REMARK    2  A    between atoms: N_4  and  C_12
REMARK                            x       y       z     vdW  Elec       q    Type
REMARK                         _______ _______ _______ _____ _____    ______ ____
ROOT
ATOM      1  C   UNL     1       7.787   0.033   0.118  0.00  0.00    +0.017 C 
ATOM      2  C   UNL     1       8.715  -0.021   1.360  0.00  0.00    +0.025 C 
ATOM      3  C   UNL     1       8.690  -1.515   1.747  0.00  0.00    +0.088 C 
ATOM      4  N   UNL     1       7.459  -2.093   1.178  0.00  0.00    -0.298 NA
ATOM      5  C   UNL     1       6.714  -1.023   0.482  0.00  0.00    +0.085 C 
ATOM      6  C   UNL     1       7.770  -3.199   0.264  0.00  0.00    +0.105 C 
ENDROOT
BRANCH   3   7
ATOM      7  C   UNL     1       8.678  -1.656   3.247  0.00  0.00    -0.012 A 
ATOM      8  C   UNL     1       8.920  -2.883   3.836  0.00  0.00    +0.115 A 
ATOM      9  N   UNL     1       8.911  -3.015   5.148  0.00  0.00    -0.263 NA
ATOM     10  C   UNL     1       8.674  -1.992   5.946  0.00  0.00    +0.111 A 
ATOM     11  C   UNL     1       8.425  -0.734   5.430  0.00  0.00    +0.020 A 
ATOM     12  C   UNL     1       8.431  -0.556   4.055  0.00  0.00    +0.008 A 
ENDBRANCH   3   7
TORSDOF 1
ENDMDL
MODEL 6
REMARK VINA RESULT:    -2.593      1.137      1.809
REMARK INTER + INTRA:          -2.965
REMARK INTER:                  -2.712
REMARK INTRA:                  -0.253
REMARK UNBOUND:                -0.221
REMARK  Name = Nicotine.pdb
REMARK  2 active torsions:
REMARK  status: ('A' for Active; 'I' for Inactive)
REMARK    1  A    between atoms: C_3  and  C_6
REMARK    2  A    between atoms: N_4  and  C_12
REMARK                            x       y       z     vdW  Elec       q    Type
REMARK                         _______ _______ _______ _____ _____    ______ ____
ROOT
ATOM      1  C   UNL     1       8.459  -5.127   0.201  0.00  0.00    +0.017 C 
ATOM      2  C   UNL     1       7.715  -4.265   1.254  0.00  0.00    +0.025 C 
ATOM      3  C   UNL     1       8.342  -2.867   1.064  0.00  0.00    +0.088 C 
ATOM      4  N   UNL     1       9.657  -3.061   0.426  0.00  0.00    -0.298 NA
ATOM      5  C   UNL     1       9.880  -4.511   0.238  0.00  0.00    +0.085 C 
ATOM      6  C   UNL     1       9.732  -2.346  -0.855  0.00  0.00    +0.105 C 
ENDROOT
BRANCH   3   7
ATOM      7  C   UNL     1       8.514  -2.196   2.402  0.00  0.00    -0.012 A 
ATOM      8  C   UNL     1       8.378  -0.825   2.519  0.00  0.00    +0.115 A 
ATOM      9  N   UNL     1       8.527  -0.230   3.686  0.00  0.00    -0.263 NA
ATOM     10  C   UNL     1       8.809  -0.909   4.780  0.00  0.00    +0.111 A 
ATOM     11  C   UNL     1       8.959  -2.283   4.740  0.00  0.00    +0.020 A 
ATOM     12  C   UNL     1       8.805  -2.945   3.532  0.00  0.00    +0.008 A 
ENDBRANCH   3   7
TORSDOF 1
ENDMDL
MODEL 7
REMARK VINA RESULT:    -2.552      2.062      4.405
REMARK INTER + INTRA:          -2.922
REMARK INTER:                  -2.707
REMARK INTRA:                  -0.215
REMARK UNBOUND:                -0.221
REMARK  Name = Nicotine.pdb
REMARK  2 active torsions:
REMARK  status: ('A' for Active; 'I' for Inactive)
REMARK    1  A    between atoms: C_3  and  C_6
REMARK    2  A    between atoms: N_4  and  C_12
REMARK                            x       y       z     vdW  Elec       q    Type
REMARK                         _______ _______ _______ _____ _____    ______ ____
ROOT
ATOM      1  C   UNL     1       8.192  -3.302   6.018  0.00  0.00    +0.017 C 
ATOM      2  C   UNL     1       8.639  -3.250   4.533  0.00  0.00    +0.025 C 
ATOM      3  C   UNL     1       8.811  -1.738   4.275  0.00  0.00    +0.088 C 
ATOM      4  N   UNL     1       7.999  -1.028   5.279  0.00  0.00    -0.298 NA
ATOM      5  C   UNL     1       7.316  -2.029   6.126  0.00  0.00    +0.085 C 
ATOM      6  C   UNL     1       8.831  -0.131   6.092  0.00  0.00    +0.105 C 
ENDROOT
BRANCH   3   7
ATOM      7  C   UNL     1       8.330  -1.396   2.889  0.00  0.00    -0.012 A 
ATOM      8  C   UNL     1       7.540  -2.284   2.184  0.00  0.00    +0.115 A 
ATOM      9  N   UNL     1       7.114  -1.992   0.971  0.00  0.00    -0.263 NA
ATOM     10  C   UNL     1       7.420  -0.852   0.384  0.00  0.00    +0.111 A 
ATOM     11  C   UNL     1       8.206   0.086   1.027  0.00  0.00    +0.020 A 
ATOM     12  C   UNL     1       8.668  -0.184   2.306  0.00  0.00    +0.008 A 
ENDBRANCH   3   7
TORSDOF 1
ENDMDL
MODEL 8
REMARK VINA RESULT:    -2.541      1.023      1.947
REMARK INTER + INTRA:          -2.910
REMARK INTER:                  -2.710
REMARK INTRA:                  -0.200
REMARK UNBOUND:                -0.221
REMARK  Name = Nicotine.pdb
REMARK  2 active torsions:
REMARK  status: ('A' for Active; 'I' for Inactive)
REMARK    1  A    between atoms: C_3  and  C_6
REMARK    2  A    between atoms: N_4  and  C_12
REMARK                            x       y       z     vdW  Elec       q    Type
REMARK                         _______ _______ _______ _____ _____    ______ ____
ROOT
ATOM      1  C   UNL     1       7.558  -5.287   1.267  0.00  0.00    +0.017 C 
ATOM      2  C   UNL     1       7.411  -3.777   1.591  0.00  0.00    +0.025 C 
ATOM      3  C   UNL     1       8.826  -3.385   2.068  0.00  0.00    +0.088 C 
ATOM      4  N   UNL     1       9.493  -4.620   2.517  0.00  0.00    -0.298 NA
ATOM      5  C   UNL     1       8.550  -5.748   2.364  0.00  0.00    +0.085 C 
ATOM      6  C   UNL     1      10.727  -4.858   1.758  0.00  0.00    +0.105 C 
ENDROOT
BRANCH   3   7
ATOM      7  C   UNL     1       8.729  -2.408   3.211  0.00  0.00    -0.012 A 
ATOM      8  C   UNL     1       8.537  -1.061   2.965  0.00  0.00    +0.115 A 
ATOM      9  N   UNL     1       8.451  -0.200   3.960  0.00  0.00    -0.263 NA
ATOM     10  C   UNL     1       8.545  -0.582   5.218  0.00  0.00    +0.111 A 
ATOM     11  C   UNL     1       8.737  -1.912   5.541  0.00  0.00    +0.020 A 
ATOM     12  C   UNL     1       8.826  -2.848   4.522  0.00  0.00    +0.008 A 
ENDBRANCH   3   7
TORSDOF 1
ENDMDL
MODEL 9
REMARK VINA RESULT:    -2.530      1.973      3.401
REMARK INTER + INTRA:          -2.899
REMARK INTER:                  -2.664
REMARK INTRA:                  -0.235
REMARK UNBOUND:                -0.221
REMARK  Name = Nicotine.pdb
REMARK  2 active torsions:
REMARK  status: ('A' for Active; 'I' for Inactive)
REMARK    1  A    between atoms: C_3  and  C_6
REMARK    2  A    between atoms: N_4  and  C_12
REMARK                            x       y       z     vdW  Elec       q    Type
REMARK                         _______ _______ _______ _____ _____    ______ ____
ROOT
ATOM      1  C   UNL     1       8.008  -5.900   3.912  0.00  0.00    +0.017 C 
ATOM      2  C   UNL     1       8.860  -4.892   3.096  0.00  0.00    +0.025 C 
ATOM      3  C   UNL     1       8.816  -3.617   3.964  0.00  0.00    +0.088 C 
ATOM      4  N   UNL     1       7.622  -3.714   4.823  0.00  0.00    -0.298 NA
ATOM      5  C   UNL     1       6.917  -4.975   4.509  0.00  0.00    +0.085 C 
ATOM      6  C   UNL     1       7.990  -3.656   6.244  0.00  0.00    +0.105 C 
ENDROOT
BRANCH   3   7
ATOM      7  C   UNL     1       8.715  -2.400   3.081  0.00  0.00    -0.012 A 
ATOM      8  C   UNL     1       8.591  -1.141   3.638  0.00  0.00    +0.115 A 
ATOM      9  N   UNL     1       8.502  -0.070   2.873  0.00  0.00    -0.263 NA
ATOM     10  C   UNL     1       8.529  -0.155   1.557  0.00  0.00    +0.111 A 
ATOM     11  C   UNL     1       8.652  -1.380   0.929  0.00  0.00    +0.020 A 
ATOM     12  C   UNL     1       8.752  -2.527   1.701  0.00  0.00    +0.008 A 
ENDBRANCH   3   7
TORSDOF 1
ENDMDL
MODEL 10
REMARK VINA RESULT:    -2.451      1.262      4.429
REMARK INTER + INTRA:          -2.815
REMARK INTER:                  -2.611
REMARK INTRA:                  -0.204
REMARK UNBOUND:                -0.221
REMARK  Name = Nicotine.pdb
REMARK  2 active torsions:
REMARK  status: ('A' for Active; 'I' for Inactive)
REMARK    1  A    between atoms: C_3  and  C_6
REMARK    2  A    between atoms: N_4  and  C_12
REMARK                            x       y       z     vdW  Elec       q    Type
REMARK                         _______ _______ _______ _____ _____    ______ ____
ROOT
ATOM      1  C   UNL     1       8.451  -0.466   5.509  0.00  0.00    +0.017 C 
ATOM      2  C   UNL     1       8.655  -0.879   4.027  0.00  0.00    +0.025 C 
ATOM      3  C   UNL     1       8.074  -2.308   3.983  0.00  0.00    +0.088 C 
ATOM      4  N   UNL     1       8.100  -2.834   5.359  0.00  0.00    -0.298 NA
ATOM      5  C   UNL     1       8.692  -1.808   6.244  0.00  0.00    +0.085 C 
ATOM      6  C   UNL     1       6.752  -3.203   5.809  0.00  0.00    +0.105 C 
ENDROOT
BRANCH   3   7
ATOM      7  C   UNL     1       8.917  -3.177   3.085  0.00  0.00    -0.012 A 
ATOM      8  C   UNL     1       8.795  -3.087   1.711  0.00  0.00    +0.115 A 
ATOM      9  N   UNL     1       9.529  -3.843   0.918  0.00  0.00    -0.263 NA
ATOM     10  C   UNL     1      10.401  -4.708   1.397  0.00  0.00    +0.111 A 
ATOM     11  C   UNL     1      10.578  -4.853   2.761  0.00  0.00    +0.020 A 
ATOM     12  C   UNL     1       9.828  -4.071   3.625  0.00  0.00    +0.008 A 
ENDBRANCH   3   7
TORSDOF 1
ENDMDL
