MODEL 1
REMARK VINA RESULT:    -4.253      0.000      0.000
REMARK INTER + INTRA:          -4.743
REMARK INTER:                  -4.501
REMARK INTRA:                  -0.242
REMARK UNBOUND:                -0.242
REMARK  Name = Nicotine.pdb
REMARK  2 active torsions:
REMARK  status: ('A' for Active; 'I' for Inactive)
REMARK    1  A    between atoms: C_3  and  C_6
REMARK    2  A    between atoms: N_4  and  C_12
REMARK                            x       y       z     vdW  Elec       q    Type
REMARK                         _______ _______ _______ _____ _____    ______ ____
ROOT
ATOM      1  C   UNL     1       0.534   1.248  -4.839  0.00  0.00    +0.017 C 
ATOM      2  C   UNL     1      -0.373   2.396  -4.324  0.00  0.00    +0.025 C 
ATOM      3  C   UNL     1       0.317   3.660  -4.880  0.00  0.00    +0.088 C 
ATOM      4  N   UNL     1       1.723   3.308  -5.147  0.00  0.00    -0.298 NA
ATOM      5  C   UNL     1       1.938   1.898  -4.759  0.00  0.00    +0.085 C 
ATOM      6  C   UNL     1       2.061   3.523  -6.560  0.00  0.00    +0.105 C 
ENDROOT
BRANCH   3   7
ATOM      7  C   UNL     1       0.248   4.770  -3.864  0.00  0.00    -0.012 A 
ATOM      8  C   UNL     1      -0.102   6.050  -4.250  0.00  0.00    +0.115 A 
ATOM      9  N   UNL     1      -0.165   7.028  -3.368  0.00  0.00    -0.263 NA
ATOM     10  C   UNL     1       0.102   6.828  -2.092  0.00  0.00    +0.111 A 
ATOM     11  C   UNL     1       0.459   5.574  -1.632  0.00  0.00    +0.020 A 
ATOM     12  C   UNL     1       0.530   4.521  -2.530  0.00  0.00    +0.008 A 
ENDBRANCH   3   7
TORSDOF 1
ENDMDL
MODEL 2
REMARK VINA RESULT:    -4.110      2.322      3.524
REMARK INTER + INTRA:          -4.592
REMARK INTER:                  -4.376
REMARK INTRA:                  -0.217
REMARK UNBOUND:                -0.242
REMARK  Name = Nicotine.pdb
REMARK  2 active torsions:
REMARK  status: ('A' for Active; 'I' for Inactive)
REMARK    1  A    between atoms: C_3  and  C_6
REMARK    2  A    between atoms: N_4  and  C_12
REMARK                            x       y       z     vdW  Elec       q    Type
REMARK                         _______ _______ _______ _____ _____    ______ ____
ROOT
ATOM      1  C   UNL     1      -2.904   6.159  -6.369  0.00  0.00    +0.017 C 
ATOM      2  C   UNL     1      -1.756   6.549  -5.401  0.00  0.00    +0.025 C 
ATOM      3  C   UNL     1      -0.810   5.331  -5.475  0.00  0.00    +0.088 C 
ATOM      4  N   UNL     1      -1.610   4.185  -5.942  0.00  0.00    -0.298 NA
ATOM      5  C   UNL     1      -3.006   4.631  -6.134  0.00  0.00    +0.085 C 
ATOM      6  C   UNL     1      -1.059   3.629  -7.185  0.00  0.00    +0.105 C 
ENDROOT
BRANCH   3   7
ATOM      7  C   UNL     1      -0.241   5.040  -4.111  0.00  0.00    -0.012 A 
ATOM      8  C   UNL     1      -0.047   3.735  -3.699  0.00  0.00    +0.115 A 
ATOM      9  N   UNL     1       0.451   3.471  -2.506  0.00  0.00    -0.263 NA
ATOM     10  C   UNL     1       0.781   4.431  -1.665  0.00  0.00    +0.111 A 
ATOM     11  C   UNL     1       0.616   5.760  -2.008  0.00  0.00    +0.020 A 
ATOM     12  C   UNL     1       0.101   6.076  -3.256  0.00  0.00    +0.008 A 
ENDBRANCH   3   7
TORSDOF 1
ENDMDL
MODEL 3
REMARK VINA RESULT:    -4.054      2.178      3.191
REMARK INTER + INTRA:          -4.533
REMARK INTER:                  -4.290
REMARK INTRA:                  -0.243
REMARK UNBOUND:                -0.242
REMARK  Name = Nicotine.pdb
REMARK  2 active torsions:
REMARK  status: ('A' for Active; 'I' for Inactive)
REMARK    1  A    between atoms: C_3  and  C_6
REMARK    2  A    between atoms: N_4  and  C_12
REMARK                            x       y       z     vdW  Elec       q    Type
REMARK                         _______ _______ _______ _____ _____    ______ ____
ROOT
ATOM      1  C   UNL     1       0.491   1.351  -4.775  0.00  0.00    +0.017 C 
ATOM      2  C   UNL     1       0.138   2.534  -5.714  0.00  0.00    +0.025 C 
ATOM      3  C   UNL     1       0.038   3.730  -4.743  0.00  0.00    +0.088 C 
ATOM      4  N   UNL     1      -0.224   3.182  -3.400  0.00  0.00    -0.298 NA
ATOM      5  C   UNL     1      -0.316   1.710  -3.502  0.00  0.00    +0.085 C 
ATOM      6  C   UNL     1       0.827   3.580  -2.454  0.00  0.00    +0.105 C 
ENDROOT
BRANCH   3   7
ATOM      7  C   UNL     1      -1.092   4.635  -5.158  0.00  0.00    -0.012 A 
ATOM      8  C   UNL     1      -0.919   6.006  -5.176  0.00  0.00    +0.115 A 
ATOM      9  N   UNL     1      -1.904   6.806  -5.538  0.00  0.00    -0.263 NA
ATOM     10  C   UNL     1      -3.083   6.336  -5.895  0.00  0.00    +0.111 A 
ATOM     11  C   UNL     1      -3.330   4.976  -5.902  0.00  0.00    +0.020 A 
ATOM     12  C   UNL     1      -2.317   4.104  -5.533  0.00  0.00    +0.008 A 
ENDBRANCH   3   7
TORSDOF 1
ENDMDL
MODEL 4
REMARK VINA RESULT:    -3.854      1.680      4.743
REMARK INTER + INTRA:          -4.322
REMARK INTER:                  -4.069
REMARK INTRA:                  -0.253
REMARK UNBOUND:                -0.242
REMARK  Name = Nicotine.pdb
REMARK  2 active torsions:
REMARK  status: ('A' for Active; 'I' for Inactive)
REMARK    1  A    between atoms: C_3  and  C_6
REMARK    2  A    between atoms: N_4  and  C_12
REMARK                            x       y       z     vdW  Elec       q    Type
REMARK                         _______ _______ _______ _____ _____    ______ ____
ROOT
ATOM      1  C   UNL     1      -1.452   6.156  -5.222  0.00  0.00    +0.017 C 
ATOM      2  C   UNL     1      -1.650   4.626  -5.383  0.00  0.00    +0.025 C 
ATOM      3  C   UNL     1      -0.639   4.037  -4.377  0.00  0.00    +0.088 C 
ATOM      4  N   UNL     1       0.389   5.066  -4.137  0.00  0.00    -0.298 NA
ATOM      5  C   UNL     1       0.073   6.249  -4.965  0.00  0.00    +0.085 C 
ATOM      6  C   UNL     1       0.455   5.423  -2.713  0.00  0.00    +0.105 C 
ENDROOT
BRANCH   3   7
ATOM      7  C   UNL     1      -0.002   2.800  -4.954  0.00  0.00    -0.012 A 
ATOM      8  C   UNL     1       0.336   1.740  -4.134  0.00  0.00    +0.115 A 
ATOM      9  N   UNL     1       0.894   0.653  -4.631  0.00  0.00    -0.263 NA
ATOM     10  C   UNL     1       1.151   0.533  -5.918  0.00  0.00    +0.111 A 
ATOM     11  C   UNL     1       0.840   1.552  -6.800  0.00  0.00    +0.020 A 
ATOM     12  C   UNL     1       0.248   2.707  -6.315  0.00  0.00    +0.008 A 
ENDBRANCH   3   7
TORSDOF 1
ENDMDL
MODEL 5
REMARK VINA RESULT:    -3.557      1.584      4.696
REMARK INTER + INTRA:          -4.007
REMARK INTER:                  -3.826
REMARK INTRA:                  -0.181
REMARK UNBOUND:                -0.242
REMARK  Name = Nicotine.pdb
REMARK  2 active torsions:
REMARK  status: ('A' for Active; 'I' for Inactive)
REMARK    1  A    between atoms: C_3  and  C_6
REMARK    2  A    between atoms: N_4  and  C_12
REMARK                            x       y       z     vdW  Elec       q    Type
REMARK                         _______ _______ _______ _____ _____    ______ ____
ROOT
ATOM      1  C   UNL     1       0.424   5.932  -2.753  0.00  0.00    +0.017 C 
ATOM      2  C   UNL     1       0.095   4.981  -3.934  0.00  0.00    +0.025 C 
ATOM      3  C   UNL     1       0.261   3.580  -3.307  0.00  0.00    +0.088 C 
ATOM      4  N   UNL     1       1.139   3.728  -2.132  0.00  0.00    -0.298 NA
ATOM      5  C   UNL     1       1.540   5.147  -2.020  0.00  0.00    +0.085 C 
ATOM      6  C   UNL     1       0.464   3.274  -0.909  0.00  0.00    +0.105 C 
ENDROOT
BRANCH   3   7
ATOM      7  C   UNL     1       0.893   2.644  -4.304  0.00  0.00    -0.012 A 
ATOM      8  C   UNL     1       2.139   2.922  -4.833  0.00  0.00    +0.115 A 
ATOM      9  N   UNL     1       2.699   2.108  -5.706  0.00  0.00    -0.263 NA
ATOM     10  C   UNL     1       2.099   1.005  -6.109  0.00  0.00    +0.111 A 
ATOM     11  C   UNL     1       0.851   0.661  -5.624  0.00  0.00    +0.020 A 
ATOM     12  C   UNL     1       0.234   1.490  -4.700  0.00  0.00    +0.008 A 
ENDBRANCH   3   7
TORSDOF 1
ENDMDL
MODEL 6
REMARK VINA RESULT:    -3.417      2.514      3.604
REMARK INTER + INTRA:          -3.859
REMARK INTER:                  -3.643
REMARK INTRA:                  -0.216
REMARK UNBOUND:                -0.242
REMARK  Name = Nicotine.pdb
REMARK  2 active torsions:
REMARK  status: ('A' for Active; 'I' for Inactive)
REMARK    1  A    between atoms: C_3  and  C_6
REMARK    2  A    between atoms: N_4  and  C_12
REMARK                            x       y       z     vdW  Elec       q    Type
REMARK                         _______ _______ _______ _____ _____    ______ ____
ROOT
ATOM      1  C   UNL     1       1.780   3.244  -4.049  0.00  0.00    +0.017 C 
ATOM      2  C   UNL     1       0.859   4.491  -4.107  0.00  0.00    +0.025 C 
ATOM      3  C   UNL     1      -0.557   3.879  -4.071  0.00  0.00    +0.088 C 
ATOM      4  N   UNL     1      -0.443   2.485  -4.536  0.00  0.00    -0.298 NA
ATOM      5  C   UNL     1       0.970   2.218  -4.880  0.00  0.00    +0.085 C 
ATOM      6  C   UNL     1      -0.922   1.547  -3.513  0.00  0.00    +0.105 C 
ENDROOT
BRANCH   3   7
ATOM      7  C   UNL     1      -1.474   4.651  -4.984  0.00  0.00    -0.012 A 
ATOM      8  C   UNL     1      -2.595   4.049  -5.522  0.00  0.00    +0.115 A 
ATOM      9  N   UNL     1      -3.402   4.718  -6.322  0.00  0.00    -0.263 NA
ATOM     10  C   UNL     1      -3.176   5.977  -6.640  0.00  0.00    +0.111 A 
ATOM     11  C   UNL     1      -2.075   6.646  -6.139  0.00  0.00    +0.020 A 
ATOM     12  C   UNL     1      -1.206   5.977  -5.291  0.00  0.00    +0.008 A 
ENDBRANCH   3   7
TORSDOF 1
ENDMDL
MODEL 7
REMARK VINA RESULT:    -3.412      2.279      3.034
REMARK INTER + INTRA:          -3.853
REMARK INTER:                  -3.657
REMARK INTRA:                  -0.196
REMARK UNBOUND:                -0.242
REMARK  Name = Nicotine.pdb
REMARK  2 active torsions:
REMARK  status: ('A' for Active; 'I' for Inactive)
REMARK    1  A    between atoms: C_3  and  C_6
REMARK    2  A    between atoms: N_4  and  C_12
REMARK                            x       y       z     vdW  Elec       q    Type
REMARK                         _______ _______ _______ _____ _____    ______ ____
ROOT
ATOM      1  C   UNL     1       0.065   2.068  -3.403  0.00  0.00    +0.017 C 
ATOM      2  C   UNL     1      -1.161   2.572  -4.209  0.00  0.00    +0.025 C 
ATOM      3  C   UNL     1      -0.520   3.448  -5.306  0.00  0.00    +0.088 C 
ATOM      4  N   UNL     1       0.809   3.857  -4.817  0.00  0.00    -0.298 NA
ATOM      5  C   UNL     1       1.006   3.298  -3.463  0.00  0.00    +0.085 C 
ATOM      6  C   UNL     1       1.868   3.410  -5.731  0.00  0.00    +0.105 C 
ENDROOT
BRANCH   3   7
ATOM      7  C   UNL     1      -1.373   4.664  -5.555  0.00  0.00    -0.012 A 
ATOM      8  C   UNL     1      -2.749   4.550  -5.629  0.00  0.00    +0.115 A 
ATOM      9  N   UNL     1      -3.503   5.609  -5.847  0.00  0.00    -0.263 NA
ATOM     10  C   UNL     1      -2.982   6.811  -6.002  0.00  0.00    +0.111 A 
ATOM     11  C   UNL     1      -1.615   7.003  -5.941  0.00  0.00    +0.020 A 
ATOM     12  C   UNL     1      -0.790   5.913  -5.708  0.00  0.00    +0.008 A 
ENDBRANCH   3   7
TORSDOF 1
ENDMDL
MODEL 8
REMARK VINA RESULT:    -3.378      1.836      5.050
REMARK INTER + INTRA:          -3.817
REMARK INTER:                  -3.604
REMARK INTRA:                  -0.214
REMARK UNBOUND:                -0.242
REMARK  Name = Nicotine.pdb
REMARK  2 active torsions:
REMARK  status: ('A' for Active; 'I' for Inactive)
REMARK    1  A    between atoms: C_3  and  C_6
REMARK    2  A    between atoms: N_4  and  C_12
REMARK                            x       y       z     vdW  Elec       q    Type
REMARK                         _______ _______ _______ _____ _____    ______ ____
ROOT
ATOM      1  C   UNL     1       0.818   4.316  -2.460  0.00  0.00    +0.017 C 
ATOM      2  C   UNL     1       1.911   3.284  -2.845  0.00  0.00    +0.025 C 
ATOM      3  C   UNL     1       1.812   3.232  -4.385  0.00  0.00    +0.088 C 
ATOM      4  N   UNL     1       0.465   3.703  -4.752  0.00  0.00    -0.298 NA
ATOM      5  C   UNL     1      -0.279   4.018  -3.514  0.00  0.00    +0.085 C 
ATOM      6  C   UNL     1       0.538   4.874  -5.635  0.00  0.00    +0.105 C 
ENDROOT
BRANCH   3   7
ATOM      7  C   UNL     1       2.010   1.817  -4.863  0.00  0.00    -0.012 A 
ATOM      8  C   UNL     1       3.200   1.157  -4.620  0.00  0.00    +0.115 A 
ATOM      9  N   UNL     1       3.382  -0.081  -5.035  0.00  0.00    -0.263 NA
ATOM     10  C   UNL     1       2.446  -0.736  -5.694  0.00  0.00    +0.111 A 
ATOM     11  C   UNL     1       1.230  -0.141  -5.974  0.00  0.00    +0.020 A 
ATOM     12  C   UNL     1       1.001   1.159  -5.548  0.00  0.00    +0.008 A 
ENDBRANCH   3   7
TORSDOF 1
ENDMDL
MODEL 9
REMARK VINA RESULT:    -3.170      2.517      4.277
REMARK INTER + INTRA:          -3.597
REMARK INTER:                  -3.393
REMARK INTRA:                  -0.204
REMARK UNBOUND:                -0.242
REMARK  Name = Nicotine.pdb
REMARK  2 active torsions:
REMARK  status: ('A' for Active; 'I' for Inactive)
REMARK    1  A    between atoms: C_3  and  C_6
REMARK    2  A    between atoms: N_4  and  C_12
REMARK                            x       y       z     vdW  Elec       q    Type
REMARK                         _______ _______ _______ _____ _____    ______ ____
ROOT
ATOM      1  C   UNL     1      -0.653   3.354  -3.907  0.00  0.00    +0.017 C 
ATOM      2  C   UNL     1       0.817   3.843  -3.811  0.00  0.00    +0.025 C 
ATOM      3  C   UNL     1       1.608   2.700  -4.482  0.00  0.00    +0.088 C 
ATOM      4  N   UNL     1       0.769   1.490  -4.414  0.00  0.00    -0.298 NA
ATOM      5  C   UNL     1      -0.487   1.826  -3.711  0.00  0.00    +0.085 C 
ATOM      6  C   UNL     1       0.497   0.960  -5.756  0.00  0.00    +0.105 C 
ENDROOT
BRANCH   3   7
ATOM      7  C   UNL     1       2.902   2.471  -3.746  0.00  0.00    -0.012 A 
ATOM      8  C   UNL     1       3.212   3.222  -2.628  0.00  0.00    +0.115 A 
ATOM      9  N   UNL     1       4.343   3.028  -1.977  0.00  0.00    -0.263 NA
ATOM     10  C   UNL     1       5.217   2.119  -2.363  0.00  0.00    +0.111 A 
ATOM     11  C   UNL     1       4.975   1.330  -3.472  0.00  0.00    +0.020 A 
ATOM     12  C   UNL     1       3.794   1.501  -4.178  0.00  0.00    +0.008 A 
ENDBRANCH   3   7
TORSDOF 1
ENDMDL
