MODEL 1
REMARK VINA RESULT:    -3.172      0.000      0.000
REMARK INTER + INTRA:          -3.576
REMARK INTER:                  -3.358
REMARK INTRA:                  -0.218
REMARK UNBOUND:                -0.218
REMARK  Name = Nicotine.pdb
REMARK  2 active torsions:
REMARK  status: ('A' for Active; 'I' for Inactive)
REMARK    1  A    between atoms: C_3  and  C_6
REMARK    2  A    between atoms: N_4  and  C_12
REMARK                            x       y       z     vdW  Elec       q    Type
REMARK                         _______ _______ _______ _____ _____    ______ ____
ROOT
ATOM      1  C   UNL     1       1.571   6.917  -2.249  0.00  0.00    +0.017 C 
ATOM      2  C   UNL     1       0.211   7.028  -1.510  0.00  0.00    +0.025 C 
ATOM      3  C   UNL     1       0.346   5.990  -0.376  0.00  0.00    +0.088 C 
ATOM      4  N   UNL     1       1.378   5.022  -0.790  0.00  0.00    -0.298 NA
ATOM      5  C   UNL     1       1.866   5.400  -2.134  0.00  0.00    +0.085 C 
ATOM      6  C   UNL     1       2.481   4.981   0.179  0.00  0.00    +0.105 C 
ENDROOT
BRANCH   3   7
ATOM      7  C   UNL     1      -0.968   5.282  -0.170  0.00  0.00    -0.012 A 
ATOM      8  C   UNL     1      -1.083   3.930  -0.431  0.00  0.00    +0.115 A 
ATOM      9  N   UNL     1      -2.229   3.303  -0.252  0.00  0.00    -0.263 NA
ATOM     10  C   UNL     1      -3.304   3.934   0.178  0.00  0.00    +0.111 A 
ATOM     11  C   UNL     1      -3.265   5.286   0.460  0.00  0.00    +0.020 A 
ATOM     12  C   UNL     1      -2.076   5.978   0.290  0.00  0.00    +0.008 A 
ENDBRANCH   3   7
TORSDOF 1
ENDMDL
MODEL 2
REMARK VINA RESULT:    -2.674      1.031      1.845
REMARK INTER + INTRA:          -3.048
REMARK INTER:                  -2.845
REMARK INTRA:                  -0.203
REMARK UNBOUND:                -0.218
REMARK  Name = Nicotine.pdb
REMARK  2 active torsions:
REMARK  status: ('A' for Active; 'I' for Inactive)
REMARK    1  A    between atoms: C_3  and  C_6
REMARK    2  A    between atoms: N_4  and  C_12
REMARK                            x       y       z     vdW  Elec       q    Type
REMARK                         _______ _______ _______ _____ _____    ______ ____
ROOT
ATOM      1  C   UNL     1       2.251   6.147   1.000  0.00  0.00    +0.017 C 
ATOM      2  C   UNL     1       1.099   5.157   1.315  0.00  0.00    +0.025 C 
ATOM      3  C   UNL     1       0.523   4.840  -0.082  0.00  0.00    +0.088 C 
ATOM      4  N   UNL     1       0.902   5.951  -0.973  0.00  0.00    -0.298 NA
ATOM      5  C   UNL     1       1.660   6.947  -0.187  0.00  0.00    +0.085 C 
ATOM      6  C   UNL     1       1.691   5.467  -2.113  0.00  0.00    +0.105 C 
ENDROOT
BRANCH   3   7
ATOM      7  C   UNL     1      -0.978   4.731  -0.005  0.00  0.00    -0.012 A 
ATOM      8  C   UNL     1      -1.601   3.513  -0.195  0.00  0.00    +0.115 A 
ATOM      9  N   UNL     1      -2.915   3.409  -0.129  0.00  0.00    -0.263 NA
ATOM     10  C   UNL     1      -3.681   4.453   0.119  0.00  0.00    +0.111 A 
ATOM     11  C   UNL     1      -3.128   5.704   0.320  0.00  0.00    +0.020 A 
ATOM     12  C   UNL     1      -1.751   5.851   0.264  0.00  0.00    +0.008 A 
ENDBRANCH   3   7
TORSDOF 1
ENDMDL
MODEL 3
REMARK VINA RESULT:    -2.629      1.706      4.697
REMARK INTER + INTRA:          -3.000
REMARK INTER:                  -2.744
REMARK INTRA:                  -0.256
REMARK UNBOUND:                -0.218
REMARK  Name = Nicotine.pdb
REMARK  2 active torsions:
REMARK  status: ('A' for Active; 'I' for Inactive)
REMARK    1  A    between atoms: C_3  and  C_6
REMARK    2  A    between atoms: N_4  and  C_12
REMARK                            x       y       z     vdW  Elec       q    Type
REMARK                         _______ _______ _______ _____ _____    ______ ____
ROOT
ATOM      1  C   UNL     1      -4.579   2.745   1.347  0.00  0.00    +0.017 C 
ATOM      2  C   UNL     1      -3.968   3.565   0.180  0.00  0.00    +0.025 C 
ATOM      3  C   UNL     1      -2.455   3.292   0.319  0.00  0.00    +0.088 C 
ATOM      4  N   UNL     1      -2.213   2.878   1.713  0.00  0.00    -0.298 NA
ATOM      5  C   UNL     1      -3.497   2.907   2.443  0.00  0.00    +0.085 C 
ATOM      6  C   UNL     1      -1.606   1.541   1.767  0.00  0.00    +0.105 C 
ENDROOT
BRANCH   3   7
ATOM      7  C   UNL     1      -1.678   4.546   0.013  0.00  0.00    -0.012 A 
ATOM      8  C   UNL     1      -0.378   4.467  -0.450  0.00  0.00    +0.115 A 
ATOM      9  N   UNL     1       0.309   5.559  -0.721  0.00  0.00    -0.263 NA
ATOM     10  C   UNL     1      -0.208   6.761  -0.562  0.00  0.00    +0.111 A 
ATOM     11  C   UNL     1      -1.503   6.919  -0.103  0.00  0.00    +0.020 A 
ATOM     12  C   UNL     1      -2.258   5.793   0.187  0.00  0.00    +0.008 A 
ENDBRANCH   3   7
TORSDOF 1
ENDMDL
MODEL 4
REMARK VINA RESULT:    -2.553      1.597      2.254
REMARK INTER + INTRA:          -2.920
REMARK INTER:                  -2.735
REMARK INTRA:                  -0.185
REMARK UNBOUND:                -0.218
REMARK  Name = Nicotine.pdb
REMARK  2 active torsions:
REMARK  status: ('A' for Active; 'I' for Inactive)
REMARK    1  A    between atoms: C_3  and  C_6
REMARK    2  A    between atoms: N_4  and  C_12
REMARK                            x       y       z     vdW  Elec       q    Type
REMARK                         _______ _______ _______ _____ _____    ______ ____
ROOT
ATOM      1  C   UNL     1       0.443   6.909  -0.658  0.00  0.00    +0.017 C 
ATOM      2  C   UNL     1      -0.979   6.952  -0.039  0.00  0.00    +0.025 C 
ATOM      3  C   UNL     1      -1.166   5.518   0.501  0.00  0.00    +0.088 C 
ATOM      4  N   UNL     1      -0.237   4.647  -0.242  0.00  0.00    -0.298 NA
ATOM      5  C   UNL     1       0.492   5.470  -1.230  0.00  0.00    +0.085 C 
ATOM      6  C   UNL     1       0.694   3.969   0.670  0.00  0.00    +0.105 C 
ENDROOT
BRANCH   3   7
ATOM      7  C   UNL     1      -2.585   5.066   0.276  0.00  0.00    -0.012 A 
ATOM      8  C   UNL     1      -3.587   5.992   0.052  0.00  0.00    +0.115 A 
ATOM      9  N   UNL     1      -4.832   5.605  -0.145  0.00  0.00    -0.263 NA
ATOM     10  C   UNL     1      -5.171   4.331  -0.137  0.00  0.00    +0.111 A 
ATOM     11  C   UNL     1      -4.224   3.347   0.080  0.00  0.00    +0.020 A 
ATOM     12  C   UNL     1      -2.903   3.716   0.286  0.00  0.00    +0.008 A 
ENDBRANCH   3   7
TORSDOF 1
ENDMDL
MODEL 5
REMARK VINA RESULT:    -2.414      1.771      4.550
REMARK INTER + INTRA:          -2.773
REMARK INTER:                  -2.600
REMARK INTRA:                  -0.174
REMARK UNBOUND:                -0.218
REMARK  Name = Nicotine.pdb
REMARK  2 active torsions:
REMARK  status: ('A' for Active; 'I' for Inactive)
REMARK    1  A    between atoms: C_3  and  C_6
REMARK    2  A    between atoms: N_4  and  C_12
REMARK                            x       y       z     vdW  Elec       q    Type
REMARK                         _______ _______ _______ _____ _____    ______ ____
ROOT
ATOM      1  C   UNL     1      -1.992   5.418   0.223  0.00  0.00    +0.017 C 
ATOM      2  C   UNL     1      -0.865   4.421  -0.150  0.00  0.00    +0.025 C 
ATOM      3  C   UNL     1       0.405   5.114   0.390  0.00  0.00    +0.088 C 
ATOM      4  N   UNL     1       0.103   6.552   0.502  0.00  0.00    -0.298 NA
ATOM      5  C   UNL     1      -1.280   6.781   0.033  0.00  0.00    +0.085 C 
ATOM      6  C   UNL     1       0.276   7.021   1.883  0.00  0.00    +0.105 C 
ENDROOT
BRANCH   3   7
ATOM      7  C   UNL     1       1.550   4.901  -0.565  0.00  0.00    -0.012 A 
ATOM      8  C   UNL     1       1.504   5.429  -1.841  0.00  0.00    +0.115 A 
ATOM      9  N   UNL     1       2.502   5.248  -2.683  0.00  0.00    -0.263 NA
ATOM     10  C   UNL     1       3.577   4.562  -2.347  0.00  0.00    +0.111 A 
ATOM     11  C   UNL     1       3.695   4.005  -1.087  0.00  0.00    +0.020 A 
ATOM     12  C   UNL     1       2.667   4.179  -0.173  0.00  0.00    +0.008 A 
ENDBRANCH   3   7
TORSDOF 1
ENDMDL
MODEL 6
REMARK VINA RESULT:    -2.414      1.332      4.534
REMARK INTER + INTRA:          -2.772
REMARK INTER:                  -2.571
REMARK INTRA:                  -0.201
REMARK UNBOUND:                -0.218
REMARK  Name = Nicotine.pdb
REMARK  2 active torsions:
REMARK  status: ('A' for Active; 'I' for Inactive)
REMARK    1  A    between atoms: C_3  and  C_6
REMARK    2  A    between atoms: N_4  and  C_12
REMARK                            x       y       z     vdW  Elec       q    Type
REMARK                         _______ _______ _______ _____ _____    ______ ____
ROOT
ATOM      1  C   UNL     1      -0.694   2.621   1.358  0.00  0.00    +0.017 C 
ATOM      2  C   UNL     1       0.476   3.630   1.211  0.00  0.00    +0.025 C 
ATOM      3  C   UNL     1      -0.189   4.833   0.510  0.00  0.00    +0.088 C 
ATOM      4  N   UNL     1      -1.393   4.329  -0.174  0.00  0.00    -0.298 NA
ATOM      5  C   UNL     1      -1.488   2.871   0.051  0.00  0.00    +0.085 C 
ATOM      6  C   UNL     1      -2.599   5.016   0.307  0.00  0.00    +0.105 C 
ENDROOT
BRANCH   3   7
ATOM      7  C   UNL     1       0.762   5.429  -0.496  0.00  0.00    -0.012 A 
ATOM      8  C   UNL     1       2.030   4.903  -0.657  0.00  0.00    +0.115 A 
ATOM      9  N   UNL     1       2.868   5.419  -1.536  0.00  0.00    -0.263 NA
ATOM     10  C   UNL     1       2.535   6.449  -2.289  0.00  0.00    +0.111 A 
ATOM     11  C   UNL     1       1.284   7.028  -2.184  0.00  0.00    +0.020 A 
ATOM     12  C   UNL     1       0.374   6.509  -1.275  0.00  0.00    +0.008 A 
ENDBRANCH   3   7
TORSDOF 1
ENDMDL
MODEL 7
REMARK VINA RESULT:    -2.389      2.274      3.904
REMARK INTER + INTRA:          -2.746
REMARK INTER:                  -2.545
REMARK INTRA:                  -0.201
REMARK UNBOUND:                -0.218
REMARK  Name = Nicotine.pdb
REMARK  2 active torsions:
REMARK  status: ('A' for Active; 'I' for Inactive)
REMARK    1  A    between atoms: C_3  and  C_6
REMARK    2  A    between atoms: N_4  and  C_12
REMARK                            x       y       z     vdW  Elec       q    Type
REMARK                         _______ _______ _______ _____ _____    ______ ____
ROOT
ATOM      1  C   UNL     1      -0.595   5.982  -0.306  0.00  0.00    +0.017 C 
ATOM      2  C   UNL     1      -0.722   4.438  -0.398  0.00  0.00    +0.025 C 
ATOM      3  C   UNL     1      -2.175   4.181   0.053  0.00  0.00    +0.088 C 
ATOM      4  N   UNL     1      -2.596   5.345   0.853  0.00  0.00    -0.298 NA
ATOM      5  C   UNL     1      -1.465   6.293   0.938  0.00  0.00    +0.085 C 
ATOM      6  C   UNL     1      -3.780   5.988   0.267  0.00  0.00    +0.105 C 
ENDROOT
BRANCH   3   7
ATOM      7  C   UNL     1      -2.238   2.931   0.891  0.00  0.00    -0.012 A 
ATOM      8  C   UNL     1      -1.094   2.196   1.138  0.00  0.00    +0.115 A 
ATOM      9  N   UNL     1      -1.141   1.101   1.871  0.00  0.00    -0.263 NA
ATOM     10  C   UNL     1      -2.270   0.663   2.393  0.00  0.00    +0.111 A 
ATOM     11  C   UNL     1      -3.455   1.346   2.188  0.00  0.00    +0.020 A 
ATOM     12  C   UNL     1      -3.444   2.505   1.428  0.00  0.00    +0.008 A 
ENDBRANCH   3   7
TORSDOF 1
ENDMDL
MODEL 8
REMARK VINA RESULT:    -2.372      1.725      4.938
REMARK INTER + INTRA:          -2.729
REMARK INTER:                  -2.510
REMARK INTRA:                  -0.219
REMARK UNBOUND:                -0.218
REMARK  Name = Nicotine.pdb
REMARK  2 active torsions:
REMARK  status: ('A' for Active; 'I' for Inactive)
REMARK    1  A    between atoms: C_3  and  C_6
REMARK    2  A    between atoms: N_4  and  C_12
REMARK                            x       y       z     vdW  Elec       q    Type
REMARK                         _______ _______ _______ _____ _____    ______ ____
ROOT
ATOM      1  C   UNL     1      -0.541   2.664   1.670  0.00  0.00    +0.017 C 
ATOM      2  C   UNL     1       0.836   3.340   1.437  0.00  0.00    +0.025 C 
ATOM      3  C   UNL     1       0.487   4.534   0.523  0.00  0.00    +0.088 C 
ATOM      4  N   UNL     1      -0.789   4.215  -0.143  0.00  0.00    -0.298 NA
ATOM      5  C   UNL     1      -1.229   2.874   0.297  0.00  0.00    +0.085 C 
ATOM      6  C   UNL     1      -1.808   5.229   0.158  0.00  0.00    +0.105 C 
ENDROOT
BRANCH   3   7
ATOM      7  C   UNL     1       1.570   4.725  -0.506  0.00  0.00    -0.012 A 
ATOM      8  C   UNL     1       1.330   5.472  -1.644  0.00  0.00    +0.115 A 
ATOM      9  N   UNL     1       2.272   5.645  -2.550  0.00  0.00    -0.263 NA
ATOM     10  C   UNL     1       3.472   5.117  -2.410  0.00  0.00    +0.111 A 
ATOM     11  C   UNL     1       3.787   4.358  -1.299  0.00  0.00    +0.020 A 
ATOM     12  C   UNL     1       2.823   4.159  -0.322  0.00  0.00    +0.008 A 
ENDBRANCH   3   7
TORSDOF 1
ENDMDL
MODEL 9
REMARK VINA RESULT:    -1.983      1.583      4.248
REMARK INTER + INTRA:          -2.317
REMARK INTER:                  -2.099
REMARK INTRA:                  -0.218
REMARK UNBOUND:                -0.218
REMARK  Name = Nicotine.pdb
REMARK  2 active torsions:
REMARK  status: ('A' for Active; 'I' for Inactive)
REMARK    1  A    between atoms: C_3  and  C_6
REMARK    2  A    between atoms: N_4  and  C_12
REMARK                            x       y       z     vdW  Elec       q    Type
REMARK                         _______ _______ _______ _____ _____    ______ ____
ROOT
ATOM      1  C   UNL     1      -2.323   7.028   0.338  0.00  0.00    +0.017 C 
ATOM      2  C   UNL     1      -0.981   6.615  -0.322  0.00  0.00    +0.025 C 
ATOM      3  C   UNL     1      -1.056   5.073  -0.323  0.00  0.00    +0.088 C 
ATOM      4  N   UNL     1      -2.015   4.681   0.726  0.00  0.00    -0.298 NA
ATOM      5  C   UNL     1      -2.515   5.905   1.388  0.00  0.00    +0.085 C 
ATOM      6  C   UNL     1      -3.121   3.897   0.161  0.00  0.00    +0.105 C 
ENDROOT
BRANCH   3   7
ATOM      7  C   UNL     1       0.302   4.494  -0.020  0.00  0.00    -0.012 A 
ATOM      8  C   UNL     1       0.430   3.431   0.854  0.00  0.00    +0.115 A 
ATOM      9  N   UNL     1       1.614   2.918   1.125  0.00  0.00    -0.263 NA
ATOM     10  C   UNL     1       2.716   3.394   0.579  0.00  0.00    +0.111 A 
ATOM     11  C   UNL     1       2.667   4.456  -0.305  0.00  0.00    +0.020 A 
ATOM     12  C   UNL     1       1.439   5.017  -0.617  0.00  0.00    +0.008 A 
ENDBRANCH   3   7
TORSDOF 1
ENDMDL
