MODEL 1
REMARK VINA RESULT:    -3.665      0.000      0.000
REMARK INTER + INTRA:          -4.135
REMARK INTER:                  -3.879
REMARK INTRA:                  -0.256
REMARK UNBOUND:                -0.256
REMARK  Name = Nicotine.pdb
REMARK  2 active torsions:
REMARK  status: ('A' for Active; 'I' for Inactive)
REMARK    1  A    between atoms: C_3  and  C_6
REMARK    2  A    between atoms: N_4  and  C_12
REMARK                            x       y       z     vdW  Elec       q    Type
REMARK                         _______ _______ _______ _____ _____    ______ ____
ROOT
ATOM      1  C   UNL     1       5.635   6.377   2.533  0.00  0.00    +0.017 C 
ATOM      2  C   UNL     1       4.855   5.563   1.467  0.00  0.00    +0.025 C 
ATOM      3  C   UNL     1       3.588   5.119   2.227  0.00  0.00    +0.088 C 
ATOM      4  N   UNL     1       3.904   5.163   3.666  0.00  0.00    -0.298 NA
ATOM      5  C   UNL     1       5.311   5.589   3.827  0.00  0.00    +0.085 C 
ATOM      6  C   UNL     1       2.994   6.071   4.378  0.00  0.00    +0.105 C 
ENDROOT
BRANCH   3   7
ATOM      7  C   UNL     1       3.215   3.715   1.826  0.00  0.00    -0.012 A 
ATOM      8  C   UNL     1       1.908   3.281   1.933  0.00  0.00    +0.115 A 
ATOM      9  N   UNL     1       1.573   2.054   1.584  0.00  0.00    -0.263 NA
ATOM     10  C   UNL     1       2.463   1.198   1.123  0.00  0.00    +0.111 A 
ATOM     11  C   UNL     1       3.790   1.561   0.987  0.00  0.00    +0.020 A 
ATOM     12  C   UNL     1       4.178   2.844   1.339  0.00  0.00    +0.008 A 
ENDBRANCH   3   7
TORSDOF 1
ENDMDL
MODEL 2
REMARK VINA RESULT:    -3.639      1.460      1.793
REMARK INTER + INTRA:          -4.107
REMARK INTER:                  -3.871
REMARK INTRA:                  -0.236
REMARK UNBOUND:                -0.256
REMARK  Name = Nicotine.pdb
REMARK  2 active torsions:
REMARK  status: ('A' for Active; 'I' for Inactive)
REMARK    1  A    between atoms: C_3  and  C_6
REMARK    2  A    between atoms: N_4  and  C_12
REMARK                            x       y       z     vdW  Elec       q    Type
REMARK                         _______ _______ _______ _____ _____    ______ ____
ROOT
ATOM      1  C   UNL     1       5.310   6.816   3.241  0.00  0.00    +0.017 C 
ATOM      2  C   UNL     1       5.318   5.914   1.979  0.00  0.00    +0.025 C 
ATOM      3  C   UNL     1       4.253   4.847   2.308  0.00  0.00    +0.088 C 
ATOM      4  N   UNL     1       4.113   4.808   3.775  0.00  0.00    -0.298 NA
ATOM      5  C   UNL     1       5.057   5.780   4.365  0.00  0.00    +0.085 C 
ATOM      6  C   UNL     1       2.732   5.101   4.181  0.00  0.00    +0.105 C 
ENDROOT
BRANCH   3   7
ATOM      7  C   UNL     1       4.701   3.501   1.799  0.00  0.00    -0.012 A 
ATOM      8  C   UNL     1       3.841   2.714   1.056  0.00  0.00    +0.115 A 
ATOM      9  N   UNL     1       4.225   1.535   0.606  0.00  0.00    -0.263 NA
ATOM     10  C   UNL     1       5.433   1.063   0.844  0.00  0.00    +0.111 A 
ATOM     11  C   UNL     1       6.347   1.794   1.579  0.00  0.00    +0.020 A 
ATOM     12  C   UNL     1       5.981   3.040   2.064  0.00  0.00    +0.008 A 
ENDBRANCH   3   7
TORSDOF 1
ENDMDL
MODEL 3
REMARK VINA RESULT:    -3.479      8.067     10.491
REMARK INTER + INTRA:          -3.938
REMARK INTER:                  -3.728
REMARK INTRA:                  -0.210
REMARK UNBOUND:                -0.256
REMARK  Name = Nicotine.pdb
REMARK  2 active torsions:
REMARK  status: ('A' for Active; 'I' for Inactive)
REMARK    1  A    between atoms: C_3  and  C_6
REMARK    2  A    between atoms: N_4  and  C_12
REMARK                            x       y       z     vdW  Elec       q    Type
REMARK                         _______ _______ _______ _____ _____    ______ ____
ROOT
ATOM      1  C   UNL     1      -1.992  -2.362  -6.865  0.00  0.00    +0.017 C 
ATOM      2  C   UNL     1      -0.679  -2.836  -6.189  0.00  0.00    +0.025 C 
ATOM      3  C   UNL     1      -0.598  -1.948  -4.928  0.00  0.00    +0.088 C 
ATOM      4  N   UNL     1      -1.417  -0.750  -5.184  0.00  0.00    -0.298 NA
ATOM      5  C   UNL     1      -1.976  -0.845  -6.550  0.00  0.00    +0.085 C 
ATOM      6  C   UNL     1      -2.485  -0.618  -4.185  0.00  0.00    +0.105 C 
ENDROOT
BRANCH   3   7
ATOM      7  C   UNL     1       0.833  -1.549  -4.674  0.00  0.00    -0.012 A 
ATOM      8  C   UNL     1       1.816  -1.845  -5.598  0.00  0.00    +0.115 A 
ATOM      9  N   UNL     1       3.071  -1.499  -5.383  0.00  0.00    -0.263 NA
ATOM     10  C   UNL     1       3.436  -0.862  -4.288  0.00  0.00    +0.111 A 
ATOM     11  C   UNL     1       2.507  -0.531  -3.319  0.00  0.00    +0.020 A 
ATOM     12  C   UNL     1       1.178  -0.875  -3.512  0.00  0.00    +0.008 A 
ENDBRANCH   3   7
TORSDOF 1
ENDMDL
MODEL 4
REMARK VINA RESULT:    -3.353      2.255      3.069
REMARK INTER + INTRA:          -3.805
REMARK INTER:                  -3.614
REMARK INTRA:                  -0.191
REMARK UNBOUND:                -0.256
REMARK  Name = Nicotine.pdb
REMARK  2 active torsions:
REMARK  status: ('A' for Active; 'I' for Inactive)
REMARK    1  A    between atoms: C_3  and  C_6
REMARK    2  A    between atoms: N_4  and  C_12
REMARK                            x       y       z     vdW  Elec       q    Type
REMARK                         _______ _______ _______ _____ _____    ______ ____
ROOT
ATOM      1  C   UNL     1       3.913   5.306   1.841  0.00  0.00    +0.017 C 
ATOM      2  C   UNL     1       3.662   3.812   1.506  0.00  0.00    +0.025 C 
ATOM      3  C   UNL     1       4.806   3.092   2.250  0.00  0.00    +0.088 C 
ATOM      4  N   UNL     1       5.879   4.080   2.463  0.00  0.00    -0.298 NA
ATOM      5  C   UNL     1       5.461   5.366   1.863  0.00  0.00    +0.085 C 
ATOM      6  C   UNL     1       6.176   4.237   3.892  0.00  0.00    +0.105 C 
ENDROOT
BRANCH   3   7
ATOM      7  C   UNL     1       5.320   1.947   1.416  0.00  0.00    -0.012 A 
ATOM      8  C   UNL     1       4.447   1.182   0.667  0.00  0.00    +0.115 A 
ATOM      9  N   UNL     1       4.888   0.178  -0.066  0.00  0.00    -0.263 NA
ATOM     10  C   UNL     1       6.168  -0.135  -0.114  0.00  0.00    +0.111 A 
ATOM     11  C   UNL     1       7.100   0.586   0.608  0.00  0.00    +0.020 A 
ATOM     12  C   UNL     1       6.674   1.652   1.386  0.00  0.00    +0.008 A 
ENDBRANCH   3   7
TORSDOF 1
ENDMDL
MODEL 5
REMARK VINA RESULT:    -3.223      1.893      2.762
REMARK INTER + INTRA:          -3.667
REMARK INTER:                  -3.461
REMARK INTRA:                  -0.206
REMARK UNBOUND:                -0.256
REMARK  Name = Nicotine.pdb
REMARK  2 active torsions:
REMARK  status: ('A' for Active; 'I' for Inactive)
REMARK    1  A    between atoms: C_3  and  C_6
REMARK    2  A    between atoms: N_4  and  C_12
REMARK                            x       y       z     vdW  Elec       q    Type
REMARK                         _______ _______ _______ _____ _____    ______ ____
ROOT
ATOM      1  C   UNL     1       6.431   4.568   5.387  0.00  0.00    +0.017 C 
ATOM      2  C   UNL     1       6.715   3.555   4.247  0.00  0.00    +0.025 C 
ATOM      3  C   UNL     1       6.068   4.226   3.017  0.00  0.00    +0.088 C 
ATOM      4  N   UNL     1       5.055   5.172   3.517  0.00  0.00    -0.298 NA
ATOM      5  C   UNL     1       5.029   5.097   4.994  0.00  0.00    +0.085 C 
ATOM      6  C   UNL     1       5.341   6.539   3.064  0.00  0.00    +0.105 C 
ENDROOT
BRANCH   3   7
ATOM      7  C   UNL     1       5.413   3.183   2.149  0.00  0.00    -0.012 A 
ATOM      8  C   UNL     1       6.116   2.061   1.754  0.00  0.00    +0.115 A 
ATOM      9  N   UNL     1       5.551   1.143   0.994  0.00  0.00    -0.263 NA
ATOM     10  C   UNL     1       4.303   1.256   0.583  0.00  0.00    +0.111 A 
ATOM     11  C   UNL     1       3.538   2.351   0.939  0.00  0.00    +0.020 A 
ATOM     12  C   UNL     1       4.097   3.334   1.741  0.00  0.00    +0.008 A 
ENDBRANCH   3   7
TORSDOF 1
ENDMDL
MODEL 6
REMARK VINA RESULT:    -3.178      1.989      4.856
REMARK INTER + INTRA:          -3.620
REMARK INTER:                  -3.365
REMARK INTRA:                  -0.255
REMARK UNBOUND:                -0.256
REMARK  Name = Nicotine.pdb
REMARK  2 active torsions:
REMARK  status: ('A' for Active; 'I' for Inactive)
REMARK    1  A    between atoms: C_3  and  C_6
REMARK    2  A    between atoms: N_4  and  C_12
REMARK                            x       y       z     vdW  Elec       q    Type
REMARK                         _______ _______ _______ _____ _____    ______ ____
ROOT
ATOM      1  C   UNL     1       5.750  -0.535   1.571  0.00  0.00    +0.017 C 
ATOM      2  C   UNL     1       5.554   0.723   2.458  0.00  0.00    +0.025 C 
ATOM      3  C   UNL     1       4.436   1.494   1.724  0.00  0.00    +0.088 C 
ATOM      4  N   UNL     1       4.438   1.038   0.323  0.00  0.00    -0.298 NA
ATOM      5  C   UNL     1       5.518   0.044   0.153  0.00  0.00    +0.085 C 
ATOM      6  C   UNL     1       3.135   0.470  -0.049  0.00  0.00    +0.105 C 
ENDROOT
BRANCH   3   7
ATOM      7  C   UNL     1       4.710   2.974   1.784  0.00  0.00    -0.012 A 
ATOM      8  C   UNL     1       3.718   3.882   1.465  0.00  0.00    +0.115 A 
ATOM      9  N   UNL     1       3.949   5.180   1.515  0.00  0.00    -0.263 NA
ATOM     10  C   UNL     1       5.125   5.661   1.867  0.00  0.00    +0.111 A 
ATOM     11  C   UNL     1       6.165   4.814   2.200  0.00  0.00    +0.020 A 
ATOM     12  C   UNL     1       5.958   3.444   2.164  0.00  0.00    +0.008 A 
ENDBRANCH   3   7
TORSDOF 1
ENDMDL
MODEL 7
REMARK VINA RESULT:    -3.151      2.898      3.677
REMARK INTER + INTRA:          -3.591
REMARK INTER:                  -3.339
REMARK INTRA:                  -0.252
REMARK UNBOUND:                -0.256
REMARK  Name = Nicotine.pdb
REMARK  2 active torsions:
REMARK  status: ('A' for Active; 'I' for Inactive)
REMARK    1  A    between atoms: C_3  and  C_6
REMARK    2  A    between atoms: N_4  and  C_12
REMARK                            x       y       z     vdW  Elec       q    Type
REMARK                         _______ _______ _______ _____ _____    ______ ____
ROOT
ATOM      1  C   UNL     1       3.999   5.331   1.595  0.00  0.00    +0.017 C 
ATOM      2  C   UNL     1       4.232   3.803   1.725  0.00  0.00    +0.025 C 
ATOM      3  C   UNL     1       5.092   3.690   3.002  0.00  0.00    +0.088 C 
ATOM      4  N   UNL     1       5.745   4.996   3.206  0.00  0.00    -0.298 NA
ATOM      5  C   UNL     1       5.348   5.898   2.103  0.00  0.00    +0.085 C 
ATOM      6  C   UNL     1       5.385   5.568   4.509  0.00  0.00    +0.105 C 
ENDROOT
BRANCH   3   7
ATOM      7  C   UNL     1       6.134   2.617   2.825  0.00  0.00    -0.012 A 
ATOM      8  C   UNL     1       6.879   2.181   3.904  0.00  0.00    +0.115 A 
ATOM      9  N   UNL     1       7.793   1.241   3.758  0.00  0.00    -0.263 NA
ATOM     10  C   UNL     1       8.033   0.684   2.588  0.00  0.00    +0.111 A 
ATOM     11  C   UNL     1       7.327   1.068   1.463  0.00  0.00    +0.020 A 
ATOM     12  C   UNL     1       6.354   2.049   1.579  0.00  0.00    +0.008 A 
ENDBRANCH   3   7
TORSDOF 1
ENDMDL
MODEL 8
REMARK VINA RESULT:    -3.135      1.870      2.716
REMARK INTER + INTRA:          -3.574
REMARK INTER:                  -3.361
REMARK INTRA:                  -0.213
REMARK UNBOUND:                -0.256
REMARK  Name = Nicotine.pdb
REMARK  2 active torsions:
REMARK  status: ('A' for Active; 'I' for Inactive)
REMARK    1  A    between atoms: C_3  and  C_6
REMARK    2  A    between atoms: N_4  and  C_12
REMARK                            x       y       z     vdW  Elec       q    Type
REMARK                         _______ _______ _______ _____ _____    ______ ____
ROOT
ATOM      1  C   UNL     1       3.284   5.911   2.777  0.00  0.00    +0.017 C 
ATOM      2  C   UNL     1       3.953   5.136   1.612  0.00  0.00    +0.025 C 
ATOM      3  C   UNL     1       3.240   3.768   1.651  0.00  0.00    +0.088 C 
ATOM      4  N   UNL     1       2.693   3.598   3.009  0.00  0.00    -0.298 NA
ATOM      5  C   UNL     1       3.057   4.783   3.814  0.00  0.00    +0.085 C 
ATOM      6  C   UNL     1       1.237   3.413   2.972  0.00  0.00    +0.105 C 
ENDROOT
BRANCH   3   7
ATOM      7  C   UNL     1       4.225   2.667   1.352  0.00  0.00    -0.012 A 
ATOM      8  C   UNL     1       5.545   2.786   1.742  0.00  0.00    +0.115 A 
ATOM      9  N   UNL     1       6.414   1.828   1.484  0.00  0.00    -0.263 NA
ATOM     10  C   UNL     1       6.063   0.727   0.850  0.00  0.00    +0.111 A 
ATOM     11  C   UNL     1       4.759   0.537   0.430  0.00  0.00    +0.020 A 
ATOM     12  C   UNL     1       3.817   1.521   0.688  0.00  0.00    +0.008 A 
ENDBRANCH   3   7
TORSDOF 1
ENDMDL
MODEL 9
REMARK VINA RESULT:    -2.999      2.547      4.591
REMARK INTER + INTRA:          -3.430
REMARK INTER:                  -3.239
REMARK INTRA:                  -0.191
REMARK UNBOUND:                -0.256
REMARK  Name = Nicotine.pdb
REMARK  2 active torsions:
REMARK  status: ('A' for Active; 'I' for Inactive)
REMARK    1  A    between atoms: C_3  and  C_6
REMARK    2  A    between atoms: N_4  and  C_12
REMARK                            x       y       z     vdW  Elec       q    Type
REMARK                         _______ _______ _______ _____ _____    ______ ____
ROOT
ATOM      1  C   UNL     1       6.451   1.722   2.756  0.00  0.00    +0.017 C 
ATOM      2  C   UNL     1       6.009   3.124   2.260  0.00  0.00    +0.025 C 
ATOM      3  C   UNL     1       6.425   4.051   3.422  0.00  0.00    +0.088 C 
ATOM      4  N   UNL     1       6.528   3.215   4.632  0.00  0.00    -0.298 NA
ATOM      5  C   UNL     1       6.171   1.825   4.276  0.00  0.00    +0.085 C 
ATOM      6  C   UNL     1       7.878   3.281   5.206  0.00  0.00    +0.105 C 
ENDROOT
BRANCH   3   7
ATOM      7  C   UNL     1       5.384   5.120   3.623  0.00  0.00    -0.012 A 
ATOM      8  C   UNL     1       4.372   5.294   2.697  0.00  0.00    +0.115 A 
ATOM      9  N   UNL     1       3.456   6.228   2.866  0.00  0.00    -0.263 NA
ATOM     10  C   UNL     1       3.467   7.028   3.913  0.00  0.00    +0.111 A 
ATOM     11  C   UNL     1       4.448   6.914   4.881  0.00  0.00    +0.020 A 
ATOM     12  C   UNL     1       5.424   5.940   4.741  0.00  0.00    +0.008 A 
ENDBRANCH   3   7
TORSDOF 1
ENDMDL
