MODEL 1
REMARK VINA RESULT:    -3.603      0.000      0.000
REMARK INTER + INTRA:          -4.029
REMARK INTER:                  -3.814
REMARK INTRA:                  -0.215
REMARK UNBOUND:                -0.215
REMARK  Name = Nicotine.pdb
REMARK  2 active torsions:
REMARK  status: ('A' for Active; 'I' for Inactive)
REMARK    1  A    between atoms: C_3  and  C_6
REMARK    2  A    between atoms: N_4  and  C_12
REMARK                            x       y       z     vdW  Elec       q    Type
REMARK                         _______ _______ _______ _____ _____    ______ ____
ROOT
ATOM      1  C   UNL     1       9.146   6.408   3.589  0.00  0.00    +0.017 C 
ATOM      2  C   UNL     1       7.806   6.414   4.372  0.00  0.00    +0.025 C 
ATOM      3  C   UNL     1       8.027   5.329   5.447  0.00  0.00    +0.088 C 
ATOM      4  N   UNL     1       9.092   4.436   4.953  0.00  0.00    -0.298 NA
ATOM      5  C   UNL     1       9.518   4.905   3.618  0.00  0.00    +0.085 C 
ATOM      6  C   UNL     1      10.225   4.402   5.887  0.00  0.00    +0.105 C 
ENDROOT
BRANCH   3   7
ATOM      7  C   UNL     1       6.756   4.547   5.655  0.00  0.00    -0.012 A 
ATOM      8  C   UNL     1       6.806   3.226   6.059  0.00  0.00    +0.115 A 
ATOM      9  N   UNL     1       5.698   2.535   6.244  0.00  0.00    -0.263 NA
ATOM     10  C   UNL     1       4.508   3.068   6.052  0.00  0.00    +0.111 A 
ATOM     11  C   UNL     1       4.380   4.384   5.647  0.00  0.00    +0.020 A 
ATOM     12  C   UNL     1       5.522   5.144   5.448  0.00  0.00    +0.008 A 
ENDBRANCH   3   7
TORSDOF 1
ENDMDL
MODEL 2
REMARK VINA RESULT:    -3.347     12.293     13.347
REMARK INTER + INTRA:          -3.757
REMARK INTER:                  -3.543
REMARK INTRA:                  -0.215
REMARK UNBOUND:                -0.215
REMARK  Name = Nicotine.pdb
REMARK  2 active torsions:
REMARK  status: ('A' for Active; 'I' for Inactive)
REMARK    1  A    between atoms: C_3  and  C_6
REMARK    2  A    between atoms: N_4  and  C_12
REMARK                            x       y       z     vdW  Elec       q    Type
REMARK                         _______ _______ _______ _____ _____    ______ ____
ROOT
ATOM      1  C   UNL     1       0.720  -0.853  -7.144  0.00  0.00    +0.017 C 
ATOM      2  C   UNL     1       1.939  -0.077  -6.580  0.00  0.00    +0.025 C 
ATOM      3  C   UNL     1       1.340   0.689  -5.382  0.00  0.00    +0.088 C 
ATOM      4  N   UNL     1      -0.112   0.797  -5.615  0.00  0.00    -0.298 NA
ATOM      5  C   UNL     1      -0.430   0.158  -6.909  0.00  0.00    +0.085 C 
ATOM      6  C   UNL     1      -0.869   0.177  -4.520  0.00  0.00    +0.105 C 
ENDROOT
BRANCH   3   7
ATOM      7  C   UNL     1       1.950   2.063  -5.295  0.00  0.00    -0.012 A 
ATOM      8  C   UNL     1       2.668   2.578  -6.358  0.00  0.00    +0.115 A 
ATOM      9  N   UNL     1       3.206   3.781  -6.290  0.00  0.00    -0.263 NA
ATOM     10  C   UNL     1       3.083   4.535  -5.215  0.00  0.00    +0.111 A 
ATOM     11  C   UNL     1       2.379   4.087  -4.113  0.00  0.00    +0.020 A 
ATOM     12  C   UNL     1       1.795   2.830  -4.150  0.00  0.00    +0.008 A 
ENDBRANCH   3   7
TORSDOF 1
ENDMDL
MODEL 3
REMARK VINA RESULT:    -3.317      1.611      2.115
REMARK INTER + INTRA:          -3.727
REMARK INTER:                  -3.511
REMARK INTRA:                  -0.216
REMARK UNBOUND:                -0.215
REMARK  Name = Nicotine.pdb
REMARK  2 active torsions:
REMARK  status: ('A' for Active; 'I' for Inactive)
REMARK    1  A    between atoms: C_3  and  C_6
REMARK    2  A    between atoms: N_4  and  C_12
REMARK                            x       y       z     vdW  Elec       q    Type
REMARK                         _______ _______ _______ _____ _____    ______ ____
ROOT
ATOM      1  C   UNL     1       7.845   6.143   4.390  0.00  0.00    +0.017 C 
ATOM      2  C   UNL     1       6.449   6.279   5.053  0.00  0.00    +0.025 C 
ATOM      3  C   UNL     1       6.215   4.880   5.661  0.00  0.00    +0.088 C 
ATOM      4  N   UNL     1       7.075   3.935   4.926  0.00  0.00    -0.298 NA
ATOM      5  C   UNL     1       7.807   4.680   3.880  0.00  0.00    +0.085 C 
ATOM      6  C   UNL     1       8.005   3.252   5.835  0.00  0.00    +0.105 C 
ENDROOT
BRANCH   3   7
ATOM      7  C   UNL     1       4.769   4.487   5.503  0.00  0.00    -0.012 A 
ATOM      8  C   UNL     1       4.421   3.164   5.307  0.00  0.00    +0.115 A 
ATOM      9  N   UNL     1       3.157   2.813   5.168  0.00  0.00    -0.263 NA
ATOM     10  C   UNL     1       2.182   3.699   5.211  0.00  0.00    +0.111 A 
ATOM     11  C   UNL     1       2.454   5.041   5.404  0.00  0.00    +0.020 A 
ATOM     12  C   UNL     1       3.770   5.448   5.559  0.00  0.00    +0.008 A 
ENDBRANCH   3   7
TORSDOF 1
ENDMDL
MODEL 4
REMARK VINA RESULT:    -3.224     13.140     14.215
REMARK INTER + INTRA:          -3.627
REMARK INTER:                  -3.405
REMARK INTRA:                  -0.223
REMARK UNBOUND:                -0.215
REMARK  Name = Nicotine.pdb
REMARK  2 active torsions:
REMARK  status: ('A' for Active; 'I' for Inactive)
REMARK    1  A    between atoms: C_3  and  C_6
REMARK    2  A    between atoms: N_4  and  C_12
REMARK                            x       y       z     vdW  Elec       q    Type
REMARK                         _______ _______ _______ _____ _____    ______ ____
ROOT
ATOM      1  C   UNL     1       1.945   0.886  -5.417  0.00  0.00    +0.017 C 
ATOM      2  C   UNL     1       0.953  -0.306  -5.399  0.00  0.00    +0.025 C 
ATOM      3  C   UNL     1      -0.344   0.312  -5.963  0.00  0.00    +0.088 C 
ATOM      4  N   UNL     1      -0.260   1.769  -5.755  0.00  0.00    -0.298 NA
ATOM      5  C   UNL     1       1.013   2.074  -5.068  0.00  0.00    +0.085 C 
ATOM      6  C   UNL     1      -0.356   2.490  -7.030  0.00  0.00    +0.105 C 
ENDROOT
BRANCH   3   7
ATOM      7  C   UNL     1      -1.538  -0.244  -5.231  0.00  0.00    -0.012 A 
ATOM      8  C   UNL     1      -2.556  -0.869  -5.926  0.00  0.00    +0.115 A 
ATOM      9  N   UNL     1      -3.604  -1.358  -5.293  0.00  0.00    -0.263 NA
ATOM     10  C   UNL     1      -3.724  -1.273  -3.983  0.00  0.00    +0.111 A 
ATOM     11  C   UNL     1      -2.746  -0.662  -3.221  0.00  0.00    +0.020 A 
ATOM     12  C   UNL     1      -1.627  -0.140  -3.851  0.00  0.00    +0.008 A 
ENDBRANCH   3   7
TORSDOF 1
ENDMDL
MODEL 5
REMARK VINA RESULT:    -3.150     12.465     13.848
REMARK INTER + INTRA:          -3.549
REMARK INTER:                  -3.357
REMARK INTRA:                  -0.192
REMARK UNBOUND:                -0.215
REMARK  Name = Nicotine.pdb
REMARK  2 active torsions:
REMARK  status: ('A' for Active; 'I' for Inactive)
REMARK    1  A    between atoms: C_3  and  C_6
REMARK    2  A    between atoms: N_4  and  C_12
REMARK                            x       y       z     vdW  Elec       q    Type
REMARK                         _______ _______ _______ _____ _____    ______ ____
ROOT
ATOM      1  C   UNL     1      -3.097   0.937  -2.093  0.00  0.00    +0.017 C 
ATOM      2  C   UNL     1      -2.154   1.771  -3.000  0.00  0.00    +0.025 C 
ATOM      3  C   UNL     1      -1.918   0.838  -4.206  0.00  0.00    +0.088 C 
ATOM      4  N   UNL     1      -2.194  -0.538  -3.755  0.00  0.00    -0.298 NA
ATOM      5  C   UNL     1      -2.564  -0.499  -2.324  0.00  0.00    +0.085 C 
ATOM      6  C   UNL     1      -3.259  -1.152  -4.558  0.00  0.00    +0.105 C 
ENDROOT
BRANCH   3   7
ATOM      7  C   UNL     1      -0.488   0.950  -4.669  0.00  0.00    -0.012 A 
ATOM      8  C   UNL     1       0.148   2.177  -4.683  0.00  0.00    +0.115 A 
ATOM      9  N   UNL     1       1.399   2.283  -5.087  0.00  0.00    -0.263 NA
ATOM     10  C   UNL     1       2.089   1.235  -5.490  0.00  0.00    +0.111 A 
ATOM     11  C   UNL     1       1.519  -0.025  -5.503  0.00  0.00    +0.020 A 
ATOM     12  C   UNL     1       0.207  -0.177  -5.081  0.00  0.00    +0.008 A 
ENDBRANCH   3   7
TORSDOF 1
ENDMDL
MODEL 6
REMARK VINA RESULT:    -3.083     11.718     12.354
REMARK INTER + INTRA:          -3.479
REMARK INTER:                  -3.285
REMARK INTRA:                  -0.194
REMARK UNBOUND:                -0.215
REMARK  Name = Nicotine.pdb
REMARK  2 active torsions:
REMARK  status: ('A' for Active; 'I' for Inactive)
REMARK    1  A    between atoms: C_3  and  C_6
REMARK    2  A    between atoms: N_4  and  C_12
REMARK                            x       y       z     vdW  Elec       q    Type
REMARK                         _______ _______ _______ _____ _____    ______ ____
ROOT
ATOM      1  C   UNL     1       2.631   4.981  -3.929  0.00  0.00    +0.017 C 
ATOM      2  C   UNL     1       2.356   3.491  -3.594  0.00  0.00    +0.025 C 
ATOM      3  C   UNL     1       2.431   2.806  -4.975  0.00  0.00    +0.088 C 
ATOM      4  N   UNL     1       2.181   3.843  -5.992  0.00  0.00    -0.298 NA
ATOM      5  C   UNL     1       1.931   5.127  -5.303  0.00  0.00    +0.085 C 
ATOM      6  C   UNL     1       3.313   3.954  -6.921  0.00  0.00    +0.105 C 
ENDROOT
BRANCH   3   7
ATOM      7  C   UNL     1       1.381   1.729  -5.070  0.00  0.00    -0.012 A 
ATOM      8  C   UNL     1       0.067   2.003  -4.744  0.00  0.00    +0.115 A 
ATOM      9  N   UNL     1      -0.858   1.066  -4.824  0.00  0.00    -0.263 NA
ATOM     10  C   UNL     1      -0.571  -0.159  -5.215  0.00  0.00    +0.111 A 
ATOM     11  C   UNL     1       0.722  -0.508  -5.559  0.00  0.00    +0.020 A 
ATOM     12  C   UNL     1       1.720   0.452  -5.491  0.00  0.00    +0.008 A 
ENDBRANCH   3   7
TORSDOF 1
ENDMDL
MODEL 7
REMARK VINA RESULT:    -3.005     11.648     12.379
REMARK INTER + INTRA:          -3.396
REMARK INTER:                  -3.158
REMARK INTRA:                  -0.238
REMARK UNBOUND:                -0.215
REMARK  Name = Nicotine.pdb
REMARK  2 active torsions:
REMARK  status: ('A' for Active; 'I' for Inactive)
REMARK    1  A    between atoms: C_3  and  C_6
REMARK    2  A    between atoms: N_4  and  C_12
REMARK                            x       y       z     vdW  Elec       q    Type
REMARK                         _______ _______ _______ _____ _____    ______ ____
ROOT
ATOM      1  C   UNL     1       2.872   4.938  -4.857  0.00  0.00    +0.017 C 
ATOM      2  C   UNL     1       2.340   3.907  -5.887  0.00  0.00    +0.025 C 
ATOM      3  C   UNL     1       1.197   3.209  -5.119  0.00  0.00    +0.088 C 
ATOM      4  N   UNL     1       1.454   3.402  -3.681  0.00  0.00    -0.298 NA
ATOM      5  C   UNL     1       2.713   4.162  -3.526  0.00  0.00    +0.085 C 
ATOM      6  C   UNL     1       0.335   4.098  -3.034  0.00  0.00    +0.105 C 
ENDROOT
BRANCH   3   7
ATOM      7  C   UNL     1       1.183   1.738  -5.446  0.00  0.00    -0.012 A 
ATOM      8  C   UNL     1       0.263   0.898  -4.848  0.00  0.00    +0.115 A 
ATOM      9  N   UNL     1       0.244  -0.391  -5.129  0.00  0.00    -0.263 NA
ATOM     10  C   UNL     1       1.094  -0.927  -5.983  0.00  0.00    +0.111 A 
ATOM     11  C   UNL     1       2.042  -0.148  -6.620  0.00  0.00    +0.020 A 
ATOM     12  C   UNL     1       2.089   1.211  -6.354  0.00  0.00    +0.008 A 
ENDBRANCH   3   7
TORSDOF 1
ENDMDL
MODEL 8
REMARK VINA RESULT:    -2.994     12.423     13.468
REMARK INTER + INTRA:          -3.384
REMARK INTER:                  -3.129
REMARK INTRA:                  -0.255
REMARK UNBOUND:                -0.215
REMARK  Name = Nicotine.pdb
REMARK  2 active torsions:
REMARK  status: ('A' for Active; 'I' for Inactive)
REMARK    1  A    between atoms: C_3  and  C_6
REMARK    2  A    between atoms: N_4  and  C_12
REMARK                            x       y       z     vdW  Elec       q    Type
REMARK                         _______ _______ _______ _____ _____    ______ ____
ROOT
ATOM      1  C   UNL     1      -0.035  -0.625  -7.090  0.00  0.00    +0.017 C 
ATOM      2  C   UNL     1      -1.281  -0.086  -6.340  0.00  0.00    +0.025 C 
ATOM      3  C   UNL     1      -0.675   0.918  -5.337  0.00  0.00    +0.088 C 
ATOM      4  N   UNL     1       0.737   0.543  -5.143  0.00  0.00    -0.298 NA
ATOM      5  C   UNL     1       1.022  -0.657  -5.958  0.00  0.00    +0.085 C 
ATOM      6  C   UNL     1       1.631   1.651  -5.505  0.00  0.00    +0.105 C 
ENDROOT
BRANCH   3   7
ATOM      7  C   UNL     1      -1.412   0.840  -4.025  0.00  0.00    -0.012 A 
ATOM      8  C   UNL     1      -1.503   1.950  -3.207  0.00  0.00    +0.115 A 
ATOM      9  N   UNL     1      -2.146   1.891  -2.057  0.00  0.00    -0.263 NA
ATOM     10  C   UNL     1      -2.724   0.781  -1.643  0.00  0.00    +0.111 A 
ATOM     11  C   UNL     1      -2.676  -0.370  -2.408  0.00  0.00    +0.020 A 
ATOM     12  C   UNL     1      -2.013  -0.344  -3.625  0.00  0.00    +0.008 A 
ENDBRANCH   3   7
TORSDOF 1
ENDMDL
MODEL 9
REMARK VINA RESULT:    -2.839     11.488     12.217
REMARK INTER + INTRA:          -3.220
REMARK INTER:                  -3.005
REMARK INTRA:                  -0.215
REMARK UNBOUND:                -0.215
REMARK  Name = Nicotine.pdb
REMARK  2 active torsions:
REMARK  status: ('A' for Active; 'I' for Inactive)
REMARK    1  A    between atoms: C_3  and  C_6
REMARK    2  A    between atoms: N_4  and  C_12
REMARK                            x       y       z     vdW  Elec       q    Type
REMARK                         _______ _______ _______ _____ _____    ______ ____
ROOT
ATOM      1  C   UNL     1       0.585   5.242  -3.208  0.00  0.00    +0.017 C 
ATOM      2  C   UNL     1       0.794   3.714  -3.380  0.00  0.00    +0.025 C 
ATOM      3  C   UNL     1       2.118   3.631  -4.168  0.00  0.00    +0.088 C 
ATOM      4  N   UNL     1       2.300   4.923  -4.854  0.00  0.00    -0.298 NA
ATOM      5  C   UNL     1       1.140   5.786  -4.548  0.00  0.00    +0.085 C 
ATOM      6  C   UNL     1       3.557   5.564  -4.447  0.00  0.00    +0.105 C 
ENDROOT
BRANCH   3   7
ATOM      7  C   UNL     1       2.044   2.517  -5.180  0.00  0.00    -0.012 A 
ATOM      8  C   UNL     1       2.750   2.601  -6.365  0.00  0.00    +0.115 A 
ATOM      9  N   UNL     1       2.691   1.630  -7.256  0.00  0.00    -0.263 NA
ATOM     10  C   UNL     1       1.962   0.550  -7.056  0.00  0.00    +0.111 A 
ATOM     11  C   UNL     1       1.229   0.395  -5.894  0.00  0.00    +0.020 A 
ATOM     12  C   UNL     1       1.271   1.393  -4.932  0.00  0.00    +0.008 A 
ENDBRANCH   3   7
TORSDOF 1
ENDMDL
MODEL 10
REMARK VINA RESULT:    -2.600      9.295     11.476
REMARK INTER + INTRA:          -2.968
REMARK INTER:                  -2.752
REMARK INTRA:                  -0.216
REMARK UNBOUND:                -0.215
REMARK  Name = Nicotine.pdb
REMARK  2 active torsions:
REMARK  status: ('A' for Active; 'I' for Inactive)
REMARK    1  A    between atoms: C_3  and  C_6
REMARK    2  A    between atoms: N_4  and  C_12
REMARK                            x       y       z     vdW  Elec       q    Type
REMARK                         _______ _______ _______ _____ _____    ______ ____
ROOT
ATOM      1  C   UNL     1      -0.308   2.591   2.451  0.00  0.00    +0.017 C 
ATOM      2  C   UNL     1      -1.149   2.739   1.156  0.00  0.00    +0.025 C 
ATOM      3  C   UNL     1      -2.202   1.619   1.296  0.00  0.00    +0.088 C 
ATOM      4  N   UNL     1      -1.653   0.618   2.228  0.00  0.00    -0.298 NA
ATOM      5  C   UNL     1      -0.305   1.054   2.647  0.00  0.00    +0.085 C 
ATOM      6  C   UNL     1      -2.535   0.439   3.389  0.00  0.00    +0.105 C 
ENDROOT
BRANCH   3   7
ATOM      7  C   UNL     1      -2.458   0.986  -0.047  0.00  0.00    -0.012 A 
ATOM      8  C   UNL     1      -2.982  -0.291  -0.129  0.00  0.00    +0.115 A 
ATOM      9  N   UNL     1      -3.209  -0.852  -1.301  0.00  0.00    -0.263 NA
ATOM     10  C   UNL     1      -2.950  -0.227  -2.432  0.00  0.00    +0.111 A 
ATOM     11  C   UNL     1      -2.425   1.053  -2.428  0.00  0.00    +0.020 A 
ATOM     12  C   UNL     1      -2.178   1.677  -1.216  0.00  0.00    +0.008 A 
ENDBRANCH   3   7
TORSDOF 1
ENDMDL
