MODEL 1
REMARK VINA RESULT:    -4.148      0.000      0.000
REMARK INTER + INTRA:          -4.576
REMARK INTER:                  -4.391
REMARK INTRA:                  -0.185
REMARK UNBOUND:                -0.185
REMARK  Name = Nicotine.pdb
REMARK  2 active torsions:
REMARK  status: ('A' for Active; 'I' for Inactive)
REMARK    1  A    between atoms: C_3  and  C_6
REMARK    2  A    between atoms: N_4  and  C_12
REMARK                            x       y       z     vdW  Elec       q    Type
REMARK                         _______ _______ _______ _____ _____    ______ ____
ROOT
ATOM      1  C   UNL     1      -1.050  -5.114   1.135  0.00  0.00    +0.017 C 
ATOM      2  C   UNL     1      -0.378  -4.018   0.268  0.00  0.00    +0.025 C 
ATOM      3  C   UNL     1      -1.572  -3.385  -0.478  0.00  0.00    +0.088 C 
ATOM      4  N   UNL     1      -2.661  -4.379  -0.483  0.00  0.00    -0.298 NA
ATOM      5  C   UNL     1      -2.186  -5.601   0.201  0.00  0.00    +0.085 C 
ATOM      6  C   UNL     1      -3.865  -3.845   0.168  0.00  0.00    +0.105 C 
ENDROOT
BRANCH   3   7
ATOM      7  C   UNL     1      -1.175  -3.051  -1.892  0.00  0.00    -0.012 A 
ATOM      8  C   UNL     1       0.159  -2.937  -2.235  0.00  0.00    +0.115 A 
ATOM      9  N   UNL     1       0.515  -2.645  -3.471  0.00  0.00    -0.263 NA
ATOM     10  C   UNL     1      -0.377  -2.451  -4.422  0.00  0.00    +0.111 A 
ATOM     11  C   UNL     1      -1.730  -2.548  -4.154  0.00  0.00    +0.020 A 
ATOM     12  C   UNL     1      -2.142  -2.859  -2.867  0.00  0.00    +0.008 A 
ENDBRANCH   3   7
TORSDOF 1
ENDMDL
MODEL 2
REMARK VINA RESULT:    -3.909      1.377      2.226
REMARK INTER + INTRA:          -4.323
REMARK INTER:                  -4.091
REMARK INTRA:                  -0.231
REMARK UNBOUND:                -0.185
REMARK  Name = Nicotine.pdb
REMARK  2 active torsions:
REMARK  status: ('A' for Active; 'I' for Inactive)
REMARK    1  A    between atoms: C_3  and  C_6
REMARK    2  A    between atoms: N_4  and  C_12
REMARK                            x       y       z     vdW  Elec       q    Type
REMARK                         _______ _______ _______ _____ _____    ______ ____
ROOT
ATOM      1  C   UNL     1      -2.779  -2.849   1.452  0.00  0.00    +0.017 C 
ATOM      2  C   UNL     1      -2.769  -3.404   0.003  0.00  0.00    +0.025 C 
ATOM      3  C   UNL     1      -1.262  -3.508  -0.318  0.00  0.00    +0.088 C 
ATOM      4  N   UNL     1      -0.558  -2.581   0.586  0.00  0.00    -0.298 NA
ATOM      5  C   UNL     1      -1.560  -1.893   1.429  0.00  0.00    +0.085 C 
ATOM      6  C   UNL     1       0.425  -3.294   1.411  0.00  0.00    +0.105 C 
ENDROOT
BRANCH   3   7
ATOM      7  C   UNL     1      -1.016  -3.116  -1.751  0.00  0.00    -0.012 A 
ATOM      8  C   UNL     1       0.275  -3.002  -2.233  0.00  0.00    +0.115 A 
ATOM      9  N   UNL     1       0.500  -2.659  -3.486  0.00  0.00    -0.263 NA
ATOM     10  C   UNL     1      -0.487  -2.412  -4.325  0.00  0.00    +0.111 A 
ATOM     11  C   UNL     1      -1.804  -2.506  -3.915  0.00  0.00    +0.020 A 
ATOM     12  C   UNL     1      -2.079  -2.869  -2.606  0.00  0.00    +0.008 A 
ENDBRANCH   3   7
TORSDOF 1
ENDMDL
MODEL 3
REMARK VINA RESULT:    -3.568      1.803      3.376
REMARK INTER + INTRA:          -3.962
REMARK INTER:                  -3.777
REMARK INTRA:                  -0.185
REMARK UNBOUND:                -0.185
REMARK  Name = Nicotine.pdb
REMARK  2 active torsions:
REMARK  status: ('A' for Active; 'I' for Inactive)
REMARK    1  A    between atoms: C_3  and  C_6
REMARK    2  A    between atoms: N_4  and  C_12
REMARK                            x       y       z     vdW  Elec       q    Type
REMARK                         _______ _______ _______ _____ _____    ______ ____
ROOT
ATOM      1  C   UNL     1      -4.498  -3.804  -2.192  0.00  0.00    +0.017 C 
ATOM      2  C   UNL     1      -3.292  -4.132  -1.273  0.00  0.00    +0.025 C 
ATOM      3  C   UNL     1      -2.558  -2.779  -1.166  0.00  0.00    +0.088 C 
ATOM      4  N   UNL     1      -2.955  -1.974  -2.336  0.00  0.00    -0.298 NA
ATOM      5  C   UNL     1      -3.875  -2.776  -3.169  0.00  0.00    +0.085 C 
ATOM      6  C   UNL     1      -3.583  -0.713  -1.920  0.00  0.00    +0.105 C 
ENDROOT
BRANCH   3   7
ATOM      7  C   UNL     1      -1.068  -3.001  -1.176  0.00  0.00    -0.012 A 
ATOM      8  C   UNL     1      -0.354  -2.900  -2.355  0.00  0.00    +0.115 A 
ATOM      9  N   UNL     1       0.951  -3.093  -2.372  0.00  0.00    -0.263 NA
ATOM     10  C   UNL     1       1.622  -3.387  -1.276  0.00  0.00    +0.111 A 
ATOM     11  C   UNL     1       0.975  -3.504  -0.060  0.00  0.00    +0.020 A 
ATOM     12  C   UNL     1      -0.395  -3.303  -0.002  0.00  0.00    +0.008 A 
ENDBRANCH   3   7
TORSDOF 1
ENDMDL
MODEL 4
REMARK VINA RESULT:    -3.463      1.599      3.690
REMARK INTER + INTRA:          -3.851
REMARK INTER:                  -3.645
REMARK INTRA:                  -0.205
REMARK UNBOUND:                -0.185
REMARK  Name = Nicotine.pdb
REMARK  2 active torsions:
REMARK  status: ('A' for Active; 'I' for Inactive)
REMARK    1  A    between atoms: C_3  and  C_6
REMARK    2  A    between atoms: N_4  and  C_12
REMARK                            x       y       z     vdW  Elec       q    Type
REMARK                         _______ _______ _______ _____ _____    ______ ____
ROOT
ATOM      1  C   UNL     1      -3.935  -2.367  -2.865  0.00  0.00    +0.017 C 
ATOM      2  C   UNL     1      -2.548  -3.057  -2.770  0.00  0.00    +0.025 C 
ATOM      3  C   UNL     1      -2.683  -3.933  -1.506  0.00  0.00    +0.088 C 
ATOM      4  N   UNL     1      -3.762  -3.353  -0.685  0.00  0.00    -0.298 NA
ATOM      5  C   UNL     1      -4.280  -2.150  -1.371  0.00  0.00    +0.085 C 
ATOM      6  C   UNL     1      -4.833  -4.331  -0.456  0.00  0.00    +0.105 C 
ENDROOT
BRANCH   3   7
ATOM      7  C   UNL     1      -1.389  -3.922  -0.734  0.00  0.00    -0.012 A 
ATOM      8  C   UNL     1      -0.321  -3.161  -1.171  0.00  0.00    +0.115 A 
ATOM      9  N   UNL     1       0.815  -3.146  -0.502  0.00  0.00    -0.263 NA
ATOM     10  C   UNL     1       0.979  -3.850   0.601  0.00  0.00    +0.111 A 
ATOM     11  C   UNL     1      -0.045  -4.634   1.099  0.00  0.00    +0.020 A 
ATOM     12  C   UNL     1      -1.256  -4.671   0.425  0.00  0.00    +0.008 A 
ENDBRANCH   3   7
TORSDOF 1
ENDMDL
MODEL 5
REMARK VINA RESULT:    -3.347      1.728      4.176
REMARK INTER + INTRA:          -3.728
REMARK INTER:                  -3.516
REMARK INTRA:                  -0.212
REMARK UNBOUND:                -0.185
REMARK  Name = Nicotine.pdb
REMARK  2 active torsions:
REMARK  status: ('A' for Active; 'I' for Inactive)
REMARK    1  A    between atoms: C_3  and  C_6
REMARK    2  A    between atoms: N_4  and  C_12
REMARK                            x       y       z     vdW  Elec       q    Type
REMARK                         _______ _______ _______ _____ _____    ______ ____
ROOT
ATOM      1  C   UNL     1      -3.796  -1.340  -2.430  0.00  0.00    +0.017 C 
ATOM      2  C   UNL     1      -2.865  -1.519  -1.202  0.00  0.00    +0.025 C 
ATOM      3  C   UNL     1      -1.689  -2.340  -1.774  0.00  0.00    +0.088 C 
ATOM      4  N   UNL     1      -2.184  -3.030  -2.979  0.00  0.00    -0.298 NA
ATOM      5  C   UNL     1      -3.612  -2.694  -3.161  0.00  0.00    +0.085 C 
ATOM      6  C   UNL     1      -1.399  -2.653  -4.161  0.00  0.00    +0.105 C 
ENDROOT
BRANCH   3   7
ATOM      7  C   UNL     1      -1.227  -3.350  -0.756  0.00  0.00    -0.012 A 
ATOM      8  C   UNL     1       0.059  -3.295  -0.252  0.00  0.00    +0.115 A 
ATOM      9  N   UNL     1       0.472  -4.176   0.639  0.00  0.00    -0.263 NA
ATOM     10  C   UNL     1      -0.316  -5.136   1.081  0.00  0.00    +0.111 A 
ATOM     11  C   UNL     1      -1.615  -5.253   0.623  0.00  0.00    +0.020 A 
ATOM     12  C   UNL     1      -2.086  -4.342  -0.310  0.00  0.00    +0.008 A 
ENDBRANCH   3   7
TORSDOF 1
ENDMDL
MODEL 6
REMARK VINA RESULT:    -3.347      1.933      4.323
REMARK INTER + INTRA:          -3.727
REMARK INTER:                  -3.519
REMARK INTRA:                  -0.208
REMARK UNBOUND:                -0.185
REMARK  Name = Nicotine.pdb
REMARK  2 active torsions:
REMARK  status: ('A' for Active; 'I' for Inactive)
REMARK    1  A    between atoms: C_3  and  C_6
REMARK    2  A    between atoms: N_4  and  C_12
REMARK                            x       y       z     vdW  Elec       q    Type
REMARK                         _______ _______ _______ _____ _____    ______ ____
ROOT
ATOM      1  C   UNL     1      -4.289  -2.367  -3.118  0.00  0.00    +0.017 C 
ATOM      2  C   UNL     1      -3.635  -1.803  -1.830  0.00  0.00    +0.025 C 
ATOM      3  C   UNL     1      -2.125  -1.926  -2.124  0.00  0.00    +0.088 C 
ATOM      4  N   UNL     1      -1.965  -2.960  -3.162  0.00  0.00    -0.298 NA
ATOM      5  C   UNL     1      -3.300  -3.496  -3.502  0.00  0.00    +0.085 C 
ATOM      6  C   UNL     1      -1.297  -2.415  -4.351  0.00  0.00    +0.105 C 
ENDROOT
BRANCH   3   7
ATOM      7  C   UNL     1      -1.391  -2.335  -0.873  0.00  0.00    -0.012 A 
ATOM      8  C   UNL     1      -1.554  -1.621   0.299  0.00  0.00    +0.115 A 
ATOM      9  N   UNL     1      -0.915  -1.972   1.398  0.00  0.00    -0.263 NA
ATOM     10  C   UNL     1      -0.102  -3.010   1.425  0.00  0.00    +0.111 A 
ATOM     11  C   UNL     1       0.111  -3.772   0.291  0.00  0.00    +0.020 A 
ATOM     12  C   UNL     1      -0.548  -3.436  -0.881  0.00  0.00    +0.008 A 
ENDBRANCH   3   7
TORSDOF 1
ENDMDL
MODEL 7
REMARK VINA RESULT:    -3.172      1.468      2.127
REMARK INTER + INTRA:          -3.543
REMARK INTER:                  -3.302
REMARK INTRA:                  -0.241
REMARK UNBOUND:                -0.185
REMARK  Name = Nicotine.pdb
REMARK  2 active torsions:
REMARK  status: ('A' for Active; 'I' for Inactive)
REMARK    1  A    between atoms: C_3  and  C_6
REMARK    2  A    between atoms: N_4  and  C_12
REMARK                            x       y       z     vdW  Elec       q    Type
REMARK                         _______ _______ _______ _____ _____    ______ ____
ROOT
ATOM      1  C   UNL     1      -0.367  -3.231   1.965  0.00  0.00    +0.017 C 
ATOM      2  C   UNL     1      -1.066  -2.442   0.827  0.00  0.00    +0.025 C 
ATOM      3  C   UNL     1      -1.767  -3.551   0.015  0.00  0.00    +0.088 C 
ATOM      4  N   UNL     1      -1.065  -4.815   0.304  0.00  0.00    -0.298 NA
ATOM      5  C   UNL     1       0.049  -4.532   1.234  0.00  0.00    +0.085 C 
ATOM      6  C   UNL     1      -1.983  -5.811   0.870  0.00  0.00    +0.105 C 
ENDROOT
BRANCH   3   7
ATOM      7  C   UNL     1      -1.683  -3.241  -1.457  0.00  0.00    -0.012 A 
ATOM      8  C   UNL     1      -2.797  -3.371  -2.264  0.00  0.00    +0.115 A 
ATOM      9  N   UNL     1      -2.731  -3.101  -3.553  0.00  0.00    -0.263 NA
ATOM     10  C   UNL     1      -1.611  -2.701  -4.121  0.00  0.00    +0.111 A 
ATOM     11  C   UNL     1      -0.456  -2.548  -3.377  0.00  0.00    +0.020 A 
ATOM     12  C   UNL     1      -0.488  -2.817  -2.018  0.00  0.00    +0.008 A 
ENDBRANCH   3   7
TORSDOF 1
ENDMDL
MODEL 8
REMARK VINA RESULT:    -3.099      2.374      3.356
REMARK INTER + INTRA:          -3.465
REMARK INTER:                  -3.253
REMARK INTRA:                  -0.212
REMARK UNBOUND:                -0.185
REMARK  Name = Nicotine.pdb
REMARK  2 active torsions:
REMARK  status: ('A' for Active; 'I' for Inactive)
REMARK    1  A    between atoms: C_3  and  C_6
REMARK    2  A    between atoms: N_4  and  C_12
REMARK                            x       y       z     vdW  Elec       q    Type
REMARK                         _______ _______ _______ _____ _____    ______ ____
ROOT
ATOM      1  C   UNL     1      -1.247  -4.395   0.580  0.00  0.00    +0.017 C 
ATOM      2  C   UNL     1      -2.510  -4.234  -0.307  0.00  0.00    +0.025 C 
ATOM      3  C   UNL     1      -1.996  -3.385  -1.490  0.00  0.00    +0.088 C 
ATOM      4  N   UNL     1      -0.792  -2.673  -1.026  0.00  0.00    -0.298 NA
ATOM      5  C   UNL     1      -0.554  -3.023   0.391  0.00  0.00    +0.085 C 
ATOM      6  C   UNL     1       0.372  -3.011  -1.855  0.00  0.00    +0.105 C 
ENDROOT
BRANCH   3   7
ATOM      7  C   UNL     1      -3.052  -2.393  -1.904  0.00  0.00    -0.012 A 
ATOM      8  C   UNL     1      -2.868  -1.041  -1.679  0.00  0.00    +0.115 A 
ATOM      9  N   UNL     1      -3.787  -0.167  -2.040  0.00  0.00    -0.263 NA
ATOM     10  C   UNL     1      -4.909  -0.540  -2.623  0.00  0.00    +0.111 A 
ATOM     11  C   UNL     1      -5.162  -1.874  -2.881  0.00  0.00    +0.020 A 
ATOM     12  C   UNL     1      -4.217  -2.823  -2.522  0.00  0.00    +0.008 A 
ENDBRANCH   3   7
TORSDOF 1
ENDMDL
MODEL 9
REMARK VINA RESULT:    -3.064      1.821      4.287
REMARK INTER + INTRA:          -3.428
REMARK INTER:                  -3.220
REMARK INTRA:                  -0.208
REMARK UNBOUND:                -0.185
REMARK  Name = Nicotine.pdb
REMARK  2 active torsions:
REMARK  status: ('A' for Active; 'I' for Inactive)
REMARK    1  A    between atoms: C_3  and  C_6
REMARK    2  A    between atoms: N_4  and  C_12
REMARK                            x       y       z     vdW  Elec       q    Type
REMARK                         _______ _______ _______ _____ _____    ______ ____
ROOT
ATOM      1  C   UNL     1      -1.419  -2.337  -3.666  0.00  0.00    +0.017 C 
ATOM      2  C   UNL     1      -0.386  -2.853  -2.630  0.00  0.00    +0.025 C 
ATOM      3  C   UNL     1      -1.276  -3.468  -1.529  0.00  0.00    +0.088 C 
ATOM      4  N   UNL     1      -2.607  -2.845  -1.645  0.00  0.00    -0.298 NA
ATOM      5  C   UNL     1      -2.572  -1.861  -2.747  0.00  0.00    +0.085 C 
ATOM      6  C   UNL     1      -3.644  -3.859  -1.877  0.00  0.00    +0.105 C 
ENDROOT
BRANCH   3   7
ATOM      7  C   UNL     1      -0.689  -3.175  -0.173  0.00  0.00    -0.012 A 
ATOM      8  C   UNL     1      -1.300  -2.269   0.673  0.00  0.00    +0.115 A 
ATOM      9  N   UNL     1      -0.792  -2.008   1.862  0.00  0.00    -0.263 NA
ATOM     10  C   UNL     1       0.309  -2.593   2.290  0.00  0.00    +0.111 A 
ATOM     11  C   UNL     1       0.975  -3.511   1.499  0.00  0.00    +0.020 A 
ATOM     12  C   UNL     1       0.468  -3.816   0.245  0.00  0.00    +0.008 A 
ENDBRANCH   3   7
TORSDOF 1
ENDMDL
MODEL 10
REMARK VINA RESULT:    -2.886      2.940      4.138
REMARK INTER + INTRA:          -3.240
REMARK INTER:                  -3.009
REMARK INTRA:                  -0.231
REMARK UNBOUND:                -0.185
REMARK  Name = Nicotine.pdb
REMARK  2 active torsions:
REMARK  status: ('A' for Active; 'I' for Inactive)
REMARK    1  A    between atoms: C_3  and  C_6
REMARK    2  A    between atoms: N_4  and  C_12
REMARK                            x       y       z     vdW  Elec       q    Type
REMARK                         _______ _______ _______ _____ _____    ______ ____
ROOT
ATOM      1  C   UNL     1      -2.886  -3.404  -3.821  0.00  0.00    +0.017 C 
ATOM      2  C   UNL     1      -1.942  -2.481  -3.007  0.00  0.00    +0.025 C 
ATOM      3  C   UNL     1      -2.546  -2.532  -1.588  0.00  0.00    +0.088 C 
ATOM      4  N   UNL     1      -3.957  -2.933  -1.727  0.00  0.00    -0.298 NA
ATOM      5  C   UNL     1      -4.258  -3.107  -3.164  0.00  0.00    +0.085 C 
ATOM      6  C   UNL     1      -4.231  -4.167  -0.979  0.00  0.00    +0.105 C 
ENDROOT
BRANCH   3   7
ATOM      7  C   UNL     1      -2.459  -1.172  -0.945  0.00  0.00    -0.012 A 
ATOM      8  C   UNL     1      -1.903  -1.027   0.312  0.00  0.00    +0.115 A 
ATOM      9  N   UNL     1      -1.824   0.160   0.882  0.00  0.00    -0.263 NA
ATOM     10  C   UNL     1      -2.267   1.247   0.283  0.00  0.00    +0.111 A 
ATOM     11  C   UNL     1      -2.835   1.180  -0.976  0.00  0.00    +0.020 A 
ATOM     12  C   UNL     1      -2.931  -0.049  -1.608  0.00  0.00    +0.008 A 
ENDBRANCH   3   7
TORSDOF 1
ENDMDL
