MODEL 1
REMARK VINA RESULT:    -5.813      0.000      0.000
REMARK INTER + INTRA:          -6.353
REMARK INTER:                  -6.153
REMARK INTRA:                  -0.200
REMARK UNBOUND:                -0.200
REMARK  Name = Nicotine.pdb
REMARK  2 active torsions:
REMARK  status: ('A' for Active; 'I' for Inactive)
REMARK    1  A    between atoms: C_3  and  C_6
REMARK    2  A    between atoms: N_4  and  C_12
REMARK                            x       y       z     vdW  Elec       q    Type
REMARK                         _______ _______ _______ _____ _____    ______ ____
ROOT
ATOM      1  C   UNL     1       1.944   3.499   6.027  0.00  0.00    +0.017 C 
ATOM      2  C   UNL     1       2.588   3.298   4.630  0.00  0.00    +0.025 C 
ATOM      3  C   UNL     1       2.541   4.715   4.019  0.00  0.00    +0.088 C 
ATOM      4  N   UNL     1       1.484   5.460   4.725  0.00  0.00    -0.298 NA
ATOM      5  C   UNL     1       0.861   4.564   5.722  0.00  0.00    +0.085 C 
ATOM      6  C   UNL     1       2.026   6.665   5.366  0.00  0.00    +0.105 C 
ENDROOT
BRANCH   3   7
ATOM      7  C   UNL     1       2.218   4.630   2.550  0.00  0.00    -0.012 A 
ATOM      8  C   UNL     1       3.216   4.378   1.628  0.00  0.00    +0.115 A 
ATOM      9  N   UNL     1       2.941   4.302   0.340  0.00  0.00    -0.263 NA
ATOM     10  C   UNL     1       1.714   4.461  -0.117  0.00  0.00    +0.111 A 
ATOM     11  C   UNL     1       0.665   4.715   0.746  0.00  0.00    +0.020 A 
ATOM     12  C   UNL     1       0.915   4.797   2.107  0.00  0.00    +0.008 A 
ENDBRANCH   3   7
TORSDOF 1
ENDMDL
MODEL 2
REMARK VINA RESULT:    -5.478      0.956      1.934
REMARK INTER + INTRA:          -5.998
REMARK INTER:                  -5.819
REMARK INTRA:                  -0.180
REMARK UNBOUND:                -0.200
REMARK  Name = Nicotine.pdb
REMARK  2 active torsions:
REMARK  status: ('A' for Active; 'I' for Inactive)
REMARK    1  A    between atoms: C_3  and  C_6
REMARK    2  A    between atoms: N_4  and  C_12
REMARK                            x       y       z     vdW  Elec       q    Type
REMARK                         _______ _______ _______ _____ _____    ______ ____
ROOT
ATOM      1  C   UNL     1       2.950   6.680   5.576  0.00  0.00    +0.017 C 
ATOM      2  C   UNL     1       2.272   6.797   4.185  0.00  0.00    +0.025 C 
ATOM      3  C   UNL     1       1.690   5.385   3.963  0.00  0.00    +0.088 C 
ATOM      4  N   UNL     1       2.451   4.459   4.821  0.00  0.00    -0.298 NA
ATOM      5  C   UNL     1       3.488   5.228   5.540  0.00  0.00    +0.085 C 
ATOM      6  C   UNL     1       1.564   3.763   5.762  0.00  0.00    +0.105 C 
ENDROOT
BRANCH   3   7
ATOM      7  C   UNL     1       1.843   4.989   2.517  0.00  0.00    -0.012 A 
ATOM      8  C   UNL     1       3.097   4.916   1.941  0.00  0.00    +0.115 A 
ATOM      9  N   UNL     1       3.239   4.570   0.677  0.00  0.00    -0.263 NA
ATOM     10  C   UNL     1       2.202   4.283  -0.084  0.00  0.00    +0.111 A 
ATOM     11  C   UNL     1       0.917   4.334   0.423  0.00  0.00    +0.020 A 
ATOM     12  C   UNL     1       0.728   4.688   1.750  0.00  0.00    +0.008 A 
ENDBRANCH   3   7
TORSDOF 1
ENDMDL
MODEL 3
REMARK VINA RESULT:    -5.475      1.218      4.667
REMARK INTER + INTRA:          -5.995
REMARK INTER:                  -5.780
REMARK INTRA:                  -0.215
REMARK UNBOUND:                -0.200
REMARK  Name = Nicotine.pdb
REMARK  2 active torsions:
REMARK  status: ('A' for Active; 'I' for Inactive)
REMARK    1  A    between atoms: C_3  and  C_6
REMARK    2  A    between atoms: N_4  and  C_12
REMARK                            x       y       z     vdW  Elec       q    Type
REMARK                         _______ _______ _______ _____ _____    ______ ____
ROOT
ATOM      1  C   UNL     1       1.920   6.008   0.653  0.00  0.00    +0.017 C 
ATOM      2  C   UNL     1       2.468   5.909   2.101  0.00  0.00    +0.025 C 
ATOM      3  C   UNL     1       2.653   4.389   2.299  0.00  0.00    +0.088 C 
ATOM      4  N   UNL     1       1.771   3.712   1.331  0.00  0.00    -0.298 NA
ATOM      5  C   UNL     1       1.034   4.741   0.566  0.00  0.00    +0.085 C 
ATOM      6  C   UNL     1       2.541   2.841   0.435  0.00  0.00    +0.105 C 
ENDROOT
BRANCH   3   7
ATOM      7  C   UNL     1       2.267   4.004   3.703  0.00  0.00    -0.012 A 
ATOM      8  C   UNL     1       1.434   4.818   4.448  0.00  0.00    +0.115 A 
ATOM      9  N   UNL     1       1.092   4.488   5.678  0.00  0.00    -0.263 NA
ATOM     10  C   UNL     1       1.525   3.379   6.244  0.00  0.00    +0.111 A 
ATOM     11  C   UNL     1       2.360   2.515   5.561  0.00  0.00    +0.020 A 
ATOM     12  C   UNL     1       2.737   2.826   4.264  0.00  0.00    +0.008 A 
ENDBRANCH   3   7
TORSDOF 1
ENDMDL
MODEL 4
REMARK VINA RESULT:    -5.408      1.569      4.385
REMARK INTER + INTRA:          -5.924
REMARK INTER:                  -5.711
REMARK INTRA:                  -0.213
REMARK UNBOUND:                -0.200
REMARK  Name = Nicotine.pdb
REMARK  2 active torsions:
REMARK  status: ('A' for Active; 'I' for Inactive)
REMARK    1  A    between atoms: C_3  and  C_6
REMARK    2  A    between atoms: N_4  and  C_12
REMARK                            x       y       z     vdW  Elec       q    Type
REMARK                         _______ _______ _______ _____ _____    ______ ____
ROOT
ATOM      1  C   UNL     1       3.420   4.139   1.334  0.00  0.00    +0.017 C 
ATOM      2  C   UNL     1       3.103   4.110   2.852  0.00  0.00    +0.025 C 
ATOM      3  C   UNL     1       1.594   4.435   2.898  0.00  0.00    +0.088 C 
ATOM      4  N   UNL     1       1.261   5.136   1.645  0.00  0.00    -0.298 NA
ATOM      5  C   UNL     1       2.494   5.280   0.843  0.00  0.00    +0.085 C 
ATOM      6  C   UNL     1       0.226   4.412   0.895  0.00  0.00    +0.105 C 
ENDROOT
BRANCH   3   7
ATOM      7  C   UNL     1       1.297   5.323   4.078  0.00  0.00    -0.012 A 
ATOM      8  C   UNL     1       2.229   6.247   4.510  0.00  0.00    +0.115 A 
ATOM      9  N   UNL     1       1.977   7.028   5.543  0.00  0.00    -0.263 NA
ATOM     10  C   UNL     1       0.836   6.961   6.200  0.00  0.00    +0.111 A 
ATOM     11  C   UNL     1      -0.145   6.061   5.825  0.00  0.00    +0.020 A 
ATOM     12  C   UNL     1       0.083   5.228   4.741  0.00  0.00    +0.008 A 
ENDBRANCH   3   7
TORSDOF 1
ENDMDL
MODEL 5
REMARK VINA RESULT:    -4.504      1.449      4.279
REMARK INTER + INTRA:          -4.967
REMARK INTER:                  -4.784
REMARK INTRA:                  -0.183
REMARK UNBOUND:                -0.200
REMARK  Name = Nicotine.pdb
REMARK  2 active torsions:
REMARK  status: ('A' for Active; 'I' for Inactive)
REMARK    1  A    between atoms: C_3  and  C_6
REMARK    2  A    between atoms: N_4  and  C_12
REMARK                            x       y       z     vdW  Elec       q    Type
REMARK                         _______ _______ _______ _____ _____    ______ ____
ROOT
ATOM      1  C   UNL     1       1.553   4.392  -0.032  0.00  0.00    +0.017 C 
ATOM      2  C   UNL     1       0.804   4.015   1.273  0.00  0.00    +0.025 C 
ATOM      3  C   UNL     1       1.353   5.034   2.294  0.00  0.00    +0.088 C 
ATOM      4  N   UNL     1       2.652   5.508   1.785  0.00  0.00    -0.298 NA
ATOM      5  C   UNL     1       2.941   4.812   0.513  0.00  0.00    +0.085 C 
ATOM      6  C   UNL     1       2.645   6.965   1.598  0.00  0.00    +0.105 C 
ENDROOT
BRANCH   3   7
ATOM      7  C   UNL     1       1.537   4.369   3.634  0.00  0.00    -0.012 A 
ATOM      8  C   UNL     1       2.346   3.255   3.755  0.00  0.00    +0.115 A 
ATOM      9  N   UNL     1       2.514   2.667   4.924  0.00  0.00    -0.263 NA
ATOM     10  C   UNL     1       1.922   3.112   6.014  0.00  0.00    +0.111 A 
ATOM     11  C   UNL     1       1.099   4.221   5.971  0.00  0.00    +0.020 A 
ATOM     12  C   UNL     1       0.903   4.869   4.761  0.00  0.00    +0.008 A 
ENDBRANCH   3   7
TORSDOF 1
ENDMDL
MODEL 6
REMARK VINA RESULT:    -4.285      9.361     10.228
REMARK INTER + INTRA:          -4.735
REMARK INTER:                  -4.519
REMARK INTRA:                  -0.217
REMARK UNBOUND:                -0.200
REMARK  Name = Nicotine.pdb
REMARK  2 active torsions:
REMARK  status: ('A' for Active; 'I' for Inactive)
REMARK    1  A    between atoms: C_3  and  C_6
REMARK    2  A    between atoms: N_4  and  C_12
REMARK                            x       y       z     vdW  Elec       q    Type
REMARK                         _______ _______ _______ _____ _____    ______ ____
ROOT
ATOM      1  C   UNL     1       3.899  -3.724   5.560  0.00  0.00    +0.017 C 
ATOM      2  C   UNL     1       3.444  -4.578   4.348  0.00  0.00    +0.025 C 
ATOM      3  C   UNL     1       4.733  -5.327   3.947  0.00  0.00    +0.088 C 
ATOM      4  N   UNL     1       5.870  -4.549   4.470  0.00  0.00    -0.298 NA
ATOM      5  C   UNL     1       5.345  -3.347   5.152  0.00  0.00    +0.085 C 
ATOM      6  C   UNL     1       6.686  -5.359   5.385  0.00  0.00    +0.105 C 
ENDROOT
BRANCH   3   7
ATOM      7  C   UNL     1       4.823  -5.423   2.446  0.00  0.00    -0.012 A 
ATOM      8  C   UNL     1       6.042  -5.643   1.832  0.00  0.00    +0.115 A 
ATOM      9  N   UNL     1       6.130  -5.729   0.519  0.00  0.00    -0.263 NA
ATOM     10  C   UNL     1       5.070  -5.610  -0.256  0.00  0.00    +0.111 A 
ATOM     11  C   UNL     1       3.818  -5.389   0.287  0.00  0.00    +0.020 A 
ATOM     12  C   UNL     1       3.686  -5.298   1.664  0.00  0.00    +0.008 A 
ENDBRANCH   3   7
TORSDOF 1
ENDMDL
