MODEL 1
REMARK VINA RESULT:    -3.128      0.000      0.000
REMARK INTER + INTRA:          -3.496
REMARK INTER:                  -3.311
REMARK INTRA:                  -0.185
REMARK UNBOUND:                -0.185
REMARK  Name = Nicotine.pdb
REMARK  2 active torsions:
REMARK  status: ('A' for Active; 'I' for Inactive)
REMARK    1  A    between atoms: C_3  and  C_6
REMARK    2  A    between atoms: N_4  and  C_12
REMARK                            x       y       z     vdW  Elec       q    Type
REMARK                         _______ _______ _______ _____ _____    ______ ____
ROOT
ATOM      1  C   UNL     1       5.226  -5.768   2.058  0.00  0.00    +0.017 C 
ATOM      2  C   UNL     1       6.407  -5.046   2.759  0.00  0.00    +0.025 C 
ATOM      3  C   UNL     1       5.717  -4.295   3.916  0.00  0.00    +0.088 C 
ATOM      4  N   UNL     1       4.298  -4.134   3.549  0.00  0.00    -0.298 NA
ATOM      5  C   UNL     1       4.088  -4.728   2.211  0.00  0.00    +0.085 C 
ATOM      6  C   UNL     1       3.421  -4.760   4.547  0.00  0.00    +0.105 C 
ENDROOT
BRANCH   3   7
ATOM      7  C   UNL     1       6.355  -2.943   4.103  0.00  0.00    -0.012 A 
ATOM      8  C   UNL     1       7.646  -2.713   3.665  0.00  0.00    +0.115 A 
ATOM      9  N   UNL     1       8.212  -1.533   3.825  0.00  0.00    -0.263 NA
ATOM     10  C   UNL     1       7.578  -0.532   4.403  0.00  0.00    +0.111 A 
ATOM     11  C   UNL     1       6.284  -0.687   4.866  0.00  0.00    +0.020 A 
ATOM     12  C   UNL     1       5.654  -1.912   4.711  0.00  0.00    +0.008 A 
ENDBRANCH   3   7
TORSDOF 1
ENDMDL
MODEL 2
REMARK VINA RESULT:    -3.109      1.222      4.549
REMARK INTER + INTRA:          -3.476
REMARK INTER:                  -3.259
REMARK INTRA:                  -0.216
REMARK UNBOUND:                -0.185
REMARK  Name = Nicotine.pdb
REMARK  2 active torsions:
REMARK  status: ('A' for Active; 'I' for Inactive)
REMARK    1  A    between atoms: C_3  and  C_6
REMARK    2  A    between atoms: N_4  and  C_12
REMARK                            x       y       z     vdW  Elec       q    Type
REMARK                         _______ _______ _______ _____ _____    ______ ____
ROOT
ATOM      1  C   UNL     1       6.605  -0.105   5.062  0.00  0.00    +0.017 C 
ATOM      2  C   UNL     1       5.839  -1.454   5.096  0.00  0.00    +0.025 C 
ATOM      3  C   UNL     1       6.917  -2.476   4.679  0.00  0.00    +0.088 C 
ATOM      4  N   UNL     1       7.957  -1.738   3.939  0.00  0.00    -0.298 NA
ATOM      5  C   UNL     1       7.558  -0.317   3.859  0.00  0.00    +0.085 C 
ATOM      6  C   UNL     1       9.267  -1.881   4.587  0.00  0.00    +0.105 C 
ENDROOT
BRANCH   3   7
ATOM      7  C   UNL     1       6.308  -3.532   3.794  0.00  0.00    -0.012 A 
ATOM      8  C   UNL     1       7.102  -4.264   2.931  0.00  0.00    +0.115 A 
ATOM      9  N   UNL     1       6.577  -5.191   2.153  0.00  0.00    -0.263 NA
ATOM     10  C   UNL     1       5.286  -5.455   2.164  0.00  0.00    +0.111 A 
ATOM     11  C   UNL     1       4.429  -4.763   3.001  0.00  0.00    +0.020 A 
ATOM     12  C   UNL     1       4.946  -3.786   3.837  0.00  0.00    +0.008 A 
ENDBRANCH   3   7
TORSDOF 1
ENDMDL
MODEL 3
REMARK VINA RESULT:    -3.092     11.193     12.607
REMARK INTER + INTRA:          -3.458
REMARK INTER:                  -3.252
REMARK INTRA:                  -0.206
REMARK UNBOUND:                -0.185
REMARK  Name = Nicotine.pdb
REMARK  2 active torsions:
REMARK  status: ('A' for Active; 'I' for Inactive)
REMARK    1  A    between atoms: C_3  and  C_6
REMARK    2  A    between atoms: N_4  and  C_12
REMARK                            x       y       z     vdW  Elec       q    Type
REMARK                         _______ _______ _______ _____ _____    ______ ____
ROOT
ATOM      1  C   UNL     1       0.257   5.639   1.266  0.00  0.00    +0.017 C 
ATOM      2  C   UNL     1      -0.521   5.336  -0.042  0.00  0.00    +0.025 C 
ATOM      3  C   UNL     1      -1.996   5.465   0.393  0.00  0.00    +0.088 C 
ATOM      4  N   UNL     1      -2.039   5.270   1.853  0.00  0.00    -0.298 NA
ATOM      5  C   UNL     1      -0.667   5.002   2.333  0.00  0.00    +0.085 C 
ATOM      6  C   UNL     1      -2.613   6.443   2.525  0.00  0.00    +0.105 C 
ENDROOT
BRANCH   3   7
ATOM      7  C   UNL     1      -2.826   4.411  -0.292  0.00  0.00    -0.012 A 
ATOM      8  C   UNL     1      -2.229   3.477  -1.118  0.00  0.00    +0.115 A 
ATOM      9  N   UNL     1      -2.949   2.551  -1.720  0.00  0.00    -0.263 NA
ATOM     10  C   UNL     1      -4.256   2.477  -1.563  0.00  0.00    +0.111 A 
ATOM     11  C   UNL     1      -4.923   3.376  -0.752  0.00  0.00    +0.020 A 
ATOM     12  C   UNL     1      -4.198   4.361  -0.097  0.00  0.00    +0.008 A 
ENDBRANCH   3   7
TORSDOF 1
ENDMDL
MODEL 4
REMARK VINA RESULT:    -3.041     11.311     12.887
REMARK INTER + INTRA:          -3.404
REMARK INTER:                  -3.207
REMARK INTRA:                  -0.197
REMARK UNBOUND:                -0.185
REMARK  Name = Nicotine.pdb
REMARK  2 active torsions:
REMARK  status: ('A' for Active; 'I' for Inactive)
REMARK    1  A    between atoms: C_3  and  C_6
REMARK    2  A    between atoms: N_4  and  C_12
REMARK                            x       y       z     vdW  Elec       q    Type
REMARK                         _______ _______ _______ _____ _____    ______ ____
ROOT
ATOM      1  C   UNL     1      -1.930   4.731  -0.121  0.00  0.00    +0.017 C 
ATOM      2  C   UNL     1      -2.189   3.776  -1.316  0.00  0.00    +0.025 C 
ATOM      3  C   UNL     1      -3.696   3.467  -1.194  0.00  0.00    +0.088 C 
ATOM      4  N   UNL     1      -4.083   3.724   0.205  0.00  0.00    -0.298 NA
ATOM      5  C   UNL     1      -2.882   4.151   0.955  0.00  0.00    +0.085 C 
ATOM      6  C   UNL     1      -5.141   4.740   0.281  0.00  0.00    +0.105 C 
ENDROOT
BRANCH   3   7
ATOM      7  C   UNL     1      -3.954   2.024  -1.542  0.00  0.00    -0.012 A 
ATOM      8  C   UNL     1      -3.178   1.022  -0.988  0.00  0.00    +0.115 A 
ATOM      9  N   UNL     1      -3.397  -0.244  -1.287  0.00  0.00    -0.263 NA
ATOM     10  C   UNL     1      -4.355  -0.604  -2.119  0.00  0.00    +0.111 A 
ATOM     11  C   UNL     1      -5.171   0.342  -2.711  0.00  0.00    +0.020 A 
ATOM     12  C   UNL     1      -4.974   1.683  -2.416  0.00  0.00    +0.008 A 
ENDBRANCH   3   7
TORSDOF 1
ENDMDL
MODEL 5
REMARK VINA RESULT:    -2.990      2.195      3.774
REMARK INTER + INTRA:          -3.350
REMARK INTER:                  -3.127
REMARK INTRA:                  -0.223
REMARK UNBOUND:                -0.185
REMARK  Name = Nicotine.pdb
REMARK  2 active torsions:
REMARK  status: ('A' for Active; 'I' for Inactive)
REMARK    1  A    between atoms: C_3  and  C_6
REMARK    2  A    between atoms: N_4  and  C_12
REMARK                            x       y       z     vdW  Elec       q    Type
REMARK                         _______ _______ _______ _____ _____    ______ ____
ROOT
ATOM      1  C   UNL     1       0.992  -2.746   2.355  0.00  0.00    +0.017 C 
ATOM      2  C   UNL     1       2.146  -3.647   1.844  0.00  0.00    +0.025 C 
ATOM      3  C   UNL     1       2.704  -4.268   3.142  0.00  0.00    +0.088 C 
ATOM      4  N   UNL     1       2.315  -3.380   4.253  0.00  0.00    -0.298 NA
ATOM      5  C   UNL     1       1.568  -2.231   3.698  0.00  0.00    +0.085 C 
ATOM      6  C   UNL     1       1.510  -4.101   5.247  0.00  0.00    +0.105 C 
ENDROOT
BRANCH   3   7
ATOM      7  C   UNL     1       4.205  -4.363   3.062  0.00  0.00    -0.012 A 
ATOM      8  C   UNL     1       4.998  -3.713   3.989  0.00  0.00    +0.115 A 
ATOM      9  N   UNL     1       6.313  -3.792   3.926  0.00  0.00    -0.263 NA
ATOM     10  C   UNL     1       6.921  -4.486   2.985  0.00  0.00    +0.111 A 
ATOM     11  C   UNL     1       6.194  -5.163   2.023  0.00  0.00    +0.020 A 
ATOM     12  C   UNL     1       4.809  -5.108   2.061  0.00  0.00    +0.008 A 
ENDBRANCH   3   7
TORSDOF 1
ENDMDL
MODEL 6
REMARK VINA RESULT:    -2.921      1.302      1.913
REMARK INTER + INTRA:          -3.277
REMARK INTER:                  -3.060
REMARK INTRA:                  -0.217
REMARK UNBOUND:                -0.185
REMARK  Name = Nicotine.pdb
REMARK  2 active torsions:
REMARK  status: ('A' for Active; 'I' for Inactive)
REMARK    1  A    between atoms: C_3  and  C_6
REMARK    2  A    between atoms: N_4  and  C_12
REMARK                            x       y       z     vdW  Elec       q    Type
REMARK                         _______ _______ _______ _____ _____    ______ ____
ROOT
ATOM      1  C   UNL     1       3.489  -5.153   1.290  0.00  0.00    +0.017 C 
ATOM      2  C   UNL     1       4.881  -4.981   1.954  0.00  0.00    +0.025 C 
ATOM      3  C   UNL     1       4.527  -4.598   3.407  0.00  0.00    +0.088 C 
ATOM      4  N   UNL     1       3.160  -4.048   3.394  0.00  0.00    -0.298 NA
ATOM      5  C   UNL     1       2.665  -4.050   2.000  0.00  0.00    +0.085 C 
ATOM      6  C   UNL     1       2.271  -4.822   4.269  0.00  0.00    +0.105 C 
ENDROOT
BRANCH   3   7
ATOM      7  C   UNL     1       5.494  -3.560   3.914  0.00  0.00    -0.012 A 
ATOM      8  C   UNL     1       5.056  -2.539   4.736  0.00  0.00    +0.115 A 
ATOM      9  N   UNL     1       5.896  -1.626   5.184  0.00  0.00    -0.263 NA
ATOM     10  C   UNL     1       7.176  -1.648   4.869  0.00  0.00    +0.111 A 
ATOM     11  C   UNL     1       7.687  -2.639   4.052  0.00  0.00    +0.020 A 
ATOM     12  C   UNL     1       6.835  -3.619   3.566  0.00  0.00    +0.008 A 
ENDBRANCH   3   7
TORSDOF 1
ENDMDL
MODEL 7
REMARK VINA RESULT:    -2.843      1.613      4.404
REMARK INTER + INTRA:          -3.195
REMARK INTER:                  -3.015
REMARK INTRA:                  -0.180
REMARK UNBOUND:                -0.185
REMARK  Name = Nicotine.pdb
REMARK  2 active torsions:
REMARK  status: ('A' for Active; 'I' for Inactive)
REMARK    1  A    between atoms: C_3  and  C_6
REMARK    2  A    between atoms: N_4  and  C_12
REMARK                            x       y       z     vdW  Elec       q    Type
REMARK                         _______ _______ _______ _____ _____    ______ ____
ROOT
ATOM      1  C   UNL     1       7.523  -5.170   5.599  0.00  0.00    +0.017 C 
ATOM      2  C   UNL     1       6.674  -5.670   4.400  0.00  0.00    +0.025 C 
ATOM      3  C   UNL     1       6.440  -4.384   3.580  0.00  0.00    +0.088 C 
ATOM      4  N   UNL     1       6.614  -3.243   4.496  0.00  0.00    -0.298 NA
ATOM      5  C   UNL     1       6.919  -3.765   5.846  0.00  0.00    +0.085 C 
ATOM      6  C   UNL     1       7.678  -2.346   4.026  0.00  0.00    +0.105 C 
ENDROOT
BRANCH   3   7
ATOM      7  C   UNL     1       5.043  -4.382   3.016  0.00  0.00    -0.012 A 
ATOM      8  C   UNL     1       4.010  -3.784   3.712  0.00  0.00    +0.115 A 
ATOM      9  N   UNL     1       2.784  -3.778   3.226  0.00  0.00    -0.263 NA
ATOM     10  C   UNL     1       2.495  -4.337   2.067  0.00  0.00    +0.111 A 
ATOM     11  C   UNL     1       3.477  -4.954   1.315  0.00  0.00    +0.020 A 
ATOM     12  C   UNL     1       4.779  -4.975   1.791  0.00  0.00    +0.008 A 
ENDBRANCH   3   7
TORSDOF 1
ENDMDL
MODEL 8
REMARK VINA RESULT:    -2.825      2.457      4.261
REMARK INTER + INTRA:          -3.175
REMARK INTER:                  -2.964
REMARK INTRA:                  -0.211
REMARK UNBOUND:                -0.185
REMARK  Name = Nicotine.pdb
REMARK  2 active torsions:
REMARK  status: ('A' for Active; 'I' for Inactive)
REMARK    1  A    between atoms: C_3  and  C_6
REMARK    2  A    between atoms: N_4  and  C_12
REMARK                            x       y       z     vdW  Elec       q    Type
REMARK                         _______ _______ _______ _____ _____    ______ ____
ROOT
ATOM      1  C   UNL     1       0.447  -3.092   2.321  0.00  0.00    +0.017 C 
ATOM      2  C   UNL     1       1.962  -2.824   2.119  0.00  0.00    +0.025 C 
ATOM      3  C   UNL     1       2.520  -4.224   1.785  0.00  0.00    +0.088 C 
ATOM      4  N   UNL     1       1.566  -5.213   2.317  0.00  0.00    -0.298 NA
ATOM      5  C   UNL     1       0.462  -4.491   2.985  0.00  0.00    +0.085 C 
ATOM      6  C   UNL     1       1.057  -6.083   1.249  0.00  0.00    +0.105 C 
ENDROOT
BRANCH   3   7
ATOM      7  C   UNL     1       3.867  -4.407   2.434  0.00  0.00    -0.012 A 
ATOM      8  C   UNL     1       4.115  -3.886   3.689  0.00  0.00    +0.115 A 
ATOM      9  N   UNL     1       5.291  -4.042   4.264  0.00  0.00    -0.263 NA
ATOM     10  C   UNL     1       6.271  -4.696   3.672  0.00  0.00    +0.111 A 
ATOM     11  C   UNL     1       6.097  -5.246   2.416  0.00  0.00    +0.020 A 
ATOM     12  C   UNL     1       4.872  -5.107   1.782  0.00  0.00    +0.008 A 
ENDBRANCH   3   7
TORSDOF 1
ENDMDL
MODEL 9
REMARK VINA RESULT:    -2.644      6.709      8.585
REMARK INTER + INTRA:          -2.984
REMARK INTER:                  -2.768
REMARK INTRA:                  -0.215
REMARK UNBOUND:                -0.185
REMARK  Name = Nicotine.pdb
REMARK  2 active torsions:
REMARK  status: ('A' for Active; 'I' for Inactive)
REMARK    1  A    between atoms: C_3  and  C_6
REMARK    2  A    between atoms: N_4  and  C_12
REMARK                            x       y       z     vdW  Elec       q    Type
REMARK                         _______ _______ _______ _____ _____    ______ ____
ROOT
ATOM      1  C   UNL     1       5.657   2.567   4.137  0.00  0.00    +0.017 C 
ATOM      2  C   UNL     1       6.326   3.764   3.411  0.00  0.00    +0.025 C 
ATOM      3  C   UNL     1       5.118   4.592   2.922  0.00  0.00    +0.088 C 
ATOM      4  N   UNL     1       3.962   3.681   2.857  0.00  0.00    -0.298 NA
ATOM      5  C   UNL     1       4.404   2.328   3.258  0.00  0.00    +0.085 C 
ATOM      6  C   UNL     1       2.869   4.154   3.717  0.00  0.00    +0.105 C 
ENDROOT
BRANCH   3   7
ATOM      7  C   UNL     1       5.404   5.157   1.555  0.00  0.00    -0.012 A 
ATOM      8  C   UNL     1       4.372   5.393   0.666  0.00  0.00    +0.115 A 
ATOM      9  N   UNL     1       4.614   5.888  -0.532  0.00  0.00    -0.263 NA
ATOM     10  C   UNL     1       5.837   6.176  -0.929  0.00  0.00    +0.111 A 
ATOM     11  C   UNL     1       6.920   5.968  -0.095  0.00  0.00    +0.020 A 
ATOM     12  C   UNL     1       6.704   5.453   1.175  0.00  0.00    +0.008 A 
ENDBRANCH   3   7
TORSDOF 1
ENDMDL
MODEL 10
REMARK VINA RESULT:    -2.633      9.177     10.560
REMARK INTER + INTRA:          -2.973
REMARK INTER:                  -2.754
REMARK INTRA:                  -0.219
REMARK UNBOUND:                -0.185
REMARK  Name = Nicotine.pdb
REMARK  2 active torsions:
REMARK  status: ('A' for Active; 'I' for Inactive)
REMARK    1  A    between atoms: C_3  and  C_6
REMARK    2  A    between atoms: N_4  and  C_12
REMARK                            x       y       z     vdW  Elec       q    Type
REMARK                         _______ _______ _______ _____ _____    ______ ____
ROOT
ATOM      1  C   UNL     1       9.586   5.751   1.497  0.00  0.00    +0.017 C 
ATOM      2  C   UNL     1       8.232   4.996   1.566  0.00  0.00    +0.025 C 
ATOM      3  C   UNL     1       7.580   5.326   0.207  0.00  0.00    +0.088 C 
ATOM      4  N   UNL     1       8.205   6.566  -0.288  0.00  0.00    -0.298 NA
ATOM      5  C   UNL     1       9.192   7.028   0.712  0.00  0.00    +0.085 C 
ATOM      6  C   UNL     1       8.841   6.351  -1.594  0.00  0.00    +0.105 C 
ENDROOT
BRANCH   3   7
ATOM      7  C   UNL     1       6.099   5.534   0.386  0.00  0.00    -0.012 A 
ATOM      8  C   UNL     1       5.364   6.196  -0.579  0.00  0.00    +0.115 A 
ATOM      9  N   UNL     1       4.066   6.381  -0.430  0.00  0.00    -0.263 NA
ATOM     10  C   UNL     1       3.422   5.949   0.635  0.00  0.00    +0.111 A 
ATOM     11  C   UNL     1       4.091   5.278   1.643  0.00  0.00    +0.020 A 
ATOM     12  C   UNL     1       5.454   5.059   1.518  0.00  0.00    +0.008 A 
ENDBRANCH   3   7
TORSDOF 1
ENDMDL
