REMARK  Name = /Users/acegid/Desktop/Smoking_Research/Docking/Docking_All_PDB/All_PDB/1AZE_H.pdb
REMARK  302 active torsions:
REMARK  status: ('A' for Active; 'I' for Inactive)
REMARK    1  A    between atoms: N_1  and  CA_3
REMARK    2  A    between atoms: CA_3  and  C_4
REMARK    3  A    between atoms: CA_3  and  CB_6
REMARK    4  A    between atoms: CB_6  and  CG_7
REMARK    5  A    between atoms: CG_7  and  SD_8
REMARK    6  A    between atoms: SD_8  and  CE_9
REMARK    7  A    between atoms: N_20  and  CA_21
REMARK    8  A    between atoms: CA_21  and  C_22
REMARK    9  A    between atoms: CA_21  and  CB_24
REMARK   10  A    between atoms: CB_24  and  CG_25
REMARK   11  A    between atoms: CG_25  and  CD_26
REMARK   12  A    between atoms: N_35  and  CA_36
REMARK   13  A    between atoms: CA_36  and  C_37
REMARK   14  A    between atoms: CA_36  and  CB_39
REMARK   15  A    between atoms: N_45  and  CA_46
REMARK   16  A    between atoms: CA_46  and  C_47
REMARK   17  A    between atoms: CA_46  and  CB_49
REMARK   18  A    between atoms: CB_49  and  CG1_50
REMARK   19  A    between atoms: CB_49  and  CG2_51
REMARK   20  A    between atoms: CG1_50  and  CD1_52
REMARK   21  A    between atoms: N_64  and  CA_65
REMARK   22  A    between atoms: CA_65  and  C_66
REMARK   23  A    between atoms: CA_65  and  CB_68
REMARK   24  A    between atoms: N_74  and  CA_75
REMARK   25  A    between atoms: CA_75  and  C_76
REMARK   26  A    between atoms: CA_75  and  CB_78
REMARK   27  A    between atoms: CB_78  and  CG_79
REMARK   28  A    between atoms: CG_79  and  CD_80
REMARK   29  A    between atoms: CD_80  and  CE_81
REMARK   30  A    between atoms: CE_81  and  NZ_82
REMARK   31  A    between atoms: N_96  and  CA_97
REMARK   32  A    between atoms: CA_97  and  C_98
REMARK   33  A    between atoms: CA_97  and  CB_100
REMARK   34  A    between atoms: CB_100  and  CG1_101
REMARK   35  A    between atoms: CB_100  and  CG2_102
REMARK   36  A    between atoms: N_112  and  CA_113
REMARK   37  A    between atoms: CA_113  and  C_114
REMARK   38  A    between atoms: CA_113  and  CB_116
REMARK   39  A    between atoms: CB_116  and  CG_117
REMARK   40  A    between atoms: N_124  and  CA_125
REMARK   41  A    between atoms: CA_125  and  C_126
REMARK   42  A    between atoms: CA_125  and  CB_128
REMARK   43  A    between atoms: CB_128  and  CG_129
REMARK   44  A    between atoms: N_144  and  CA_145
REMARK   45  A    between atoms: CA_145  and  C_146
REMARK   46  A    between atoms: CA_145  and  CB_148
REMARK   47  A    between atoms: CB_148  and  CG_149
REMARK   48  A    between atoms: CG_149  and  CD_150
REMARK   49  A    between atoms: CD_150  and  CE_151
REMARK   50  A    between atoms: CE_151  and  NZ_152
REMARK   51  A    between atoms: N_166  and  CA_167
REMARK   52  A    between atoms: CA_167  and  C_168
REMARK   53  A    between atoms: CA_167  and  CB_170
REMARK   54  A    between atoms: N_176  and  CA_177
REMARK   55  A    between atoms: CA_177  and  C_178
REMARK   56  A    between atoms: CA_177  and  CB_180
REMARK   57  A    between atoms: CB_180  and  OG1_181
REMARK   58  A    between atoms: CB_180  and  CG2_182
REMARK   59  A    between atoms: N_190  and  CA_191
REMARK   60  A    between atoms: CA_191  and  C_192
REMARK   61  A    between atoms: CA_191  and  CB_194
REMARK   62  A    between atoms: N_200  and  CA_201
REMARK   63  A    between atoms: CA_201  and  C_202
REMARK   64  A    between atoms: CA_201  and  CB_204
REMARK   65  A    between atoms: CB_204  and  CG_205
REMARK   66  A    between atoms: N_212  and  CA_213
REMARK   67  A    between atoms: CA_213  and  C_214
REMARK   68  A    between atoms: CA_213  and  CB_216
REMARK   69  A    between atoms: CB_216  and  CG_217
REMARK   70  A    between atoms: N_224  and  CA_225
REMARK   71  A    between atoms: CA_225  and  C_226
REMARK   72  A    between atoms: CA_225  and  CB_228
REMARK   73  A    between atoms: CB_228  and  CG_229
REMARK   74  A    between atoms: CG_229  and  CD_230
REMARK   75  A    between atoms: N_239  and  CA_240
REMARK   76  A    between atoms: CA_240  and  C_241
REMARK   77  A    between atoms: CA_240  and  CB_243
REMARK   78  A    between atoms: CB_243  and  CG_244
REMARK   79  A    between atoms: CG_244  and  CD1_245
REMARK   80  A    between atoms: CG_244  and  CD2_246
REMARK   81  A    between atoms: N_258  and  CA_259
REMARK   82  A    between atoms: CA_259  and  C_260
REMARK   83  A    between atoms: CA_259  and  CB_262
REMARK   84  A    between atoms: CB_262  and  OG_263
REMARK   85  A    between atoms: N_269  and  CA_270
REMARK   86  A    between atoms: CA_270  and  C_271
REMARK   87  A    between atoms: CA_270  and  CB_273
REMARK   88  A    between atoms: CB_273  and  CG_274
REMARK   89  A    between atoms: N_289  and  CA_290
REMARK   90  A    between atoms: CA_290  and  C_291
REMARK   91  A    between atoms: CA_290  and  CB_293
REMARK   92  A    between atoms: CB_293  and  CG_294
REMARK   93  A    between atoms: CG_294  and  CD_295
REMARK   94  A    between atoms: CD_295  and  CE_296
REMARK   95  A    between atoms: CE_296  and  NZ_297
REMARK   96  A    between atoms: N_311  and  CA_312
REMARK   97  A    between atoms: CA_312  and  C_313
REMARK   98  A    between atoms: CA_312  and  CB_315
REMARK   99  A    between atoms: CB_315  and  CG_316
REMARK  100  A    between atoms: CG_316  and  CD_317
REMARK  101  A    between atoms: CD_317  and  NE_318
REMARK  102  A    between atoms: N_335  and  CA_336
REMARK  103  A    between atoms: CA_336  and  C_337
REMARK  104  A    between atoms: N_342  and  CA_343
REMARK  105  A    between atoms: CA_343  and  C_344
REMARK  106  A    between atoms: CA_343  and  CB_346
REMARK  107  A    between atoms: CB_346  and  CG_347
REMARK  108  A    between atoms: N_354  and  CA_355
REMARK  109  A    between atoms: CA_355  and  C_356
REMARK  110  A    between atoms: CA_355  and  CB_358
REMARK  111  A    between atoms: CB_358  and  CG1_359
REMARK  112  A    between atoms: CB_358  and  CG2_360
REMARK  113  A    between atoms: CG1_359  and  CD1_361
REMARK  114  A    between atoms: N_373  and  CA_374
REMARK  115  A    between atoms: CA_374  and  C_375
REMARK  116  A    between atoms: CA_374  and  CB_377
REMARK  117  A    between atoms: CB_377  and  CG_378
REMARK  118  A    between atoms: CG_378  and  CD1_379
REMARK  119  A    between atoms: CG_378  and  CD2_380
REMARK  120  A    between atoms: N_392  and  CA_393
REMARK  121  A    between atoms: CA_393  and  C_394
REMARK  122  A    between atoms: CA_393  and  CB_396
REMARK  123  A    between atoms: CB_396  and  CG_397
REMARK  124  A    between atoms: CG_397  and  CD_398
REMARK  125  A    between atoms: CD_398  and  CE_399
REMARK  126  A    between atoms: CE_399  and  NZ_400
REMARK  127  A    between atoms: N_414  and  CA_415
REMARK  128  A    between atoms: CA_415  and  C_416
REMARK  129  A    between atoms: CA_415  and  CB_418
REMARK  130  A    between atoms: CB_418  and  CG1_419
REMARK  131  A    between atoms: CB_418  and  CG2_420
REMARK  132  A    between atoms: N_430  and  CA_431
REMARK  133  A    between atoms: CA_431  and  C_432
REMARK  134  A    between atoms: CA_431  and  CB_434
REMARK  135  A    between atoms: CB_434  and  CG_435
REMARK  136  A    between atoms: CG_435  and  CD1_436
REMARK  137  A    between atoms: CG_435  and  CD2_437
REMARK  138  A    between atoms: N_449  and  CA_450
REMARK  139  A    between atoms: CA_450  and  C_451
REMARK  140  A    between atoms: CA_450  and  CB_453
REMARK  141  A    between atoms: CB_453  and  CG_454
REMARK  142  A    between atoms: N_463  and  CA_464
REMARK  143  A    between atoms: CA_464  and  C_465
REMARK  144  A    between atoms: CA_464  and  CB_467
REMARK  145  A    between atoms: CB_467  and  CG_468
REMARK  146  A    between atoms: CG_468  and  CD_469
REMARK  147  A    between atoms: N_478  and  CA_479
REMARK  148  A    between atoms: CA_479  and  C_480
REMARK  149  A    between atoms: CA_479  and  CB_482
REMARK  150  A    between atoms: CB_482  and  CG_483
REMARK  151  A    between atoms: CG_483  and  CD_484
REMARK  152  A    between atoms: N_493  and  CA_494
REMARK  153  A    between atoms: CA_494  and  C_495
REMARK  154  A    between atoms: CA_494  and  CB_497
REMARK  155  A    between atoms: CB_497  and  OG_498
REMARK  156  A    between atoms: N_504  and  CA_505
REMARK  157  A    between atoms: CA_505  and  C_506
REMARK  158  A    between atoms: CA_505  and  CB_508
REMARK  159  A    between atoms: CB_508  and  CG_509
REMARK  160  A    between atoms: N_516  and  CA_517
REMARK  161  A    between atoms: CA_517  and  C_518
REMARK  162  A    between atoms: CA_517  and  CB_520
REMARK  163  A    between atoms: CB_520  and  CG_521
REMARK  164  A    between atoms: CG_521  and  CD_522
REMARK  165  A    between atoms: N_533  and  CA_534
REMARK  166  A    between atoms: CA_534  and  C_535
REMARK  167  A    between atoms: CA_534  and  CB_537
REMARK  168  A    between atoms: CB_537  and  CG_538
REMARK  169  A    between atoms: N_547  and  CA_548
REMARK  170  A    between atoms: CA_548  and  C_549
REMARK  171  A    between atoms: CA_548  and  CB_551
REMARK  172  A    between atoms: CB_551  and  CG_552
REMARK  173  A    between atoms: N_571  and  CA_572
REMARK  174  A    between atoms: CA_572  and  C_573
REMARK  175  A    between atoms: CA_572  and  CB_575
REMARK  176  A    between atoms: CB_575  and  CG_576
REMARK  177  A    between atoms: CZ_581  and  OH_582
REMARK  178  A    between atoms: N_592  and  CA_593
REMARK  179  A    between atoms: CA_593  and  C_594
REMARK  180  A    between atoms: CA_593  and  CB_596
REMARK  181  A    between atoms: CB_596  and  CG_597
REMARK  182  A    between atoms: CG_597  and  CD_598
REMARK  183  A    between atoms: CD_598  and  CE_599
REMARK  184  A    between atoms: CE_599  and  NZ_600
REMARK  185  A    between atoms: N_614  and  CA_615
REMARK  186  A    between atoms: CA_615  and  C_616
REMARK  187  A    between atoms: CA_615  and  CB_618
REMARK  188  A    between atoms: N_624  and  CA_625
REMARK  189  A    between atoms: CA_625  and  C_626
REMARK  190  A    between atoms: CA_625  and  CB_628
REMARK  191  A    between atoms: CB_628  and  CG_629
REMARK  192  A    between atoms: CG_629  and  CD_630
REMARK  193  A    between atoms: N_639  and  CA_640
REMARK  194  A    between atoms: CA_640  and  C_641
REMARK  195  A    between atoms: CA_640  and  CB_643
REMARK  196  A    between atoms: CB_643  and  CG_644
REMARK  197  A    between atoms: CG_644  and  CD1_645
REMARK  198  A    between atoms: CG_644  and  CD2_646
REMARK  199  A    between atoms: N_658  and  CA_659
REMARK  200  A    between atoms: CA_659  and  C_660
REMARK  201  A    between atoms: CA_659  and  CB_662
REMARK  202  A    between atoms: CB_662  and  CG_663
REMARK  203  A    between atoms: N_672  and  CA_673
REMARK  204  A    between atoms: CA_673  and  C_674
REMARK  205  A    between atoms: N_679  and  CA_680
REMARK  206  A    between atoms: CA_680  and  C_681
REMARK  207  A    between atoms: CA_680  and  CB_683
REMARK  208  A    between atoms: CB_683  and  CG_684
REMARK  209  A    between atoms: CG_684  and  CD_685
REMARK  210  A    between atoms: CD_685  and  CE_686
REMARK  211  A    between atoms: CE_686  and  NZ_687
REMARK  212  A    between atoms: N_701  and  CA_702
REMARK  213  A    between atoms: CA_702  and  C_703
REMARK  214  A    between atoms: CA_702  and  CB_705
REMARK  215  A    between atoms: CB_705  and  CG_706
REMARK  216  A    between atoms: N_713  and  CA_714
REMARK  217  A    between atoms: CA_714  and  C_715
REMARK  218  A    between atoms: N_720  and  CA_721
REMARK  219  A    between atoms: CA_721  and  C_722
REMARK  220  A    between atoms: CA_721  and  CB_724
REMARK  221  A    between atoms: CB_724  and  CG_725
REMARK  222  A    between atoms: N_740  and  CA_741
REMARK  223  A    between atoms: CA_741  and  C_742
REMARK  224  A    between atoms: CA_741  and  CB_744
REMARK  225  A    between atoms: CB_744  and  CG1_745
REMARK  226  A    between atoms: CB_744  and  CG2_746
REMARK  227  A    between atoms: CG1_745  and  CD1_747
REMARK  228  A    between atoms: CA_760  and  C_761
REMARK  229  A    between atoms: N_773  and  CA_774
REMARK  230  A    between atoms: CA_774  and  C_775
REMARK  231  A    between atoms: CA_774  and  CB_777
REMARK  232  A    between atoms: CB_777  and  CG_778
REMARK  233  A    between atoms: CG_778  and  CD_779
REMARK  234  A    between atoms: CD_779  and  CE_780
REMARK  235  A    between atoms: CE_780  and  NZ_781
REMARK  236  A    between atoms: N_795  and  CA_796
REMARK  237  A    between atoms: CA_796  and  C_797
REMARK  238  A    between atoms: CA_796  and  CB_799
REMARK  239  A    between atoms: CB_799  and  CG_800
REMARK  240  A    between atoms: N_809  and  CA_810
REMARK  241  A    between atoms: CA_810  and  C_811
REMARK  242  A    between atoms: CA_810  and  CB_813
REMARK  243  A    between atoms: CB_813  and  CG_814
REMARK  244  A    between atoms: CZ_819  and  OH_820
REMARK  245  A    between atoms: N_830  and  CA_831
REMARK  246  A    between atoms: CA_831  and  C_832
REMARK  247  A    between atoms: CA_831  and  CB_834
REMARK  248  A    between atoms: CB_834  and  CG1_835
REMARK  249  A    between atoms: CB_834  and  CG2_836
REMARK  250  A    between atoms: CG1_835  and  CD1_837
REMARK  251  A    between atoms: N_849  and  CA_850
REMARK  252  A    between atoms: CA_850  and  C_851
REMARK  253  A    between atoms: CA_850  and  CB_853
REMARK  254  A    between atoms: CB_853  and  CG_854
REMARK  255  A    between atoms: CG_854  and  CD_855
REMARK  256  A    between atoms: N_864  and  CA_865
REMARK  257  A    between atoms: CA_865  and  C_866
REMARK  258  A    between atoms: CA_865  and  CB_868
REMARK  259  A    between atoms: CB_868  and  CG_869
REMARK  260  A    between atoms: CG_869  and  SD_870
REMARK  261  A    between atoms: SD_870  and  CE_871
REMARK  262  A    between atoms: N_881  and  CA_882
REMARK  263  A    between atoms: CA_882  and  C_883
REMARK  264  A    between atoms: CA_882  and  CB_885
REMARK  265  A    between atoms: C_883  and  OXT_890
REMARK  266  A    between atoms: CB_885  and  CG_886
REMARK  267  A    between atoms: CG_886  and  CD_887
REMARK  268  A    between atoms: CD_887  and  CE_888
REMARK  269  A    between atoms: CE_888  and  NZ_889
REMARK  270  A    between atoms: N_905  and  CA_906
REMARK  271  A    between atoms: CA_906  and  C_907
REMARK  272  A    between atoms: CA_906  and  CB_909
REMARK  273  A    between atoms: CB_909  and  CG1_910
REMARK  274  A    between atoms: CB_909  and  CG2_911
REMARK  275  A    between atoms: CA_924  and  C_925
REMARK  276  A    between atoms: CA_938  and  C_939
REMARK  277  A    between atoms: CA_952  and  C_953
REMARK  278  A    between atoms: N_965  and  CA_966
REMARK  279  A    between atoms: CA_966  and  C_967
REMARK  280  A    between atoms: CA_966  and  CB_969
REMARK  281  A    between atoms: CB_969  and  CG1_970
REMARK  282  A    between atoms: CB_969  and  CG2_971
REMARK  283  A    between atoms: CA_982  and  C_983
REMARK  284  A    between atoms: CA_996  and  C_997
REMARK  285  A    between atoms: N_1009  and  CA_1010
REMARK  286  A    between atoms: CA_1010  and  C_1011
REMARK  287  A    between atoms: CA_1010  and  CB_1013
REMARK  288  A    between atoms: CB_1013  and  CG_1014
REMARK  289  A    between atoms: CG_1014  and  CD_1015
REMARK  290  A    between atoms: CD_1015  and  NE_1016
REMARK  291  A    between atoms: N_1033  and  CA_1034
REMARK  292  A    between atoms: CA_1034  and  C_1035
REMARK  293  A    between atoms: CA_1034  and  CB_1037
REMARK  294  A    between atoms: CB_1037  and  CG_1038
REMARK  295  A    between atoms: CG_1038  and  CD_1039
REMARK  296  A    between atoms: CD_1039  and  NE_1040
REMARK  297  A    between atoms: N_1057  and  CA_1058
REMARK  298  A    between atoms: CA_1058  and  C_1059
REMARK  299  A    between atoms: CA_1058  and  CB_1061
REMARK  300  A    between atoms: CB_1061  and  CG_1062
REMARK  301  A    between atoms: CG_1062  and  CD_1063
REMARK  302  A    between atoms: CD_1063  and  NE_1064
REMARK                            x       y       z     vdW  Elec       q    Type
REMARK                         _______ _______ _______ _____ _____    ______ ____
ROOT
ATOM      1  C   ASN A  29       4.988   7.583   5.344  0.00  0.00    +0.000 C 
ATOM      2  O   ASN A  29       3.781   7.773   5.180  0.00  0.00    +0.000 OA
ATOM      3  N   GLU A  30       5.474   6.577   6.083  0.00  0.00    +0.000 N 
ATOM      4  H   GLU A  30       6.478   6.493   6.165  0.00  0.00    +0.000 HD
ENDROOT
BRANCH   1   5
ATOM      5  CA  ASN A  29       6.022   8.546   4.737  0.00  0.00    +0.000 C 
BRANCH   5   8
ATOM      6  C   LEU A  28       7.510   8.460   2.765  0.00  0.00    +0.000 C 
ATOM      7  O   LEU A  28       8.442   9.006   3.356  0.00  0.00    +0.000 OA
ATOM      8  N   ASN A  29       6.323   8.218   3.346  0.00  0.00    +0.000 N 
ATOM      9  H   ASN A  29       5.602   7.765   2.798  0.00  0.00    +0.000 HD
BRANCH   6  10
ATOM     10  CA  LEU A  28       7.681   8.039   1.299  0.00  0.00    +0.000 C 
BRANCH  10  13
ATOM     11  C   VAL A  27       8.245   5.621   1.172  0.00  0.00    +0.000 C 
ATOM     12  O   VAL A  27       9.456   5.784   1.318  0.00  0.00    +0.000 OA
ATOM     13  N   LEU A  28       7.358   6.624   1.148  0.00  0.00    +0.000 N 
ATOM     14  H   LEU A  28       6.381   6.367   1.079  0.00  0.00    +0.000 HD
BRANCH  11  15
ATOM     15  CA  VAL A  27       7.645   4.223   1.000  0.00  0.00    +0.000 C 
BRANCH  15  18
ATOM     16  C   LYS A  26       8.195   3.468  -1.285  0.00  0.00    +0.000 C 
ATOM     17  O   LYS A  26       7.394   4.243  -1.800  0.00  0.00    +0.000 OA
ATOM     18  N   VAL A  27       8.433   3.463   0.032  0.00  0.00    +0.000 N 
ATOM     19  H   VAL A  27       9.144   2.842   0.396  0.00  0.00    +0.000 HD
BRANCH  16  20
ATOM     20  CA  LYS A  26       8.972   2.475  -2.155  0.00  0.00    +0.000 C 
BRANCH  20  23
ATOM     21  C   LEU A  25       7.503   0.510  -2.551  0.00  0.00    +0.000 C 
ATOM     22  O   LEU A  25       7.752  -0.022  -1.468  0.00  0.00    +0.000 OA
ATOM     23  N   LYS A  26       8.041   1.672  -2.939  0.00  0.00    +0.000 N 
ATOM     24  H   LYS A  26       7.760   2.037  -3.839  0.00  0.00    +0.000 HD
BRANCH  21  25
ATOM     25  CA  LEU A  25       6.538  -0.147  -3.543  0.00  0.00    +0.000 C 
BRANCH  25  28
ATOM     26  C   ILE A  24       7.939  -1.090  -5.363  0.00  0.00    +0.000 C 
ATOM     27  O   ILE A  24       8.018  -0.021  -5.968  0.00  0.00    +0.000 OA
ATOM     28  N   LEU A  25       7.245  -1.229  -4.225  0.00  0.00    +0.000 N 
ATOM     29  H   LEU A  25       7.226  -2.139  -3.785  0.00  0.00    +0.000 HD
BRANCH  26  30
ATOM     30  CA  ILE A  24       8.649  -2.343  -5.898  0.00  0.00    +0.000 C 
BRANCH  30  33
ATOM     31  C   ASP A  23       6.867  -3.877  -6.713  0.00  0.00    +0.000 C 
ATOM     32  O   ASP A  23       6.651  -4.364  -5.604  0.00  0.00    +0.000 OA
ATOM     33  N   ILE A  24       7.800  -2.945  -6.928  0.00  0.00    +0.000 N 
ATOM     34  H   ILE A  24       7.886  -2.622  -7.879  0.00  0.00    +0.000 HD
BRANCH  31  35
ATOM     35  CA  ASP A  23       6.052  -4.298  -7.949  0.00  0.00    +0.000 C 
BRANCH  35  38
ATOM     36  C   GLY A  22       6.448  -6.750  -7.709  0.00  0.00    +0.000 C 
ATOM     37  O   GLY A  22       7.659  -6.624  -7.528  0.00  0.00    +0.000 OA
ATOM     38  N   ASP A  23       5.633  -5.694  -7.889  0.00  0.00    +0.000 N 
ATOM     39  H   ASP A  23       4.648  -5.840  -8.035  0.00  0.00    +0.000 HD
BRANCH  36  40
ATOM     40  CA  GLY A  22       5.838  -8.160  -7.750  0.00  0.00    +0.000 C 
BRANCH  40  43
ATOM     41  C   ARG A  21       3.388  -8.606  -7.768  0.00  0.00    +0.000 C 
ATOM     42  O   ARG A  21       3.383  -9.056  -8.913  0.00  0.00    +0.000 OA
ATOM     43  N   GLY A  22       4.511  -8.226  -7.140  0.00  0.00    +0.000 N 
ATOM     44  H   GLY A  22       4.434  -7.926  -6.177  0.00  0.00    +0.000 HD
BRANCH  41  45
ATOM     45  CA  ARG A  21       2.062  -8.401  -7.011  0.00  0.00    +0.000 C 
BRANCH  45  48
ATOM     46  C   LYS A  20       1.486  -6.223  -8.062  0.00  0.00    +0.000 C 
ATOM     47  O   LYS A  20       2.543  -5.687  -7.732  0.00  0.00    +0.000 OA
ATOM     48  N   ARG A  21       1.184  -7.488  -7.737  0.00  0.00    +0.000 N 
ATOM     49  H   ARG A  21       0.298  -7.855  -8.049  0.00  0.00    +0.000 HD
BRANCH  46  50
ATOM     50  CA  LYS A  20       0.446  -5.477  -8.910  0.00  0.00    +0.000 C 
BRANCH  50  53
ATOM     51  C   PHE A  19      -0.451  -3.365  -7.944  0.00  0.00    +0.000 C 
ATOM     52  O   PHE A  19      -1.436  -3.903  -7.439  0.00  0.00    +0.000 OA
ATOM     53  N   LYS A  20       0.476  -4.042  -8.637  0.00  0.00    +0.000 N 
ATOM     54  H   LYS A  20       1.275  -3.531  -8.994  0.00  0.00    +0.000 HD
BRANCH  51  55
ATOM     55  CA  PHE A  19      -0.224  -1.854  -7.803  0.00  0.00    +0.000 C 
BRANCH  55  58
ATOM     56  C   SER A  18      -1.706   0.137  -7.771  0.00  0.00    +0.000 C 
ATOM     57  O   SER A  18      -0.894   0.863  -8.346  0.00  0.00    +0.000 OA
ATOM     58  N   PHE A  19      -1.476  -1.156  -7.510  0.00  0.00    +0.000 N 
ATOM     59  H   PHE A  19      -2.209  -1.695  -7.066  0.00  0.00    +0.000 HD
BRANCH  56  60
ATOM     60  CA  SER A  18      -3.058   0.704  -7.325  0.00  0.00    +0.000 C 
BRANCH  60  63
ATOM     61  C   LEU A  17      -2.683   2.131  -5.333  0.00  0.00    +0.000 C 
ATOM     62  O   LEU A  17      -2.725   1.187  -4.544  0.00  0.00    +0.000 OA
ATOM     63  N   SER A  18      -2.870   1.990  -6.653  0.00  0.00    +0.000 N 
ATOM     64  H   SER A  18      -2.795   2.815  -7.229  0.00  0.00    +0.000 HD
BRANCH  61  65
ATOM     65  CA  LEU A  17      -2.370   3.543  -4.822  0.00  0.00    +0.000 C 
BRANCH  65  68
ATOM     66  C   GLU A  16      -4.648   4.152  -4.067  0.00  0.00    +0.000 C 
ATOM     67  O   GLU A  16      -5.143   3.906  -5.167  0.00  0.00    +0.000 OA
ATOM     68  N   LEU A  17      -3.344   3.965  -3.816  0.00  0.00    +0.000 N 
ATOM     69  H   LEU A  17      -3.000   4.152  -2.885  0.00  0.00    +0.000 HD
BRANCH  66  70
ATOM     70  CA  GLU A  16      -5.520   4.740  -2.943  0.00  0.00    +0.000 C 
BRANCH  70  73
ATOM     71  C   ASP A  15      -5.393   7.128  -3.611  0.00  0.00    +0.000 C 
ATOM     72  O   ASP A  15      -4.224   7.254  -3.247  0.00  0.00    +0.000 OA
ATOM     73  N   GLU A  16      -6.086   5.994  -3.425  0.00  0.00    +0.000 N 
ATOM     74  H   GLU A  16      -7.068   6.001  -3.675  0.00  0.00    +0.000 HD
BRANCH  71  75
ATOM     75  CA  ASP A  15      -6.104   8.272  -4.360  0.00  0.00    +0.000 C 
BRANCH  75  78
ATOM     76  C   ASP A  14      -7.192   8.387  -6.625  0.00  0.00    +0.000 C 
ATOM     77  O   ASP A  14      -7.024   9.596  -6.781  0.00  0.00    +0.000 OA
ATOM     78  N   ASP A  15      -6.797   7.729  -5.529  0.00  0.00    +0.000 N 
ATOM     79  H   ASP A  15      -7.030   6.745  -5.499  0.00  0.00    +0.000 HD
BRANCH  76  80
ATOM     80  CA  ASP A  14      -7.876   7.516  -7.701  0.00  0.00    +0.000 C 
BRANCH  80  83
ATOM     81  C   ALA A  13      -9.338   5.970  -6.408  0.00  0.00    +0.000 C 
ATOM     82  O   ALA A  13      -8.392   5.314  -5.967  0.00  0.00    +0.000 OA
ATOM     83  N   ASP A  14      -9.171   7.026  -7.223  0.00  0.00    +0.000 N 
ATOM     84  H   ASP A  14      -9.991   7.519  -7.543  0.00  0.00    +0.000 HD
BRANCH  81  85
ATOM     85  CA  ALA A  13     -10.782   5.598  -6.024  0.00  0.00    +0.000 C 
ATOM     86  CB  ALA A  13     -11.086   5.992  -4.573  0.00  0.00    +0.000 C 
BRANCH  85  89
ATOM     87  C   THR A  12     -11.289   3.534  -7.328  0.00  0.00    +0.000 C 
ATOM     88  O   THR A  12     -11.383   4.123  -8.403  0.00  0.00    +0.000 OA
ATOM     89  N   ALA A  13     -11.014   4.163  -6.174  0.00  0.00    +0.000 N 
ATOM     90  H   ALA A  13     -10.939   3.603  -5.338  0.00  0.00    +0.000 HD
BRANCH  87  91
ATOM     91  CA  THR A  12     -11.490   2.011  -7.254  0.00  0.00    +0.000 C 
BRANCH  91  94
ATOM     92  C   ALA A  11      -9.218   1.000  -7.317  0.00  0.00    +0.000 C 
ATOM     93  O   ALA A  11      -9.150   0.995  -8.546  0.00  0.00    +0.000 OA
ATOM     94  N   THR A  12     -10.309   1.395  -6.646  0.00  0.00    +0.000 N 
ATOM     95  H   THR A  12     -10.288   1.339  -5.639  0.00  0.00    +0.000 HD
BRANCH  92  96
ATOM     96  CA  ALA A  11      -8.001   0.598  -6.468  0.00  0.00    +0.000 C 
ATOM     97  CB  ALA A  11      -7.032   1.783  -6.363  0.00  0.00    +0.000 C 
BRANCH  96 100
ATOM     98  C   LYS A  10      -7.815  -1.818  -6.976  0.00  0.00    +0.000 C 
ATOM     99  O   LYS A  10      -8.942  -2.062  -6.545  0.00  0.00    +0.000 OA
ATOM    100  N   ALA A  11      -7.309  -0.575  -7.005  0.00  0.00    +0.000 N 
ATOM    101  H   ALA A  11      -6.380  -0.442  -7.375  0.00  0.00    +0.000 HD
BRANCH  98 102
ATOM    102  CA  LYS A  10      -6.914  -2.952  -7.488  0.00  0.00    +0.000 C 
BRANCH 102 105
ATOM    103  C   PHE A   9      -4.834  -3.136  -6.133  0.00  0.00    +0.000 C 
ATOM    104  O   PHE A   9      -4.193  -2.359  -6.842  0.00  0.00    +0.000 OA
ATOM    105  N   LYS A  10      -6.111  -3.459  -6.379  0.00  0.00    +0.000 N 
ATOM    106  H   LYS A  10      -6.560  -4.112  -5.754  0.00  0.00    +0.000 HD
BRANCH 103 107
ATOM    107  CA  PHE A   9      -4.183  -3.783  -4.901  0.00  0.00    +0.000 C 
BRANCH 107 110
ATOM    108  C   ASP A   8      -3.353  -6.057  -5.455  0.00  0.00    +0.000 C 
ATOM    109  O   ASP A   8      -4.388  -6.610  -5.083  0.00  0.00    +0.000 OA
ATOM    110  N   PHE A   9      -3.162  -4.732  -5.342  0.00  0.00    +0.000 N 
ATOM    111  H   PHE A   9      -2.296  -4.348  -5.697  0.00  0.00    +0.000 HD
BRANCH 108 112
ATOM    112  CA  ASP A   8      -2.221  -6.885  -6.093  0.00  0.00    +0.000 C 
BRANCH 112 115
ATOM    113  C   VAL A   7      -1.184  -7.934  -4.090  0.00  0.00    +0.000 C 
ATOM    114  O   VAL A   7      -0.776  -6.864  -3.634  0.00  0.00    +0.000 OA
ATOM    115  N   ASP A   8      -1.856  -8.017  -5.247  0.00  0.00    +0.000 N 
ATOM    116  H   ASP A   8      -2.176  -8.924  -5.558  0.00  0.00    +0.000 HD
BRANCH 113 117
ATOM    117  CA  VAL A   7      -0.936  -9.260  -3.344  0.00  0.00    +0.000 C 
BRANCH 117 120
ATOM    118  C   LYS A   6       1.353 -10.080  -2.751  0.00  0.00    +0.000 C 
ATOM    119  O   LYS A   6       1.244 -11.143  -3.361  0.00  0.00    +0.000 OA
ATOM    120  N   VAL A   7       0.350  -9.196  -2.646  0.00  0.00    +0.000 N 
ATOM    121  H   VAL A   7       0.524  -8.355  -2.110  0.00  0.00    +0.000 HD
BRANCH 118 122
ATOM    122  CA  LYS A   6       2.694  -9.695  -2.100  0.00  0.00    +0.000 C 
BRANCH 122 125
ATOM    123  C   ALA A   5       3.689  -7.820  -3.408  0.00  0.00    +0.000 C 
ATOM    124  O   ALA A   5       4.115  -8.543  -4.308  0.00  0.00    +0.000 OA
ATOM    125  N   LYS A   6       3.004  -8.289  -2.358  0.00  0.00    +0.000 N 
ATOM    126  H   LYS A   6       2.669  -7.623  -1.675  0.00  0.00    +0.000 HD
BRANCH 123 127
ATOM    127  CA  ALA A   5       3.938  -6.304  -3.440  0.00  0.00    +0.000 C 
ATOM    128  CB  ALA A   5       3.343  -5.660  -4.695  0.00  0.00    +0.000 C 
BRANCH 127 131
ATOM    129  C   ILE A   4       6.181  -6.390  -2.385  0.00  0.00    +0.000 C 
ATOM    130  O   ILE A   4       5.769  -6.970  -1.382  0.00  0.00    +0.000 OA
ATOM    131  N   ALA A   5       5.367  -6.011  -3.379  0.00  0.00    +0.000 N 
ATOM    132  H   ALA A   5       5.774  -5.543  -4.174  0.00  0.00    +0.000 HD
BRANCH 129 133
ATOM    133  CA  ILE A   4       7.683  -6.125  -2.561  0.00  0.00    +0.000 C 
BRANCH 133 136
ATOM    134  C   ALA A   3       8.196  -4.053  -1.277  0.00  0.00    +0.000 C 
ATOM    135  O   ALA A   3       7.710  -3.301  -2.123  0.00  0.00    +0.000 OA
ATOM    136  N   ILE A   4       8.181  -5.389  -1.399  0.00  0.00    +0.000 N 
ATOM    137  H   ILE A   4       8.580  -5.936  -0.650  0.00  0.00    +0.000 HD
BRANCH 134 138
ATOM    138  CA  ALA A   3       8.866  -3.493  -0.010  0.00  0.00    +0.000 C 
ATOM    139  CB  ALA A   3       7.873  -3.390   1.155  0.00  0.00    +0.000 C 
BRANCH 138 142
ATOM    140  C   GLU A   2      10.572  -1.721   0.331  0.00  0.00    +0.000 C 
ATOM    141  O   GLU A   2      11.313  -2.437   1.007  0.00  0.00    +0.000 OA
ATOM    142  N   ALA A   3       9.445  -2.171  -0.241  0.00  0.00    +0.000 N 
ATOM    143  H   ALA A   3       8.893  -1.520  -0.786  0.00  0.00    +0.000 HD
BRANCH 140 144
ATOM    144  CA  GLU A   2      10.882  -0.228   0.147  0.00  0.00    +0.000 C 
BRANCH 144 147
ATOM    145  C   MET A   1      11.454   1.573   1.758  0.00  0.00    +0.000 C 
ATOM    146  O   MET A   1      10.885   2.442   1.096  0.00  0.00    +0.000 OA
ATOM    147  N   GLU A   2      11.567   0.310   1.322  0.00  0.00    +0.000 N 
ATOM    148  H   GLU A   2      12.077  -0.352   1.888  0.00  0.00    +0.000 HD
BRANCH 145 149
ATOM    149  CA  MET A   1      12.086   1.892   3.129  0.00  0.00    +0.000 C 
BRANCH 149 150
ATOM    150  N   MET A   1      11.739   3.234   3.588  0.00  0.00    +0.000 N 
ATOM    151  H3  MET A   1      10.601   3.544   3.843  0.00  0.00    +0.000 HD
ATOM    152  H   MET A   1      11.883   3.953   2.893  0.00  0.00    +0.000 HD
ATOM    153  H2  MET A   1      12.118   3.466   4.495  0.00  0.00    +0.000 HD
ENDBRANCH 149 150
BRANCH 149 154
ATOM    154  CB  MET A   1      11.740   0.866   4.234  0.00  0.00    +0.000 C 
BRANCH 154 155
ATOM    155  CG  MET A   1      10.249   0.737   4.605  0.00  0.00    +0.000 C 
BRANCH 155 156
ATOM    156  SD  MET A   1       9.179  -0.157   3.438  0.00  0.00    +0.000 S 
ATOM    157  CE  MET A   1       7.781  -0.560   4.517  0.00  0.00    +0.000 C 
ENDBRANCH 155 156
ENDBRANCH 154 155
ENDBRANCH 149 154
ENDBRANCH 145 149
ENDBRANCH 144 147
BRANCH 144 158
ATOM    158  CB  GLU A   2      11.674   0.071  -1.138  0.00  0.00    +0.000 C 
BRANCH 158 159
ATOM    159  CG  GLU A   2      13.087  -0.531  -1.177  0.00  0.00    +0.000 C 
BRANCH 159 160
ATOM    160  CD  GLU A   2      13.865  -0.028  -2.396  0.00  0.00    +0.000 C 
ATOM    161  OE1 GLU A   2      14.279   1.153  -2.355  0.00  0.00    +0.000 OA
ATOM    162  OE2 GLU A   2      14.015  -0.820  -3.351  0.00  0.00    +0.000 OA
ENDBRANCH 159 160
ENDBRANCH 158 159
ENDBRANCH 144 158
ENDBRANCH 140 144
ENDBRANCH 138 142
ENDBRANCH 134 138
ENDBRANCH 133 136
BRANCH 133 163
ATOM    163  CB  ILE A   4       8.467  -7.451  -2.741  0.00  0.00    +0.000 C 
ATOM    164  CG2 ILE A   4       7.839  -8.300  -3.867  0.00  0.00    +0.000 C 
BRANCH 163 165
ATOM    165  CG1 ILE A   4       9.957  -7.244  -3.104  0.00  0.00    +0.000 C 
ATOM    166  CD1 ILE A   4      10.827  -6.617  -2.005  0.00  0.00    +0.000 C 
ENDBRANCH 163 165
ENDBRANCH 133 163
ENDBRANCH 129 133
ENDBRANCH 127 131
ENDBRANCH 123 127
ENDBRANCH 122 125
BRANCH 122 167
ATOM    167  CB  LYS A   6       2.722  -9.912  -0.576  0.00  0.00    +0.000 C 
BRANCH 167 168
ATOM    168  CG  LYS A   6       2.319 -11.328  -0.141  0.00  0.00    +0.000 C 
BRANCH 168 169
ATOM    169  CD  LYS A   6       2.747 -11.634   1.307  0.00  0.00    +0.000 C 
BRANCH 169 170
ATOM    170  CE  LYS A   6       2.392 -10.543   2.334  0.00  0.00    +0.000 C 
BRANCH 170 171
ATOM    171  NZ  LYS A   6       0.944 -10.267   2.377  0.00  0.00    +0.000 N 
ATOM    172  HZ1 LYS A   6       0.625  -9.999   1.458  0.00  0.00    +0.000 HD
ATOM    173  HZ2 LYS A   6       0.446 -11.092   2.678  0.00  0.00    +0.000 HD
ATOM    174  HZ3 LYS A   6       0.757  -9.504   3.017  0.00  0.00    +0.000 HD
ENDBRANCH 170 171
ENDBRANCH 169 170
ENDBRANCH 168 169
ENDBRANCH 167 168
ENDBRANCH 122 167
ENDBRANCH 118 122
ENDBRANCH 117 120
BRANCH 117 175
ATOM    175  CB  VAL A   7      -2.068  -9.620  -2.353  0.00  0.00    +0.000 C 
ATOM    176  CG1 VAL A   7      -2.005  -8.764  -1.084  0.00  0.00    +0.000 C 
ATOM    177  CG2 VAL A   7      -3.466  -9.517  -2.988  0.00  0.00    +0.000 C 
ENDBRANCH 117 175
ENDBRANCH 113 117
ENDBRANCH 112 115
BRANCH 112 178
ATOM    178  CB  ASP A   8      -2.601  -7.400  -7.498  0.00  0.00    +0.000 C 
BRANCH 178 179
ATOM    179  CG  ASP A   8      -3.749  -8.414  -7.499  0.00  0.00    +0.000 C 
ATOM    180  OD1 ASP A   8      -3.493  -9.557  -7.055  0.00  0.00    +0.000 OA
ATOM    181  OD2 ASP A   8      -4.853  -8.035  -7.948  0.00  0.00    +0.000 OA
ENDBRANCH 178 179
ENDBRANCH 112 178
ENDBRANCH 108 112
ENDBRANCH 107 110
BRANCH 107 182
ATOM    182  CB  PHE A   9      -3.580  -2.732  -3.953  0.00  0.00    +0.000 C 
BRANCH 182 183
ATOM    183  CG  PHE A   9      -4.629  -1.890  -3.237  0.00  0.00    +0.000 A 
ATOM    184  CD1 PHE A   9      -5.144  -0.722  -3.842  0.00  0.00    +0.000 A 
ATOM    185  CD2 PHE A   9      -5.185  -2.340  -2.018  0.00  0.00    +0.000 A 
ATOM    186  CE1 PHE A   9      -6.163   0.019  -3.207  0.00  0.00    +0.000 A 
ATOM    187  CE2 PHE A   9      -6.219  -1.611  -1.393  0.00  0.00    +0.000 A 
ATOM    188  CZ  PHE A   9      -6.707  -0.429  -1.987  0.00  0.00    +0.000 A 
ENDBRANCH 182 183
ENDBRANCH 107 182
ENDBRANCH 103 107
ENDBRANCH 102 105
BRANCH 102 189
ATOM    189  CB  LYS A  10      -7.700  -4.129  -8.096  0.00  0.00    +0.000 C 
BRANCH 189 190
ATOM    190  CG  LYS A  10      -8.479  -3.730  -9.358  0.00  0.00    +0.000 C 
BRANCH 190 191
ATOM    191  CD  LYS A  10      -9.162  -4.965  -9.964  0.00  0.00    +0.000 C 
BRANCH 191 192
ATOM    192  CE  LYS A  10      -9.931  -4.601 -11.240  0.00  0.00    +0.000 C 
BRANCH 192 193
ATOM    193  NZ  LYS A  10     -10.568  -5.790 -11.836  0.00  0.00    +0.000 N 
ATOM    194  HZ1 LYS A  10      -9.860  -6.472 -12.070  0.00  0.00    +0.000 HD
ATOM    195  HZ2 LYS A  10     -11.216  -6.195 -11.176  0.00  0.00    +0.000 HD
ATOM    196  HZ3 LYS A  10     -11.067  -5.526 -12.674  0.00  0.00    +0.000 HD
ENDBRANCH 192 193
ENDBRANCH 191 192
ENDBRANCH 190 191
ENDBRANCH 189 190
ENDBRANCH 102 189
ENDBRANCH  98 102
ENDBRANCH  96 100
ENDBRANCH  92  96
ENDBRANCH  91  94
BRANCH  91 197
ATOM    197  CB  THR A  12     -12.757   1.635  -6.456  0.00  0.00    +0.000 C 
ATOM    198  CG2 THR A  12     -14.027   2.240  -7.073  0.00  0.00    +0.000 C 
BRANCH 197 199
ATOM    199  OG1 THR A  12     -12.906   0.228  -6.424  0.00  0.00    +0.000 OA
ATOM    200  HG1 THR A  12     -13.698   0.012  -5.927  0.00  0.00    +0.000 HD
ENDBRANCH 197 199
ENDBRANCH  91 197
ENDBRANCH  87  91
ENDBRANCH  85  89
ENDBRANCH  81  85
ENDBRANCH  80  83
BRANCH  80 201
ATOM    201  CB  ASP A  14      -8.072   8.230  -9.054  0.00  0.00    +0.000 C 
BRANCH 201 202
ATOM    202  CG  ASP A  14      -6.749   8.610  -9.726  0.00  0.00    +0.000 C 
ATOM    203  OD1 ASP A  14      -5.890   7.709  -9.851  0.00  0.00    +0.000 OA
ATOM    204  OD2 ASP A  14      -6.621   9.791 -10.116  0.00  0.00    +0.000 OA
ENDBRANCH 201 202
ENDBRANCH  80 201
ENDBRANCH  76  80
ENDBRANCH  75  78
BRANCH  75 205
ATOM    205  CB  ASP A  15      -7.056   9.110  -3.475  0.00  0.00    +0.000 C 
BRANCH 205 206
ATOM    206  CG  ASP A  15      -8.335   8.420  -2.990  0.00  0.00    +0.000 C 
ATOM    207  OD1 ASP A  15      -8.567   7.251  -3.363  0.00  0.00    +0.000 OA
ATOM    208  OD2 ASP A  15      -9.080   9.087  -2.237  0.00  0.00    +0.000 OA
ENDBRANCH 205 206
ENDBRANCH  75 205
ENDBRANCH  71  75
ENDBRANCH  70  73
BRANCH  70 209
ATOM    209  CB  GLU A  16      -6.647   3.767  -2.541  0.00  0.00    +0.000 C 
BRANCH 209 210
ATOM    210  CG  GLU A  16      -7.651   4.334  -1.522  0.00  0.00    +0.000 C 
BRANCH 210 211
ATOM    211  CD  GLU A  16      -6.981   4.942  -0.291  0.00  0.00    +0.000 C 
ATOM    212  OE1 GLU A  16      -6.614   4.159   0.609  0.00  0.00    +0.000 OA
ATOM    213  OE2 GLU A  16      -6.874   6.187  -0.252  0.00  0.00    +0.000 OA
ENDBRANCH 210 211
ENDBRANCH 209 210
ENDBRANCH  70 209
ENDBRANCH  66  70
ENDBRANCH  65  68
BRANCH  65 214
ATOM    214  CB  LEU A  17      -0.952   3.606  -4.228  0.00  0.00    +0.000 C 
BRANCH 214 215
ATOM    215  CG  LEU A  17       0.184   3.287  -5.220  0.00  0.00    +0.000 C 
ATOM    216  CD1 LEU A  17       0.205   4.265  -6.399  0.00  0.00    +0.000 C 
ATOM    217  CD2 LEU A  17       1.532   3.370  -4.493  0.00  0.00    +0.000 C 
ENDBRANCH 214 215
ENDBRANCH  65 214
ENDBRANCH  61  65
ENDBRANCH  60  63
BRANCH  60 218
ATOM    218  CB  SER A  18      -4.015   0.845  -8.516  0.00  0.00    +0.000 C 
BRANCH 218 219
ATOM    219  OG  SER A  18      -4.280  -0.425  -9.081  0.00  0.00    +0.000 OA
ATOM    220  HG  SER A  18      -4.446  -1.057  -8.374  0.00  0.00    +0.000 HD
ENDBRANCH 218 219
ENDBRANCH  60 218
ENDBRANCH  56  60
ENDBRANCH  55  58
BRANCH  55 221
ATOM    221  CB  PHE A  19       0.826  -1.537  -6.724  0.00  0.00    +0.000 C 
BRANCH 221 222
ATOM    222  CG  PHE A  19       0.425  -1.878  -5.293  0.00  0.00    +0.000 A 
ATOM    223  CD1 PHE A  19      -0.218  -0.909  -4.490  0.00  0.00    +0.000 A 
ATOM    224  CD2 PHE A  19       0.737  -3.142  -4.742  0.00  0.00    +0.000 A 
ATOM    225  CE1 PHE A  19      -0.528  -1.191  -3.143  0.00  0.00    +0.000 A 
ATOM    226  CE2 PHE A  19       0.484  -3.402  -3.377  0.00  0.00    +0.000 A 
ATOM    227  CZ  PHE A  19      -0.140  -2.422  -2.576  0.00  0.00    +0.000 A 
ENDBRANCH 221 222
ENDBRANCH  55 221
ENDBRANCH  51  55
ENDBRANCH  50  53
BRANCH  50 228
ATOM    228  CB  LYS A  20       0.686  -5.731 -10.408  0.00  0.00    +0.000 C 
BRANCH 228 229
ATOM    229  CG  LYS A  20      -0.444  -5.150 -11.272  0.00  0.00    +0.000 C 
BRANCH 229 230
ATOM    230  CD  LYS A  20      -0.248  -5.533 -12.746  0.00  0.00    +0.000 C 
BRANCH 230 231
ATOM    231  CE  LYS A  20      -1.395  -4.986 -13.606  0.00  0.00    +0.000 C 
BRANCH 231 232
ATOM    232  NZ  LYS A  20      -1.245  -5.381 -15.018  0.00  0.00    +0.000 N 
ATOM    233  HZ1 LYS A  20      -0.373  -5.021 -15.380  0.00  0.00    +0.000 HD
ATOM    234  HZ2 LYS A  20      -1.244  -6.389 -15.090  0.00  0.00    +0.000 HD
ATOM    235  HZ3 LYS A  20      -2.011  -5.008 -15.561  0.00  0.00    +0.000 HD
ENDBRANCH 231 232
ENDBRANCH 230 231
ENDBRANCH 229 230
ENDBRANCH 228 229
ENDBRANCH  50 228
ENDBRANCH  46  50
ENDBRANCH  45  48
BRANCH  45 236
ATOM    236  CB  ARG A  21       1.310  -9.712  -6.726  0.00  0.00    +0.000 C 
BRANCH 236 237
ATOM    237  CG  ARG A  21       0.918 -10.509  -7.987  0.00  0.00    +0.000 C 
BRANCH 237 238
ATOM    238  CD  ARG A  21      -0.385 -11.292  -7.778  0.00  0.00    +0.000 C 
BRANCH 238 239
ATOM    239  NE  ARG A  21      -0.309 -12.166  -6.594  0.00  0.00    +0.000 N 
ATOM    240  CZ  ARG A  21      -1.278 -12.400  -5.691  0.00  0.00    +0.000 C 
ATOM    241  NH1 ARG A  21      -2.496 -11.855  -5.789  0.00  0.00    +0.000 N 
ATOM    242  NH2 ARG A  21      -1.018 -13.198  -4.652  0.00  0.00    +0.000 N 
ATOM    243  HE  ARG A  21       0.582 -12.614  -6.439  0.00  0.00    +0.000 HD
ATOM    244 HH11 ARG A  21      -2.718 -11.189  -6.521  0.00  0.00    +0.000 HD
ATOM    245 HH12 ARG A  21      -3.199 -12.070  -5.099  0.00  0.00    +0.000 HD
ATOM    246 HH21 ARG A  21      -0.097 -13.595  -4.539  0.00  0.00    +0.000 HD
ATOM    247 HH22 ARG A  21      -1.733 -13.382  -3.965  0.00  0.00    +0.000 HD
ENDBRANCH 238 239
ENDBRANCH 237 238
ENDBRANCH 236 237
ENDBRANCH  45 236
ENDBRANCH  41  45
ENDBRANCH  40  43
ENDBRANCH  36  40
ENDBRANCH  35  38
BRANCH  35 248
ATOM    248  CB  ASP A  23       4.811  -3.392  -8.099  0.00  0.00    +0.000 C 
BRANCH 248 249
ATOM    249  CG  ASP A  23       4.014  -3.562  -9.397  0.00  0.00    +0.000 C 
ATOM    250  OD1 ASP A  23       4.468  -4.321 -10.280  0.00  0.00    +0.000 OA
ATOM    251  OD2 ASP A  23       2.947  -2.914  -9.482  0.00  0.00    +0.000 OA
ENDBRANCH 248 249
ENDBRANCH  35 248
ENDBRANCH  31  35
ENDBRANCH  30  33
BRANCH  30 252
ATOM    252  CB  ILE A  24      10.062  -2.042  -6.457  0.00  0.00    +0.000 C 
ATOM    253  CG2 ILE A  24      10.946  -1.409  -5.362  0.00  0.00    +0.000 C 
BRANCH 252 254
ATOM    254  CG1 ILE A  24      10.717  -3.334  -6.997  0.00  0.00    +0.000 C 
ATOM    255  CD1 ILE A  24      12.094  -3.105  -7.636  0.00  0.00    +0.000 C 
ENDBRANCH 252 254
ENDBRANCH  30 252
ENDBRANCH  26  30
ENDBRANCH  25  28
BRANCH  25 256
ATOM    256  CB  LEU A  25       5.282  -0.688  -2.833  0.00  0.00    +0.000 C 
BRANCH 256 257
ATOM    257  CG  LEU A  25       4.073  -0.965  -3.752  0.00  0.00    +0.000 C 
ATOM    258  CD1 LEU A  25       3.427   0.337  -4.251  0.00  0.00    +0.000 C 
ATOM    259  CD2 LEU A  25       4.408  -1.878  -4.934  0.00  0.00    +0.000 C 
ENDBRANCH 256 257
ENDBRANCH  25 256
ENDBRANCH  21  25
ENDBRANCH  20  23
BRANCH  20 260
ATOM    260  CB  LYS A  26       9.965   3.172  -3.100  0.00  0.00    +0.000 C 
BRANCH 260 261
ATOM    261  CG  LYS A  26      11.040   3.946  -2.321  0.00  0.00    +0.000 C 
BRANCH 261 262
ATOM    262  CD  LYS A  26      12.250   4.255  -3.219  0.00  0.00    +0.000 C 
BRANCH 262 263
ATOM    263  CE  LYS A  26      13.445   4.798  -2.422  0.00  0.00    +0.000 C 
BRANCH 263 264
ATOM    264  NZ  LYS A  26      13.983   3.796  -1.480  0.00  0.00    +0.000 N 
ATOM    265  HZ1 LYS A  26      14.196   2.934  -1.972  0.00  0.00    +0.000 HD
ATOM    266  HZ2 LYS A  26      14.825   4.147  -1.045  0.00  0.00    +0.000 HD
ATOM    267  HZ3 LYS A  26      13.299   3.595  -0.765  0.00  0.00    +0.000 HD
ENDBRANCH 263 264
ENDBRANCH 262 263
ENDBRANCH 261 262
ENDBRANCH 260 261
ENDBRANCH  20 260
ENDBRANCH  16  20
ENDBRANCH  15  18
BRANCH  15 268
ATOM    268  CB  VAL A  27       7.557   3.459   2.339  0.00  0.00    +0.000 C 
ATOM    269  CG1 VAL A  27       6.976   4.316   3.478  0.00  0.00    +0.000 C 
ATOM    270  CG2 VAL A  27       6.658   2.228   2.155  0.00  0.00    +0.000 C 
ENDBRANCH  15 268
ENDBRANCH  11  15
ENDBRANCH  10  13
BRANCH  10 271
ATOM    271  CB  LEU A  28       6.816   8.901   0.360  0.00  0.00    +0.000 C 
BRANCH 271 272
ATOM    272  CG  LEU A  28       6.928   8.549  -1.139  0.00  0.00    +0.000 C 
ATOM    273  CD1 LEU A  28       6.067   9.537  -1.943  0.00  0.00    +0.000 C 
ATOM    274  CD2 LEU A  28       8.377   8.584  -1.653  0.00  0.00    +0.000 C 
ENDBRANCH 271 272
ENDBRANCH  10 271
ENDBRANCH   6  10
ENDBRANCH   5   8
BRANCH   5 275
ATOM    275  CB  ASN A  29       5.591  10.024   4.843  0.00  0.00    +0.000 C 
BRANCH 275 276
ATOM    276  CG  ASN A  29       5.124  10.441   6.236  0.00  0.00    +0.000 C 
ATOM    277  OD1 ASN A  29       4.089  11.085   6.383  0.00  0.00    +0.000 OA
ATOM    278  ND2 ASN A  29       5.851  10.059   7.278  0.00  0.00    +0.000 N 
ATOM    279 HD21 ASN A  29       6.690   9.497   7.183  0.00  0.00    +0.000 HD
ATOM    280 HD22 ASN A  29       5.497  10.308   8.186  0.00  0.00    +0.000 HD
ENDBRANCH 275 276
ENDBRANCH   5 275
ENDBRANCH   1   5
BRANCH   3 281
ATOM    281  CA  GLU A  30       4.669   5.693   6.928  0.00  0.00    +0.000 C 
BRANCH 281 282
ATOM    282  C   GLU A  30       4.511   6.270   8.351  0.00  0.00    +0.000 C 
ATOM    283  O   GLU A  30       3.591   5.875   9.068  0.00  0.00    +0.000 OA
ATOM    284  N   GLU A  31       5.390   7.208   8.750  0.00  0.00    +0.000 N 
ATOM    285  H   GLU A  31       6.122   7.471   8.104  0.00  0.00    +0.000 HD
BRANCH 284 286
ATOM    286  CA  GLU A  31       5.408   7.903  10.035  0.00  0.00    +0.000 C 
BRANCH 286 287
ATOM    287  C   GLU A  31       4.249   8.905  10.079  0.00  0.00    +0.000 C 
ATOM    288  O   GLU A  31       4.418  10.110   9.896  0.00  0.00    +0.000 OA
ATOM    289  N   SER A  32       3.057   8.340  10.275  0.00  0.00    +0.000 N 
ATOM    290  H   SER A  32       3.089   7.334  10.384  0.00  0.00    +0.000 HD
BRANCH 289 291
ATOM    291  CA  SER A  32       1.750   8.979  10.164  0.00  0.00    +0.000 C 
BRANCH 291 292
ATOM    292  C   SER A  32       0.695   8.036  10.753  0.00  0.00    +0.000 C 
ATOM    293  O   SER A  32       0.006   8.387  11.711  0.00  0.00    +0.000 OA
ATOM    294  N   ASP A  33       0.623   6.820  10.196  0.00  0.00    +0.000 N 
ATOM    295  H   ASP A  33       1.237   6.645   9.414  0.00  0.00    +0.000 HD
BRANCH 294 296
ATOM    296  CA  ASP A  33      -0.144   5.693  10.716  0.00  0.00    +0.000 C 
BRANCH 296 297
ATOM    297  C   ASP A  33       0.362   4.363  10.127  0.00  0.00    +0.000 C 
ATOM    298  O   ASP A  33       0.817   4.306   8.983  0.00  0.00    +0.000 OA
ATOM    299  N   GLN A  34       0.263   3.290  10.923  0.00  0.00    +0.000 N 
ATOM    300  H   GLN A  34      -0.119   3.422  11.848  0.00  0.00    +0.000 HD
BRANCH 299 301
ATOM    301  CA  GLN A  34       0.669   1.935  10.554  0.00  0.00    +0.000 C 
BRANCH 301 302
ATOM    302  C   GLN A  34      -0.254   1.321   9.486  0.00  0.00    +0.000 C 
ATOM    303  O   GLN A  34       0.231   0.631   8.592  0.00  0.00    +0.000 OA
ATOM    304  N   ASN A  35      -1.573   1.551   9.584  0.00  0.00    +0.000 N 
ATOM    305  H   ASN A  35      -1.890   2.150  10.333  0.00  0.00    +0.000 HD
BRANCH 304 306
ATOM    306  CA  ASN A  35      -2.599   0.970   8.714  0.00  0.00    +0.000 C 
BRANCH 306 307
ATOM    307  C   ASN A  35      -2.337   1.238   7.221  0.00  0.00    +0.000 C 
ATOM    308  O   ASN A  35      -2.251   0.295   6.432  0.00  0.00    +0.000 OA
ATOM    309  N   TRP A  36      -2.232   2.523   6.849  0.00  0.00    +0.000 N 
ATOM    310  H   TRP A  36      -2.306   3.235   7.567  0.00  0.00    +0.000 HD
BRANCH 309 311
ATOM    311  CA  TRP A  36      -2.083   3.003   5.478  0.00  0.00    +0.000 C 
BRANCH 311 312
ATOM    312  C   TRP A  36      -0.788   3.817   5.333  0.00  0.00    +0.000 C 
ATOM    313  O   TRP A  36      -0.661   4.902   5.899  0.00  0.00    +0.000 OA
ATOM    314  N   TYR A  37       0.157   3.298   4.538  0.00  0.00    +0.000 N 
ATOM    315  H   TYR A  37      -0.023   2.398   4.117  0.00  0.00    +0.000 HD
BRANCH 314 316
ATOM    316  CA  TYR A  37       1.438   3.924   4.222  0.00  0.00    +0.000 C 
BRANCH 316 317
ATOM    317  C   TYR A  37       1.314   4.805   2.977  0.00  0.00    +0.000 C 
ATOM    318  O   TYR A  37       0.725   4.382   1.983  0.00  0.00    +0.000 OA
ATOM    319  N   LYS A  38       1.924   5.998   3.004  0.00  0.00    +0.000 N 
ATOM    320  H   LYS A  38       2.410   6.285   3.843  0.00  0.00    +0.000 HD
BRANCH 319 321
ATOM    321  CA  LYS A  38       2.007   6.873   1.839  0.00  0.00    +0.000 C 
BRANCH 321 322
ATOM    322  C   LYS A  38       3.288   6.523   1.070  0.00  0.00    +0.000 C 
ATOM    323  O   LYS A  38       4.394   6.720   1.579  0.00  0.00    +0.000 OA
ATOM    324  N   ALA A  39       3.119   5.956  -0.135  0.00  0.00    +0.000 N 
ATOM    325  H   ALA A  39       2.177   5.850  -0.484  0.00  0.00    +0.000 HD
BRANCH 324 326
ATOM    326  CA  ALA A  39       4.182   5.351  -0.933  0.00  0.00    +0.000 C 
ATOM    327  CB  ALA A  39       4.104   3.829  -0.745  0.00  0.00    +0.000 C 
BRANCH 326 328
ATOM    328  C   ALA A  39       4.126   5.735  -2.423  0.00  0.00    +0.000 C 
ATOM    329  O   ALA A  39       3.219   6.430  -2.884  0.00  0.00    +0.000 OA
ATOM    330  N   GLU A  40       5.145   5.257  -3.146  0.00  0.00    +0.000 N 
ATOM    331  H   GLU A  40       5.808   4.679  -2.649  0.00  0.00    +0.000 HD
BRANCH 330 332
ATOM    332  CA  GLU A  40       5.528   5.566  -4.515  0.00  0.00    +0.000 C 
BRANCH 332 333
ATOM    333  C   GLU A  40       5.797   4.246  -5.251  0.00  0.00    +0.000 C 
ATOM    334  O   GLU A  40       6.717   3.512  -4.887  0.00  0.00    +0.000 OA
ATOM    335  N   LEU A  41       5.013   3.944  -6.297  0.00  0.00    +0.000 N 
ATOM    336  H   LEU A  41       4.216   4.520  -6.518  0.00  0.00    +0.000 HD
BRANCH 335 337
ATOM    337  CA  LEU A  41       5.238   2.812  -7.181  0.00  0.00    +0.000 C 
BRANCH 337 338
ATOM    338  C   LEU A  41       6.477   3.080  -8.054  0.00  0.00    +0.000 C 
ATOM    339  O   LEU A  41       7.541   2.516  -7.813  0.00  0.00    +0.000 OA
ATOM    340  N   ASN A  42       6.315   3.966  -9.045  0.00  0.00    +0.000 N 
ATOM    341  H   ASN A  42       5.424   4.428  -9.079  0.00  0.00    +0.000 HD
BRANCH 340 342
ATOM    342  CA  ASN A  42       7.299   4.459 -10.001  0.00  0.00    +0.000 C 
BRANCH 342 343
ATOM    343  C   ASN A  42       6.703   5.678 -10.723  0.00  0.00    +0.000 C 
ATOM    344  O   ASN A  42       7.254   6.777 -10.672  0.00  0.00    +0.000 OA
ATOM    345  N   GLY A  43       5.566   5.458 -11.395  0.00  0.00    +0.000 N 
ATOM    346  H   GLY A  43       5.209   4.515 -11.374  0.00  0.00    +0.000 HD
BRANCH 345 347
ATOM    347  CA  GLY A  43       4.822   6.449 -12.166  0.00  0.00    +0.000 C 
BRANCH 347 348
ATOM    348  C   GLY A  43       3.900   7.341 -11.318  0.00  0.00    +0.000 C 
ATOM    349  O   GLY A  43       3.711   8.506 -11.664  0.00  0.00    +0.000 OA
ATOM    350  N   LYS A  44       3.298   6.798 -10.245  0.00  0.00    +0.000 N 
ATOM    351  H   LYS A  44       3.521   5.844 -10.000  0.00  0.00    +0.000 HD
BRANCH 350 352
ATOM    352  CA  LYS A  44       2.297   7.483  -9.419  0.00  0.00    +0.000 C 
BRANCH 352 353
ATOM    353  C   LYS A  44       2.397   7.098  -7.929  0.00  0.00    +0.000 C 
ATOM    354  O   LYS A  44       3.096   6.149  -7.562  0.00  0.00    +0.000 OA
ATOM    355  N   ASP A  45       1.674   7.851  -7.085  0.00  0.00    +0.000 N 
ATOM    356  H   ASP A  45       1.117   8.593  -7.482  0.00  0.00    +0.000 HD
BRANCH 355 357
ATOM    357  CA  ASP A  45       1.757   7.827  -5.623  0.00  0.00    +0.000 C 
BRANCH 357 358
ATOM    358  C   ASP A  45       0.360   7.749  -4.979  0.00  0.00    +0.000 C 
ATOM    359  O   ASP A  45      -0.616   8.254  -5.535  0.00  0.00    +0.000 OA
ATOM    360  N   GLY A  46       0.272   7.132  -3.790  0.00  0.00    +0.000 N 
ATOM    361  H   GLY A  46       1.102   6.692  -3.416  0.00  0.00    +0.000 HD
BRANCH 360 362
ATOM    362  CA  GLY A  46      -0.955   7.082  -2.993  0.00  0.00    +0.000 C 
BRANCH 362 363
ATOM    363  C   GLY A  46      -0.837   6.202  -1.739  0.00  0.00    +0.000 C 
ATOM    364  O   GLY A  46       0.265   5.886  -1.290  0.00  0.00    +0.000 OA
ATOM    365  N   PHE A  47      -1.991   5.800  -1.182  0.00  0.00    +0.000 N 
ATOM    366  H   PHE A  47      -2.853   6.101  -1.618  0.00  0.00    +0.000 HD
BRANCH 365 367
ATOM    367  CA  PHE A  47      -2.106   5.032   0.063  0.00  0.00    +0.000 C 
BRANCH 367 368
ATOM    368  C   PHE A  47      -2.081   3.514  -0.204  0.00  0.00    +0.000 C 
ATOM    369  O   PHE A  47      -2.705   3.038  -1.151  0.00  0.00    +0.000 OA
ATOM    370  N   ILE A  48      -1.351   2.759   0.634  0.00  0.00    +0.000 N 
ATOM    371  H   ILE A  48      -0.879   3.223   1.396  0.00  0.00    +0.000 HD
BRANCH 370 372
ATOM    372  CA  ILE A  48      -1.050   1.334   0.483  0.00  0.00    +0.000 C 
BRANCH 372 373
ATOM    373  C   ILE A  48      -1.346   0.590   1.801  0.00  0.00    +0.000 C 
ATOM    374  O   ILE A  48      -0.793   0.980   2.830  0.00  0.00    +0.000 OA
ATOM    375  N   PRO A  49      -2.150  -0.496   1.806  0.00  0.00    +0.000 N 
ATOM    376  CA  PRO A  49      -2.353  -1.330   2.991  0.00  0.00    +0.000 C 
ATOM    377  CB  PRO A  49      -3.352  -2.423   2.582  0.00  0.00    +0.000 C 
ATOM    378  CG  PRO A  49      -4.058  -1.835   1.367  0.00  0.00    +0.000 C 
ATOM    379  CD  PRO A  49      -2.955  -1.008   0.704  0.00  0.00    +0.000 C 
BRANCH 376 380
ATOM    380  C   PRO A  49      -1.048  -1.976   3.485  0.00  0.00    +0.000 C 
ATOM    381  O   PRO A  49      -0.290  -2.529   2.687  0.00  0.00    +0.000 OA
ATOM    382  N   LYS A  50      -0.827  -1.962   4.807  0.00  0.00    +0.000 N 
ATOM    383  H   LYS A  50      -1.461  -1.430   5.390  0.00  0.00    +0.000 HD
BRANCH 382 384
ATOM    384  CA  LYS A  50       0.243  -2.705   5.479  0.00  0.00    +0.000 C 
BRANCH 384 385
ATOM    385  C   LYS A  50       0.272  -4.200   5.096  0.00  0.00    +0.000 C 
ATOM    386  O   LYS A  50       1.343  -4.774   4.902  0.00  0.00    +0.000 OA
ATOM    387  N   ASN A  51      -0.911  -4.823   4.989  0.00  0.00    +0.000 N 
ATOM    388  H   ASN A  51      -1.743  -4.272   5.148  0.00  0.00    +0.000 HD
BRANCH 387 389
ATOM    389  CA  ASN A  51      -1.107  -6.247   4.717  0.00  0.00    +0.000 C 
BRANCH 389 390
ATOM    390  C   ASN A  51      -0.658  -6.655   3.303  0.00  0.00    +0.000 C 
ATOM    391  O   ASN A  51      -0.095  -7.736   3.130  0.00  0.00    +0.000 OA
ATOM    392  N   TYR A  52      -0.940  -5.819   2.291  0.00  0.00    +0.000 N 
ATOM    393  H   TYR A  52      -1.366  -4.930   2.506  0.00  0.00    +0.000 HD
BRANCH 392 394
ATOM    394  CA  TYR A  52      -0.775  -6.150   0.874  0.00  0.00    +0.000 C 
BRANCH 394 395
ATOM    395  C   TYR A  52       0.692  -6.262   0.414  0.00  0.00    +0.000 C 
ATOM    396  O   TYR A  52       0.955  -6.924  -0.592  0.00  0.00    +0.000 OA
ATOM    397  N   ILE A  53       1.634  -5.629   1.130  0.00  0.00    +0.000 N 
ATOM    398  H   ILE A  53       1.344  -5.114   1.950  0.00  0.00    +0.000 HD
BRANCH 397 399
ATOM    399  CA  ILE A  53       3.063  -5.601   0.808  0.00  0.00    +0.000 C 
BRANCH 399 400
ATOM    400  C   ILE A  53       3.874  -6.442   1.812  0.00  0.00    +0.000 C 
ATOM    401  O   ILE A  53       3.473  -6.602   2.966  0.00  0.00    +0.000 OA
ATOM    402  N   GLU A  54       5.040  -6.945   1.382  0.00  0.00    +0.000 N 
ATOM    403  H   GLU A  54       5.295  -6.803   0.415  0.00  0.00    +0.000 HD
BRANCH 402 404
ATOM    404  CA  GLU A  54       6.015  -7.626   2.231  0.00  0.00    +0.000 C 
BRANCH 404 405
ATOM    405  C   GLU A  54       6.849  -6.583   2.999  0.00  0.00    +0.000 C 
ATOM    406  O   GLU A  54       8.043  -6.409   2.756  0.00  0.00    +0.000 OA
ATOM    407  N   MET A  55       6.191  -5.874   3.926  0.00  0.00    +0.000 N 
ATOM    408  H   MET A  55       5.210  -6.082   4.039  0.00  0.00    +0.000 HD
BRANCH 407 409
ATOM    409  CA  MET A  55       6.770  -4.806   4.745  0.00  0.00    +0.000 C 
BRANCH 409 410
ATOM    410  C   MET A  55       7.900  -5.301   5.664  0.00  0.00    +0.000 C 
ATOM    411  O   MET A  55       8.866  -4.576   5.900  0.00  0.00    +0.000 OA
ATOM    412  N   LYS A  56       7.765  -6.528   6.184  0.00  0.00    +0.000 N 
ATOM    413  H   LYS A  56       6.936  -7.045   5.928  0.00  0.00    +0.000 HD
BRANCH 412 414
ATOM    414  CA  LYS A  56       8.722  -7.209   7.051  0.00  0.00    +0.000 C 
BRANCH 414 415
ATOM    415  C   LYS A  56       8.801  -8.683   6.628  0.00  0.00    +0.000 C 
ATOM    416  O   LYS A  56       9.891  -9.189   6.373  0.00  0.00    +0.000 OA
BRANCH 415 417
ATOM    417  OXT LYS A  56       7.613  -9.344   6.527  0.00  0.00    +0.000 OA
ATOM    418  HXT LYS A  56       7.685 -10.103   5.938  0.00  0.00    +0.000 HD
ENDBRANCH 415 417
ENDBRANCH 414 415
BRANCH 414 419
ATOM    419  CB  LYS A  56       8.306  -7.056   8.527  0.00  0.00    +0.000 C 
BRANCH 419 420
ATOM    420  CG  LYS A  56       8.250  -5.582   8.966  0.00  0.00    +0.000 C 
BRANCH 420 421
ATOM    421  CD  LYS A  56       7.951  -5.450  10.468  0.00  0.00    +0.000 C 
BRANCH 421 422
ATOM    422  CE  LYS A  56       7.674  -3.994  10.879  0.00  0.00    +0.000 C 
BRANCH 422 423
ATOM    423  NZ  LYS A  56       8.824  -3.107  10.620  0.00  0.00    +0.000 N 
ATOM    424  HZ1 LYS A  56       9.633  -3.439  11.125  0.00  0.00    +0.000 HD
ATOM    425  HZ2 LYS A  56       9.029  -3.095   9.630  0.00  0.00    +0.000 HD
ATOM    426  HZ3 LYS A  56       8.604  -2.167  10.921  0.00  0.00    +0.000 HD
ENDBRANCH 422 423
ENDBRANCH 421 422
ENDBRANCH 420 421
ENDBRANCH 419 420
ENDBRANCH 414 419
ENDBRANCH 412 414
ENDBRANCH 409 410
BRANCH 409 427
ATOM    427  CB  MET A  55       5.665  -4.076   5.535  0.00  0.00    +0.000 C 
BRANCH 427 428
ATOM    428  CG  MET A  55       4.811  -4.987   6.432  0.00  0.00    +0.000 C 
BRANCH 428 429
ATOM    429  SD  MET A  55       3.611  -4.102   7.461  0.00  0.00    +0.000 S 
ATOM    430  CE  MET A  55       2.704  -5.504   8.161  0.00  0.00    +0.000 C 
ENDBRANCH 428 429
ENDBRANCH 427 428
ENDBRANCH 409 427
ENDBRANCH 407 409
ENDBRANCH 404 405
BRANCH 404 431
ATOM    431  CB  GLU A  54       6.874  -8.576   1.373  0.00  0.00    +0.000 C 
BRANCH 431 432
ATOM    432  CG  GLU A  54       7.730  -9.526   2.235  0.00  0.00    +0.000 C 
BRANCH 432 433
ATOM    433  CD  GLU A  54       6.921 -10.469   3.133  0.00  0.00    +0.000 C 
ATOM    434  OE1 GLU A  54       5.827 -10.892   2.698  0.00  0.00    +0.000 OA
ATOM    435  OE2 GLU A  54       7.413 -10.757   4.247  0.00  0.00    +0.000 OA
ENDBRANCH 432 433
ENDBRANCH 431 432
ENDBRANCH 404 431
ENDBRANCH 402 404
ENDBRANCH 399 400
BRANCH 399 436
ATOM    436  CB  ILE A  53       3.536  -4.126   0.739  0.00  0.00    +0.000 C 
ATOM    437  CG2 ILE A  53       4.678  -3.964  -0.277  0.00  0.00    +0.000 C 
BRANCH 436 438
ATOM    438  CG1 ILE A  53       3.927  -3.560   2.120  0.00  0.00    +0.000 C 
ATOM    439  CD1 ILE A  53       4.077  -2.034   2.144  0.00  0.00    +0.000 C 
ENDBRANCH 436 438
ENDBRANCH 399 436
ENDBRANCH 397 399
ENDBRANCH 394 395
BRANCH 394 440
ATOM    440  CB  TYR A  52      -1.580  -5.164  -0.002  0.00  0.00    +0.000 C 
BRANCH 440 441
ATOM    441  CG  TYR A  52      -3.056  -5.512  -0.183  0.00  0.00    +0.000 A 
ATOM    442  CD1 TYR A  52      -3.884  -5.733   0.942  0.00  0.00    +0.000 A 
ATOM    443  CD2 TYR A  52      -3.585  -5.722  -1.481  0.00  0.00    +0.000 A 
ATOM    444  CE1 TYR A  52      -5.221  -6.145   0.775  0.00  0.00    +0.000 A 
ATOM    445  CE2 TYR A  52      -4.924  -6.135  -1.646  0.00  0.00    +0.000 A 
ATOM    446  CZ  TYR A  52      -5.742  -6.350  -0.518  0.00  0.00    +0.000 A 
BRANCH 446 447
ATOM    447  OH  TYR A  52      -7.034  -6.757  -0.676  0.00  0.00    +0.000 OA
ATOM    448  HH  TYR A  52      -7.281  -6.879  -1.596  0.00  0.00    +0.000 HD
ENDBRANCH 446 447
ENDBRANCH 440 441
ENDBRANCH 394 440
ENDBRANCH 392 394
ENDBRANCH 389 390
BRANCH 389 449
ATOM    449  CB  ASN A  51      -2.590  -6.603   4.930  0.00  0.00    +0.000 C 
BRANCH 449 450
ATOM    450  CG  ASN A  51      -3.044  -6.392   6.374  0.00  0.00    +0.000 C 
ATOM    451  OD1 ASN A  51      -3.539  -5.327   6.735  0.00  0.00    +0.000 OA
ATOM    452  ND2 ASN A  51      -2.874  -7.412   7.214  0.00  0.00    +0.000 N 
ATOM    453 HD21 ASN A  51      -2.461  -8.273   6.888  0.00  0.00    +0.000 HD
ATOM    454 HD22 ASN A  51      -3.197  -7.330   8.163  0.00  0.00    +0.000 HD
ENDBRANCH 449 450
ENDBRANCH 389 449
ENDBRANCH 387 389
ENDBRANCH 384 385
BRANCH 384 455
ATOM    455  CB  LYS A  50       0.124  -2.513   7.004  0.00  0.00    +0.000 C 
BRANCH 455 456
ATOM    456  CG  LYS A  50      -1.194  -3.033   7.607  0.00  0.00    +0.000 C 
BRANCH 456 457
ATOM    457  CD  LYS A  50      -1.247  -2.798   9.123  0.00  0.00    +0.000 C 
BRANCH 457 458
ATOM    458  CE  LYS A  50      -2.634  -3.095   9.715  0.00  0.00    +0.000 C 
BRANCH 458 459
ATOM    459  NZ  LYS A  50      -3.038  -4.501   9.521  0.00  0.00    +0.000 N 
ATOM    460  HZ1 LYS A  50      -2.347  -5.114   9.930  0.00  0.00    +0.000 HD
ATOM    461  HZ2 LYS A  50      -3.933  -4.663   9.961  0.00  0.00    +0.000 HD
ATOM    462  HZ3 LYS A  50      -3.118  -4.700   8.531  0.00  0.00    +0.000 HD
ENDBRANCH 458 459
ENDBRANCH 457 458
ENDBRANCH 456 457
ENDBRANCH 455 456
ENDBRANCH 384 455
ENDBRANCH 382 384
ENDBRANCH 376 380
ENDBRANCH 372 373
BRANCH 372 463
ATOM    463  CB  ILE A  48       0.440   1.177   0.097  0.00  0.00    +0.000 C 
ATOM    464  CG2 ILE A  48       0.721   1.865  -1.249  0.00  0.00    +0.000 C 
BRANCH 463 465
ATOM    465  CG1 ILE A  48       0.867  -0.300   0.130  0.00  0.00    +0.000 C 
ATOM    466  CD1 ILE A  48       2.124  -0.603  -0.693  0.00  0.00    +0.000 C 
ENDBRANCH 463 465
ENDBRANCH 372 463
ENDBRANCH 370 372
ENDBRANCH 367 368
BRANCH 367 467
ATOM    467  CB  PHE A  47      -3.393   5.437   0.802  0.00  0.00    +0.000 C 
BRANCH 467 468
ATOM    468  CG  PHE A  47      -3.458   6.893   1.232  0.00  0.00    +0.000 A 
ATOM    469  CD1 PHE A  47      -2.937   7.287   2.486  0.00  0.00    +0.000 A 
ATOM    470  CD2 PHE A  47      -4.064   7.856   0.393  0.00  0.00    +0.000 A 
ATOM    471  CE1 PHE A  47      -3.041   8.629   2.907  0.00  0.00    +0.000 A 
ATOM    472  CE2 PHE A  47      -4.147   9.203   0.804  0.00  0.00    +0.000 A 
ATOM    473  CZ  PHE A  47      -3.638   9.590   2.063  0.00  0.00    +0.000 A 
ENDBRANCH 467 468
ENDBRANCH 367 467
ENDBRANCH 365 367
ENDBRANCH 362 363
ENDBRANCH 360 362
ENDBRANCH 357 358
BRANCH 357 474
ATOM    474  CB  ASP A  45       2.474   9.105  -5.149  0.00  0.00    +0.000 C 
BRANCH 474 475
ATOM    475  CG  ASP A  45       3.847   9.291  -5.796  0.00  0.00    +0.000 C 
ATOM    476  OD1 ASP A  45       3.885   9.880  -6.899  0.00  0.00    +0.000 OA
ATOM    477  OD2 ASP A  45       4.831   8.838  -5.177  0.00  0.00    +0.000 OA
ENDBRANCH 474 475
ENDBRANCH 357 474
ENDBRANCH 355 357
ENDBRANCH 352 353
BRANCH 352 478
ATOM    478  CB  LYS A  44       0.890   7.234 -10.000  0.00  0.00    +0.000 C 
BRANCH 478 479
ATOM    479  CG  LYS A  44       0.395   5.801  -9.750  0.00  0.00    +0.000 C 
BRANCH 479 480
ATOM    480  CD  LYS A  44      -0.897   5.496 -10.526  0.00  0.00    +0.000 C 
BRANCH 480 481
ATOM    481  CE  LYS A  44      -1.548   4.180 -10.071  0.00  0.00    +0.000 C 
BRANCH 481 482
ATOM    482  NZ  LYS A  44      -0.620   3.036 -10.159  0.00  0.00    +0.000 N 
ATOM    483  HZ1 LYS A  44       0.200   3.219  -9.599  0.00  0.00    +0.000 HD
ATOM    484  HZ2 LYS A  44      -1.063   2.197  -9.805  0.00  0.00    +0.000 HD
ATOM    485  HZ3 LYS A  44      -0.344   2.890 -11.119  0.00  0.00    +0.000 HD
ENDBRANCH 481 482
ENDBRANCH 480 481
ENDBRANCH 479 480
ENDBRANCH 478 479
ENDBRANCH 352 478
ENDBRANCH 350 352
ENDBRANCH 347 348
ENDBRANCH 345 347
ENDBRANCH 342 343
BRANCH 342 486
ATOM    486  CB  ASN A  42       7.715   3.376 -11.023  0.00  0.00    +0.000 C 
BRANCH 486 487
ATOM    487  CG  ASN A  42       8.650   2.306 -10.458  0.00  0.00    +0.000 C 
ATOM    488  OD1 ASN A  42       9.775   2.602 -10.064  0.00  0.00    +0.000 OA
ATOM    489  ND2 ASN A  42       8.201   1.052 -10.429  0.00  0.00    +0.000 N 
ATOM    490 HD21 ASN A  42       7.273   0.831 -10.755  0.00  0.00    +0.000 HD
ATOM    491 HD22 ASN A  42       8.798   0.334 -10.052  0.00  0.00    +0.000 HD
ENDBRANCH 486 487
ENDBRANCH 342 486
ENDBRANCH 340 342
ENDBRANCH 337 338
BRANCH 337 492
ATOM    492  CB  LEU A  41       3.950   2.563  -7.997  0.00  0.00    +0.000 C 
BRANCH 492 493
ATOM    493  CG  LEU A  41       3.782   1.091  -8.379  0.00  0.00    +0.000 C 
ATOM    494  CD1 LEU A  41       2.430   0.885  -9.074  0.00  0.00    +0.000 C 
ATOM    495  CD2 LEU A  41       4.916   0.557  -9.267  0.00  0.00    +0.000 C 
ENDBRANCH 492 493
ENDBRANCH 337 492
ENDBRANCH 335 337
ENDBRANCH 332 333
BRANCH 332 496
ATOM    496  CB  GLU A  40       6.806   6.425  -4.453  0.00  0.00    +0.000 C 
BRANCH 496 497
ATOM    497  CG  GLU A  40       7.407   6.762  -5.827  0.00  0.00    +0.000 C 
BRANCH 497 498
ATOM    498  CD  GLU A  40       8.707   7.559  -5.694  0.00  0.00    +0.000 C 
ATOM    499  OE1 GLU A  40       9.699   6.954  -5.228  0.00  0.00    +0.000 OA
ATOM    500  OE2 GLU A  40       8.695   8.756  -6.056  0.00  0.00    +0.000 OA
ENDBRANCH 497 498
ENDBRANCH 496 497
ENDBRANCH 332 496
ENDBRANCH 330 332
ENDBRANCH 326 328
ENDBRANCH 324 326
ENDBRANCH 321 322
BRANCH 321 501
ATOM    501  CB  LYS A  38       1.943   8.350   2.262  0.00  0.00    +0.000 C 
BRANCH 501 502
ATOM    502  CG  LYS A  38       0.594   8.665   2.932  0.00  0.00    +0.000 C 
BRANCH 502 503
ATOM    503  CD  LYS A  38       0.441  10.140   3.338  0.00  0.00    +0.000 C 
BRANCH 503 504
ATOM    504  CE  LYS A  38       1.529  10.648   4.296  0.00  0.00    +0.000 C 
BRANCH 504 505
ATOM    505  NZ  LYS A  38       1.694   9.783   5.479  0.00  0.00    +0.000 N 
ATOM    506  HZ1 LYS A  38       0.815   9.688   5.971  0.00  0.00    +0.000 HD
ATOM    507  HZ2 LYS A  38       2.031   8.871   5.197  0.00  0.00    +0.000 HD
ATOM    508  HZ3 LYS A  38       2.380  10.200   6.095  0.00  0.00    +0.000 HD
ENDBRANCH 504 505
ENDBRANCH 503 504
ENDBRANCH 502 503
ENDBRANCH 501 502
ENDBRANCH 321 501
ENDBRANCH 319 321
ENDBRANCH 316 317
BRANCH 316 509
ATOM    509  CB  TYR A  37       2.484   2.830   3.951  0.00  0.00    +0.000 C 
BRANCH 509 510
ATOM    510  CG  TYR A  37       2.680   1.797   5.047  0.00  0.00    +0.000 A 
ATOM    511  CD1 TYR A  37       2.696   2.190   6.402  0.00  0.00    +0.000 A 
ATOM    512  CD2 TYR A  37       2.991   0.463   4.701  0.00  0.00    +0.000 A 
ATOM    513  CE1 TYR A  37       3.148   1.294   7.393  0.00  0.00    +0.000 A 
ATOM    514  CE2 TYR A  37       3.419  -0.443   5.697  0.00  0.00    +0.000 A 
ATOM    515  CZ  TYR A  37       3.544  -0.011   7.035  0.00  0.00    +0.000 A 
BRANCH 515 516
ATOM    516  OH  TYR A  37       4.060  -0.848   7.980  0.00  0.00    +0.000 OA
ATOM    517  HH  TYR A  37       4.130  -0.425   8.841  0.00  0.00    +0.000 HD
ENDBRANCH 515 516
ENDBRANCH 509 510
ENDBRANCH 316 509
ENDBRANCH 314 316
ENDBRANCH 311 312
BRANCH 311 518
ATOM    518  CB  TRP A  36      -3.312   3.838   5.092  0.00  0.00    +0.000 C 
BRANCH 518 519
ATOM    519  CG  TRP A  36      -4.577   3.062   4.864  0.00  0.00    +0.000 A 
ATOM    520  CD1 TRP A  36      -5.560   2.856   5.769  0.00  0.00    +0.000 A 
ATOM    521  CD2 TRP A  36      -5.027   2.416   3.636  0.00  0.00    +0.000 A 
ATOM    522  NE1 TRP A  36      -6.599   2.161   5.183  0.00  0.00    +0.000 N 
ATOM    523  CE2 TRP A  36      -6.338   1.892   3.856  0.00  0.00    +0.000 A 
ATOM    524  CE3 TRP A  36      -4.470   2.238   2.347  0.00  0.00    +0.000 A 
ATOM    525  CZ2 TRP A  36      -7.075   1.265   2.834  0.00  0.00    +0.000 A 
ATOM    526  CZ3 TRP A  36      -5.205   1.627   1.309  0.00  0.00    +0.000 A 
ATOM    527  CH2 TRP A  36      -6.507   1.141   1.552  0.00  0.00    +0.000 A 
ATOM    528  HE1 TRP A  36      -7.461   1.892   5.635  0.00  0.00    +0.000 HD
ENDBRANCH 518 519
ENDBRANCH 311 518
ENDBRANCH 309 311
ENDBRANCH 306 307
BRANCH 306 529
ATOM    529  CB  ASN A  35      -3.991   1.482   9.126  0.00  0.00    +0.000 C 
BRANCH 529 530
ATOM    530  CG  ASN A  35      -4.332   1.172  10.583  0.00  0.00    +0.000 C 
ATOM    531  OD1 ASN A  35      -4.207   2.024  11.459  0.00  0.00    +0.000 OA
ATOM    532  ND2 ASN A  35      -4.768  -0.057  10.844  0.00  0.00    +0.000 N 
ATOM    533 HD21 ASN A  35      -4.870  -0.707  10.082  0.00  0.00    +0.000 HD
ATOM    534 HD22 ASN A  35      -5.011  -0.310  11.791  0.00  0.00    +0.000 HD
ENDBRANCH 529 530
ENDBRANCH 306 529
ENDBRANCH 304 306
ENDBRANCH 301 302
BRANCH 301 535
ATOM    535  CB  GLN A  34       0.757   1.073  11.830  0.00  0.00    +0.000 C 
BRANCH 535 536
ATOM    536  CG  GLN A  34       1.018  -0.427  11.587  0.00  0.00    +0.000 C 
BRANCH 536 537
ATOM    537  CD  GLN A  34       2.221  -0.725  10.686  0.00  0.00    +0.000 C 
ATOM    538  OE1 GLN A  34       3.227  -0.020  10.705  0.00  0.00    +0.000 OA
ATOM    539  NE2 GLN A  34       2.132  -1.782   9.880  0.00  0.00    +0.000 N 
ATOM    540 HE21 GLN A  34       1.301  -2.351   9.870  0.00  0.00    +0.000 HD
ATOM    541 HE22 GLN A  34       2.894  -1.968   9.242  0.00  0.00    +0.000 HD
ENDBRANCH 536 537
ENDBRANCH 535 536
ENDBRANCH 301 535
ENDBRANCH 299 301
ENDBRANCH 296 297
BRANCH 296 542
ATOM    542  CB  ASP A  33      -1.654   5.891  10.494  0.00  0.00    +0.000 C 
BRANCH 542 543
ATOM    543  CG  ASP A  33      -2.077   5.798   9.027  0.00  0.00    +0.000 C 
ATOM    544  OD1 ASP A  33      -1.918   6.812   8.315  0.00  0.00    +0.000 OA
ATOM    545  OD2 ASP A  33      -2.605   4.725   8.659  0.00  0.00    +0.000 OA
ENDBRANCH 542 543
ENDBRANCH 296 542
ENDBRANCH 294 296
ENDBRANCH 291 292
BRANCH 291 546
ATOM    546  CB  SER A  32       1.475   9.327   8.690  0.00  0.00    +0.000 C 
BRANCH 546 547
ATOM    547  OG  SER A  32       0.208   9.927   8.522  0.00  0.00    +0.000 OA
ATOM    548  HG  SER A  32       0.137  10.678   9.118  0.00  0.00    +0.000 HD
ENDBRANCH 546 547
ENDBRANCH 291 546
ENDBRANCH 289 291
ENDBRANCH 286 287
BRANCH 286 549
ATOM    549  CB  GLU A  31       6.782   8.555  10.285  0.00  0.00    +0.000 C 
BRANCH 549 550
ATOM    550  CG  GLU A  31       7.933   7.547  10.102  0.00  0.00    +0.000 C 
BRANCH 550 551
ATOM    551  CD  GLU A  31       8.418   7.357   8.656  0.00  0.00    +0.000 C 
ATOM    552  OE1 GLU A  31       7.861   8.014   7.746  0.00  0.00    +0.000 OA
ATOM    553  OE2 GLU A  31       9.349   6.542   8.483  0.00  0.00    +0.000 OA
ENDBRANCH 550 551
ENDBRANCH 549 550
ENDBRANCH 286 549
ENDBRANCH 284 286
ENDBRANCH 281 282
BRANCH 281 554
ATOM    554  CB  GLU A  30       5.260   4.274   6.956  0.00  0.00    +0.000 C 
BRANCH 554 555
ATOM    555  CG  GLU A  30       6.706   4.180   7.470  0.00  0.00    +0.000 C 
BRANCH 555 556
ATOM    556  CD  GLU A  30       7.177   2.724   7.519  0.00  0.00    +0.000 C 
ATOM    557  OE1 GLU A  30       6.688   1.995   8.410  0.00  0.00    +0.000 OA
ATOM    558  OE2 GLU A  30       8.007   2.357   6.659  0.00  0.00    +0.000 OA
ENDBRANCH 555 556
ENDBRANCH 554 555
ENDBRANCH 281 554
ENDBRANCH   3 281
TORSDOF 241
REMARK  Name = /Users/acegid/Desktop/Smoking_Research/Docking/Docking_All_PDB/All_PDB/1AZE_H.pdb
REMARK  302 active torsions:
REMARK  status: ('A' for Active; 'I' for Inactive)
REMARK    1  A    between atoms: N_1  and  CA_3
REMARK    2  A    between atoms: CA_3  and  C_4
REMARK    3  A    between atoms: CA_3  and  CB_6
REMARK    4  A    between atoms: CB_6  and  CG_7
REMARK    5  A    between atoms: CG_7  and  SD_8
REMARK    6  A    between atoms: SD_8  and  CE_9
REMARK    7  A    between atoms: N_20  and  CA_21
REMARK    8  A    between atoms: CA_21  and  C_22
REMARK    9  A    between atoms: CA_21  and  CB_24
REMARK   10  A    between atoms: CB_24  and  CG_25
REMARK   11  A    between atoms: CG_25  and  CD_26
REMARK   12  A    between atoms: N_35  and  CA_36
REMARK   13  A    between atoms: CA_36  and  C_37
REMARK   14  A    between atoms: CA_36  and  CB_39
REMARK   15  A    between atoms: N_45  and  CA_46
REMARK   16  A    between atoms: CA_46  and  C_47
REMARK   17  A    between atoms: CA_46  and  CB_49
REMARK   18  A    between atoms: CB_49  and  CG1_50
REMARK   19  A    between atoms: CB_49  and  CG2_51
REMARK   20  A    between atoms: CG1_50  and  CD1_52
REMARK   21  A    between atoms: N_64  and  CA_65
REMARK   22  A    between atoms: CA_65  and  C_66
REMARK   23  A    between atoms: CA_65  and  CB_68
REMARK   24  A    between atoms: N_74  and  CA_75
REMARK   25  A    between atoms: CA_75  and  C_76
REMARK   26  A    between atoms: CA_75  and  CB_78
REMARK   27  A    between atoms: CB_78  and  CG_79
REMARK   28  A    between atoms: CG_79  and  CD_80
REMARK   29  A    between atoms: CD_80  and  CE_81
REMARK   30  A    between atoms: CE_81  and  NZ_82
REMARK   31  A    between atoms: N_96  and  CA_97
REMARK   32  A    between atoms: CA_97  and  C_98
REMARK   33  A    between atoms: CA_97  and  CB_100
REMARK   34  A    between atoms: CB_100  and  CG1_101
REMARK   35  A    between atoms: CB_100  and  CG2_102
REMARK   36  A    between atoms: N_112  and  CA_113
REMARK   37  A    between atoms: CA_113  and  C_114
REMARK   38  A    between atoms: CA_113  and  CB_116
REMARK   39  A    between atoms: CB_116  and  CG_117
REMARK   40  A    between atoms: N_124  and  CA_125
REMARK   41  A    between atoms: CA_125  and  C_126
REMARK   42  A    between atoms: CA_125  and  CB_128
REMARK   43  A    between atoms: CB_128  and  CG_129
REMARK   44  A    between atoms: N_144  and  CA_145
REMARK   45  A    between atoms: CA_145  and  C_146
REMARK   46  A    between atoms: CA_145  and  CB_148
REMARK   47  A    between atoms: CB_148  and  CG_149
REMARK   48  A    between atoms: CG_149  and  CD_150
REMARK   49  A    between atoms: CD_150  and  CE_151
REMARK   50  A    between atoms: CE_151  and  NZ_152
REMARK   51  A    between atoms: N_166  and  CA_167
REMARK   52  A    between atoms: CA_167  and  C_168
REMARK   53  A    between atoms: CA_167  and  CB_170
REMARK   54  A    between atoms: N_176  and  CA_177
REMARK   55  A    between atoms: CA_177  and  C_178
REMARK   56  A    between atoms: CA_177  and  CB_180
REMARK   57  A    between atoms: CB_180  and  OG1_181
REMARK   58  A    between atoms: CB_180  and  CG2_182
REMARK   59  A    between atoms: N_190  and  CA_191
REMARK   60  A    between atoms: CA_191  and  C_192
REMARK   61  A    between atoms: CA_191  and  CB_194
REMARK   62  A    between atoms: N_200  and  CA_201
REMARK   63  A    between atoms: CA_201  and  C_202
REMARK   64  A    between atoms: CA_201  and  CB_204
REMARK   65  A    between atoms: CB_204  and  CG_205
REMARK   66  A    between atoms: N_212  and  CA_213
REMARK   67  A    between atoms: CA_213  and  C_214
REMARK   68  A    between atoms: CA_213  and  CB_216
REMARK   69  A    between atoms: CB_216  and  CG_217
REMARK   70  A    between atoms: N_224  and  CA_225
REMARK   71  A    between atoms: CA_225  and  C_226
REMARK   72  A    between atoms: CA_225  and  CB_228
REMARK   73  A    between atoms: CB_228  and  CG_229
REMARK   74  A    between atoms: CG_229  and  CD_230
REMARK   75  A    between atoms: N_239  and  CA_240
REMARK   76  A    between atoms: CA_240  and  C_241
REMARK   77  A    between atoms: CA_240  and  CB_243
REMARK   78  A    between atoms: CB_243  and  CG_244
REMARK   79  A    between atoms: CG_244  and  CD1_245
REMARK   80  A    between atoms: CG_244  and  CD2_246
REMARK   81  A    between atoms: N_258  and  CA_259
REMARK   82  A    between atoms: CA_259  and  C_260
REMARK   83  A    between atoms: CA_259  and  CB_262
REMARK   84  A    between atoms: CB_262  and  OG_263
REMARK   85  A    between atoms: N_269  and  CA_270
REMARK   86  A    between atoms: CA_270  and  C_271
REMARK   87  A    between atoms: CA_270  and  CB_273
REMARK   88  A    between atoms: CB_273  and  CG_274
REMARK   89  A    between atoms: N_289  and  CA_290
REMARK   90  A    between atoms: CA_290  and  C_291
REMARK   91  A    between atoms: CA_290  and  CB_293
REMARK   92  A    between atoms: CB_293  and  CG_294
REMARK   93  A    between atoms: CG_294  and  CD_295
REMARK   94  A    between atoms: CD_295  and  CE_296
REMARK   95  A    between atoms: CE_296  and  NZ_297
REMARK   96  A    between atoms: N_311  and  CA_312
REMARK   97  A    between atoms: CA_312  and  C_313
REMARK   98  A    between atoms: CA_312  and  CB_315
REMARK   99  A    between atoms: CB_315  and  CG_316
REMARK  100  A    between atoms: CG_316  and  CD_317
REMARK  101  A    between atoms: CD_317  and  NE_318
REMARK  102  A    between atoms: N_335  and  CA_336
REMARK  103  A    between atoms: CA_336  and  C_337
REMARK  104  A    between atoms: N_342  and  CA_343
REMARK  105  A    between atoms: CA_343  and  C_344
REMARK  106  A    between atoms: CA_343  and  CB_346
REMARK  107  A    between atoms: CB_346  and  CG_347
REMARK  108  A    between atoms: N_354  and  CA_355
REMARK  109  A    between atoms: CA_355  and  C_356
REMARK  110  A    between atoms: CA_355  and  CB_358
REMARK  111  A    between atoms: CB_358  and  CG1_359
REMARK  112  A    between atoms: CB_358  and  CG2_360
REMARK  113  A    between atoms: CG1_359  and  CD1_361
REMARK  114  A    between atoms: N_373  and  CA_374
REMARK  115  A    between atoms: CA_374  and  C_375
REMARK  116  A    between atoms: CA_374  and  CB_377
REMARK  117  A    between atoms: CB_377  and  CG_378
REMARK  118  A    between atoms: CG_378  and  CD1_379
REMARK  119  A    between atoms: CG_378  and  CD2_380
REMARK  120  A    between atoms: N_392  and  CA_393
REMARK  121  A    between atoms: CA_393  and  C_394
REMARK  122  A    between atoms: CA_393  and  CB_396
REMARK  123  A    between atoms: CB_396  and  CG_397
REMARK  124  A    between atoms: CG_397  and  CD_398
REMARK  125  A    between atoms: CD_398  and  CE_399
REMARK  126  A    between atoms: CE_399  and  NZ_400
REMARK  127  A    between atoms: N_414  and  CA_415
REMARK  128  A    between atoms: CA_415  and  C_416
REMARK  129  A    between atoms: CA_415  and  CB_418
REMARK  130  A    between atoms: CB_418  and  CG1_419
REMARK  131  A    between atoms: CB_418  and  CG2_420
REMARK  132  A    between atoms: N_430  and  CA_431
REMARK  133  A    between atoms: CA_431  and  C_432
REMARK  134  A    between atoms: CA_431  and  CB_434
REMARK  135  A    between atoms: CB_434  and  CG_435
REMARK  136  A    between atoms: CG_435  and  CD1_436
REMARK  137  A    between atoms: CG_435  and  CD2_437
REMARK  138  A    between atoms: N_449  and  CA_450
REMARK  139  A    between atoms: CA_450  and  C_451
REMARK  140  A    between atoms: CA_450  and  CB_453
REMARK  141  A    between atoms: CB_453  and  CG_454
REMARK  142  A    between atoms: N_463  and  CA_464
REMARK  143  A    between atoms: CA_464  and  C_465
REMARK  144  A    between atoms: CA_464  and  CB_467
REMARK  145  A    between atoms: CB_467  and  CG_468
REMARK  146  A    between atoms: CG_468  and  CD_469
REMARK  147  A    between atoms: N_478  and  CA_479
REMARK  148  A    between atoms: CA_479  and  C_480
REMARK  149  A    between atoms: CA_479  and  CB_482
REMARK  150  A    between atoms: CB_482  and  CG_483
REMARK  151  A    between atoms: CG_483  and  CD_484
REMARK  152  A    between atoms: N_493  and  CA_494
REMARK  153  A    between atoms: CA_494  and  C_495
REMARK  154  A    between atoms: CA_494  and  CB_497
REMARK  155  A    between atoms: CB_497  and  OG_498
REMARK  156  A    between atoms: N_504  and  CA_505
REMARK  157  A    between atoms: CA_505  and  C_506
REMARK  158  A    between atoms: CA_505  and  CB_508
REMARK  159  A    between atoms: CB_508  and  CG_509
REMARK  160  A    between atoms: N_516  and  CA_517
REMARK  161  A    between atoms: CA_517  and  C_518
REMARK  162  A    between atoms: CA_517  and  CB_520
REMARK  163  A    between atoms: CB_520  and  CG_521
REMARK  164  A    between atoms: CG_521  and  CD_522
REMARK  165  A    between atoms: N_533  and  CA_534
REMARK  166  A    between atoms: CA_534  and  C_535
REMARK  167  A    between atoms: CA_534  and  CB_537
REMARK  168  A    between atoms: CB_537  and  CG_538
REMARK  169  A    between atoms: N_547  and  CA_548
REMARK  170  A    between atoms: CA_548  and  C_549
REMARK  171  A    between atoms: CA_548  and  CB_551
REMARK  172  A    between atoms: CB_551  and  CG_552
REMARK  173  A    between atoms: N_571  and  CA_572
REMARK  174  A    between atoms: CA_572  and  C_573
REMARK  175  A    between atoms: CA_572  and  CB_575
REMARK  176  A    between atoms: CB_575  and  CG_576
REMARK  177  A    between atoms: CZ_581  and  OH_582
REMARK  178  A    between atoms: N_592  and  CA_593
REMARK  179  A    between atoms: CA_593  and  C_594
REMARK  180  A    between atoms: CA_593  and  CB_596
REMARK  181  A    between atoms: CB_596  and  CG_597
REMARK  182  A    between atoms: CG_597  and  CD_598
REMARK  183  A    between atoms: CD_598  and  CE_599
REMARK  184  A    between atoms: CE_599  and  NZ_600
REMARK  185  A    between atoms: N_614  and  CA_615
REMARK  186  A    between atoms: CA_615  and  C_616
REMARK  187  A    between atoms: CA_615  and  CB_618
REMARK  188  A    between atoms: N_624  and  CA_625
REMARK  189  A    between atoms: CA_625  and  C_626
REMARK  190  A    between atoms: CA_625  and  CB_628
REMARK  191  A    between atoms: CB_628  and  CG_629
REMARK  192  A    between atoms: CG_629  and  CD_630
REMARK  193  A    between atoms: N_639  and  CA_640
REMARK  194  A    between atoms: CA_640  and  C_641
REMARK  195  A    between atoms: CA_640  and  CB_643
REMARK  196  A    between atoms: CB_643  and  CG_644
REMARK  197  A    between atoms: CG_644  and  CD1_645
REMARK  198  A    between atoms: CG_644  and  CD2_646
REMARK  199  A    between atoms: N_658  and  CA_659
REMARK  200  A    between atoms: CA_659  and  C_660
REMARK  201  A    between atoms: CA_659  and  CB_662
REMARK  202  A    between atoms: CB_662  and  CG_663
REMARK  203  A    between atoms: N_672  and  CA_673
REMARK  204  A    between atoms: CA_673  and  C_674
REMARK  205  A    between atoms: N_679  and  CA_680
REMARK  206  A    between atoms: CA_680  and  C_681
REMARK  207  A    between atoms: CA_680  and  CB_683
REMARK  208  A    between atoms: CB_683  and  CG_684
REMARK  209  A    between atoms: CG_684  and  CD_685
REMARK  210  A    between atoms: CD_685  and  CE_686
REMARK  211  A    between atoms: CE_686  and  NZ_687
REMARK  212  A    between atoms: N_701  and  CA_702
REMARK  213  A    between atoms: CA_702  and  C_703
REMARK  214  A    between atoms: CA_702  and  CB_705
REMARK  215  A    between atoms: CB_705  and  CG_706
REMARK  216  A    between atoms: N_713  and  CA_714
REMARK  217  A    between atoms: CA_714  and  C_715
REMARK  218  A    between atoms: N_720  and  CA_721
REMARK  219  A    between atoms: CA_721  and  C_722
REMARK  220  A    between atoms: CA_721  and  CB_724
REMARK  221  A    between atoms: CB_724  and  CG_725
REMARK  222  A    between atoms: N_740  and  CA_741
REMARK  223  A    between atoms: CA_741  and  C_742
REMARK  224  A    between atoms: CA_741  and  CB_744
REMARK  225  A    between atoms: CB_744  and  CG1_745
REMARK  226  A    between atoms: CB_744  and  CG2_746
REMARK  227  A    between atoms: CG1_745  and  CD1_747
REMARK  228  A    between atoms: CA_760  and  C_761
REMARK  229  A    between atoms: N_773  and  CA_774
REMARK  230  A    between atoms: CA_774  and  C_775
REMARK  231  A    between atoms: CA_774  and  CB_777
REMARK  232  A    between atoms: CB_777  and  CG_778
REMARK  233  A    between atoms: CG_778  and  CD_779
REMARK  234  A    between atoms: CD_779  and  CE_780
REMARK  235  A    between atoms: CE_780  and  NZ_781
REMARK  236  A    between atoms: N_795  and  CA_796
REMARK  237  A    between atoms: CA_796  and  C_797
REMARK  238  A    between atoms: CA_796  and  CB_799
REMARK  239  A    between atoms: CB_799  and  CG_800
REMARK  240  A    between atoms: N_809  and  CA_810
REMARK  241  A    between atoms: CA_810  and  C_811
REMARK  242  A    between atoms: CA_810  and  CB_813
REMARK  243  A    between atoms: CB_813  and  CG_814
REMARK  244  A    between atoms: CZ_819  and  OH_820
REMARK  245  A    between atoms: N_830  and  CA_831
REMARK  246  A    between atoms: CA_831  and  C_832
REMARK  247  A    between atoms: CA_831  and  CB_834
REMARK  248  A    between atoms: CB_834  and  CG1_835
REMARK  249  A    between atoms: CB_834  and  CG2_836
REMARK  250  A    between atoms: CG1_835  and  CD1_837
REMARK  251  A    between atoms: N_849  and  CA_850
REMARK  252  A    between atoms: CA_850  and  C_851
REMARK  253  A    between atoms: CA_850  and  CB_853
REMARK  254  A    between atoms: CB_853  and  CG_854
REMARK  255  A    between atoms: CG_854  and  CD_855
REMARK  256  A    between atoms: N_864  and  CA_865
REMARK  257  A    between atoms: CA_865  and  C_866
REMARK  258  A    between atoms: CA_865  and  CB_868
REMARK  259  A    between atoms: CB_868  and  CG_869
REMARK  260  A    between atoms: CG_869  and  SD_870
REMARK  261  A    between atoms: SD_870  and  CE_871
REMARK  262  A    between atoms: N_881  and  CA_882
REMARK  263  A    between atoms: CA_882  and  C_883
REMARK  264  A    between atoms: CA_882  and  CB_885
REMARK  265  A    between atoms: C_883  and  OXT_890
REMARK  266  A    between atoms: CB_885  and  CG_886
REMARK  267  A    between atoms: CG_886  and  CD_887
REMARK  268  A    between atoms: CD_887  and  CE_888
REMARK  269  A    between atoms: CE_888  and  NZ_889
REMARK  270  A    between atoms: N_905  and  CA_906
REMARK  271  A    between atoms: CA_906  and  C_907
REMARK  272  A    between atoms: CA_906  and  CB_909
REMARK  273  A    between atoms: CB_909  and  CG1_910
REMARK  274  A    between atoms: CB_909  and  CG2_911
REMARK  275  A    between atoms: CA_924  and  C_925
REMARK  276  A    between atoms: CA_938  and  C_939
REMARK  277  A    between atoms: CA_952  and  C_953
REMARK  278  A    between atoms: N_965  and  CA_966
REMARK  279  A    between atoms: CA_966  and  C_967
REMARK  280  A    between atoms: CA_966  and  CB_969
REMARK  281  A    between atoms: CB_969  and  CG1_970
REMARK  282  A    between atoms: CB_969  and  CG2_971
REMARK  283  A    between atoms: CA_982  and  C_983
REMARK  284  A    between atoms: CA_996  and  C_997
REMARK  285  A    between atoms: N_1009  and  CA_1010
REMARK  286  A    between atoms: CA_1010  and  C_1011
REMARK  287  A    between atoms: CA_1010  and  CB_1013
REMARK  288  A    between atoms: CB_1013  and  CG_1014
REMARK  289  A    between atoms: CG_1014  and  CD_1015
REMARK  290  A    between atoms: CD_1015  and  NE_1016
REMARK  291  A    between atoms: N_1033  and  CA_1034
REMARK  292  A    between atoms: CA_1034  and  C_1035
REMARK  293  A    between atoms: CA_1034  and  CB_1037
REMARK  294  A    between atoms: CB_1037  and  CG_1038
REMARK  295  A    between atoms: CG_1038  and  CD_1039
REMARK  296  A    between atoms: CD_1039  and  NE_1040
REMARK  297  A    between atoms: N_1057  and  CA_1058
REMARK  298  A    between atoms: CA_1058  and  C_1059
REMARK  299  A    between atoms: CA_1058  and  CB_1061
REMARK  300  A    between atoms: CB_1061  and  CG_1062
REMARK  301  A    between atoms: CG_1062  and  CD_1063
REMARK  302  A    between atoms: CD_1063  and  NE_1064
REMARK                            x       y       z     vdW  Elec       q    Type
REMARK                         _______ _______ _______ _____ _____    ______ ____
ROOT
ATOM      1  C   PRO B   7      -9.340   2.724   7.037  0.00  0.00    +0.000 C 
ATOM      2  O   PRO B   7      -8.309   2.877   7.694  0.00  0.00    +0.000 OA
ATOM      3  N   ARG B   8      -9.723   3.595   6.090  0.00  0.00    +0.000 N 
ATOM      4  H   ARG B   8     -10.574   3.410   5.580  0.00  0.00    +0.000 HD
ENDROOT
BRANCH   1   8
ATOM      5  C   PRO B   6      -8.692  -0.281   6.511  0.00  0.00    +0.000 C 
ATOM      6  O   PRO B   6      -8.733   0.131   5.352  0.00  0.00    +0.000 OA
ATOM      7  N   PRO B   7      -9.423   0.298   7.483  0.00  0.00    +0.000 N 
ATOM      8  CA  PRO B   7     -10.237   1.494   7.270  0.00  0.00    +0.000 C 
ATOM      9  CB  PRO B   7     -11.085   1.634   8.541  0.00  0.00    +0.000 C 
ATOM     10  CG  PRO B   7     -10.193   1.017   9.620  0.00  0.00    +0.000 C 
ATOM     11  CD  PRO B   7      -9.492  -0.123   8.876  0.00  0.00    +0.000 C 
BRANCH   5  15
ATOM     12  C   VAL B   5      -8.292  -2.985   5.004  0.00  0.00    +0.000 C 
ATOM     13  O   VAL B   5      -9.491  -2.976   5.288  0.00  0.00    +0.000 OA
ATOM     14  N   PRO B   6      -7.392  -2.287   5.729  0.00  0.00    +0.000 N 
ATOM     15  CA  PRO B   6      -7.746  -1.445   6.875  0.00  0.00    +0.000 C 
ATOM     16  CB  PRO B   6      -6.410  -0.908   7.412  0.00  0.00    +0.000 C 
ATOM     17  CG  PRO B   6      -5.385  -1.937   6.947  0.00  0.00    +0.000 C 
ATOM     18  CD  PRO B   6      -5.944  -2.358   5.590  0.00  0.00    +0.000 C 
BRANCH  12  19
ATOM     19  CA  VAL B   5      -7.826  -3.794   3.775  0.00  0.00    +0.000 C 
BRANCH  19  22
ATOM     20  C   PRO B   4      -7.093  -6.099   4.386  0.00  0.00    +0.000 C 
ATOM     21  O   PRO B   4      -5.893  -5.822   4.401  0.00  0.00    +0.000 OA
ATOM     22  N   VAL B   5      -8.045  -5.211   4.062  0.00  0.00    +0.000 N 
ATOM     23  H   VAL B   5      -9.004  -5.526   4.067  0.00  0.00    +0.000 HD
BRANCH  20  27
ATOM     24  C   PRO B   3      -6.387  -9.052   3.272  0.00  0.00    +0.000 C 
ATOM     25  O   PRO B   3      -6.962  -8.603   2.280  0.00  0.00    +0.000 OA
ATOM     26  N   PRO B   4      -6.593  -8.534   4.501  0.00  0.00    +0.000 N 
ATOM     27  CA  PRO B   4      -7.587  -7.502   4.782  0.00  0.00    +0.000 C 
ATOM     28  CB  PRO B   4      -7.843  -7.600   6.291  0.00  0.00    +0.000 C 
ATOM     29  CG  PRO B   4      -6.479  -8.029   6.832  0.00  0.00    +0.000 C 
ATOM     30  CD  PRO B   4      -5.966  -8.974   5.742  0.00  0.00    +0.000 C 
BRANCH  24  34
ATOM     31  C   PRO B   2      -7.145 -12.059   3.206  0.00  0.00    +0.000 C 
ATOM     32  O   PRO B   2      -7.468 -11.763   4.358  0.00  0.00    +0.000 OA
ATOM     33  N   PRO B   3      -6.173 -11.394   2.550  0.00  0.00    +0.000 N 
ATOM     34  CA  PRO B   3      -5.440 -10.260   3.109  0.00  0.00    +0.000 C 
ATOM     35  CB  PRO B   3      -4.301  -9.980   2.117  0.00  0.00    +0.000 C 
ATOM     36  CG  PRO B   3      -4.853 -10.488   0.784  0.00  0.00    +0.000 C 
ATOM     37  CD  PRO B   3      -5.716 -11.681   1.197  0.00  0.00    +0.000 C 
BRANCH  31  41
ATOM     38  C   VAL B   1      -7.809 -15.081   4.093  0.00  0.00    +0.000 C 
ATOM     39  O   VAL B   1      -6.586 -15.191   4.001  0.00  0.00    +0.000 OA
ATOM     40  N   PRO B   2      -8.493 -14.137   3.414  0.00  0.00    +0.000 N 
ATOM     41  CA  PRO B   2      -7.873 -13.206   2.474  0.00  0.00    +0.000 C 
ATOM     42  CB  PRO B   2      -9.037 -12.685   1.619  0.00  0.00    +0.000 C 
ATOM     43  CG  PRO B   2     -10.208 -12.687   2.601  0.00  0.00    +0.000 C 
ATOM     44  CD  PRO B   2      -9.934 -13.918   3.469  0.00  0.00    +0.000 C 
BRANCH  38  45
ATOM     45  CA  VAL B   1      -8.577 -16.067   4.997  0.00  0.00    +0.000 C 
BRANCH  45  46
ATOM     46  N   VAL B   1      -8.245 -17.467   4.646  0.00  0.00    +0.000 N 
ATOM     47  H   VAL B   1      -8.456 -17.637   3.673  0.00  0.00    +0.000 HD
ATOM     48  H2  VAL B   1      -7.259 -17.625   4.804  0.00  0.00    +0.000 HD
ATOM     49  H3  VAL B   1      -8.781 -18.104   5.217  0.00  0.00    +0.000 HD
ENDBRANCH  45  46
BRANCH  45  50
ATOM     50  CB  VAL B   1      -8.330 -15.794   6.498  0.00  0.00    +0.000 C 
ATOM     51  CG1 VAL B   1      -8.505 -14.313   6.884  0.00  0.00    +0.000 C 
ATOM     52  CG2 VAL B   1      -9.292 -16.631   7.358  0.00  0.00    +0.000 C 
ENDBRANCH  45  50
ENDBRANCH  38  45
ENDBRANCH  31  41
ENDBRANCH  24  34
ENDBRANCH  20  27
ENDBRANCH  19  22
BRANCH  19  53
ATOM     53  CB  VAL B   5      -8.610  -3.403   2.499  0.00  0.00    +0.000 C 
ATOM     54  CG1 VAL B   5      -8.473  -1.902   2.199  0.00  0.00    +0.000 C 
ATOM     55  CG2 VAL B   5      -8.115  -4.194   1.275  0.00  0.00    +0.000 C 
ENDBRANCH  19  53
ENDBRANCH  12  19
ENDBRANCH   5  15
ENDBRANCH   1   8
BRANCH   3  56
ATOM     56  CA  ARG B   8      -8.950   4.783   5.708  0.00  0.00    +0.000 C 
BRANCH  56  57
ATOM     57  C   ARG B   8      -8.789   5.807   6.845  0.00  0.00    +0.000 C 
ATOM     58  O   ARG B   8      -7.773   6.500   6.883  0.00  0.00    +0.000 OA
ATOM     59  N   ARG B   9      -9.774   5.891   7.756  0.00  0.00    +0.000 N 
ATOM     60  H   ARG B   9     -10.566   5.280   7.625  0.00  0.00    +0.000 HD
BRANCH  59  61
ATOM     61  CA  ARG B   9      -9.788   6.732   8.957  0.00  0.00    +0.000 C 
BRANCH  61  62
ATOM     62  C   ARG B   9     -10.253   8.161   8.631  0.00  0.00    +0.000 C 
ATOM     63  O   ARG B   9      -9.740   8.786   7.703  0.00  0.00    +0.000 OA
ATOM     64  N   ARG B  10     -11.218   8.678   9.406  0.00  0.00    +0.000 N 
ATOM     65  H   ARG B  10     -11.586   8.109  10.153  0.00  0.00    +0.000 HD
BRANCH  64  66
ATOM     66  CA  ARG B  10     -11.710  10.054   9.306  0.00  0.00    +0.000 C 
BRANCH  66  67
ATOM     67  C   ARG B  10     -10.720  11.065   9.914  0.00  0.00    +0.000 C 
ATOM     68  O   ARG B  10     -10.675  12.199   9.389  0.00  0.00    +0.000 OA
ATOM     69  OXT ARG B  10     -10.039  10.703  10.901  0.00  0.00    +0.000 OA
ENDBRANCH  66  67
BRANCH  66  70
ATOM     70  CB  ARG B  10     -13.112  10.168   9.935  0.00  0.00    +0.000 C 
BRANCH  70  71
ATOM     71  CG  ARG B  10     -13.139   9.927  11.456  0.00  0.00    +0.000 C 
BRANCH  71  72
ATOM     72  CD  ARG B  10     -14.559  10.052  12.032  0.00  0.00    +0.000 C 
BRANCH  72  73
ATOM     73  NE  ARG B  10     -15.485   9.053  11.468  0.00  0.00    +0.000 N 
ATOM     74  CZ  ARG B  10     -15.534   7.745  11.776  0.00  0.00    +0.000 C 
ATOM     75  NH1 ARG B  10     -14.713   7.209  12.686  0.00  0.00    +0.000 N 
ATOM     76  NH2 ARG B  10     -16.422   6.958  11.161  0.00  0.00    +0.000 N 
ATOM     77  HE  ARG B  10     -16.131   9.391  10.770  0.00  0.00    +0.000 HD
ATOM     78 HH11 ARG B  10     -14.036   7.793  13.154  0.00  0.00    +0.000 HD
ATOM     79 HH12 ARG B  10     -14.767   6.226  12.902  0.00  0.00    +0.000 HD
ATOM     80 HH21 ARG B  10     -17.048   7.345  10.471  0.00  0.00    +0.000 HD
ATOM     81 HH22 ARG B  10     -16.465   5.975  11.386  0.00  0.00    +0.000 HD
ENDBRANCH  72  73
ENDBRANCH  71  72
ENDBRANCH  70  71
ENDBRANCH  66  70
ENDBRANCH  64  66
ENDBRANCH  61  62
BRANCH  61  82
ATOM     82  CB  ARG B   9      -8.420   6.722   9.669  0.00  0.00    +0.000 C 
BRANCH  82  83
ATOM     83  CG  ARG B   9      -8.498   7.123  11.151  0.00  0.00    +0.000 C 
BRANCH  83  84
ATOM     84  CD  ARG B   9      -7.099   7.289  11.770  0.00  0.00    +0.000 C 
BRANCH  84  85
ATOM     85  NE  ARG B   9      -6.257   6.090  11.583  0.00  0.00    +0.000 N 
ATOM     86  CZ  ARG B   9      -5.375   5.867  10.591  0.00  0.00    +0.000 C 
ATOM     87  NH1 ARG B   9      -5.099   6.790   9.662  0.00  0.00    +0.000 N 
ATOM     88  NH2 ARG B   9      -4.754   4.688  10.516  0.00  0.00    +0.000 N 
ATOM     89  HE  ARG B   9      -6.397   5.345  12.250  0.00  0.00    +0.000 HD
ATOM     90 HH11 ARG B   9      -5.563   7.684   9.679  0.00  0.00    +0.000 HD
ATOM     91 HH12 ARG B   9      -4.425   6.588   8.937  0.00  0.00    +0.000 HD
ATOM     92 HH21 ARG B   9      -4.925   3.957  11.193  0.00  0.00    +0.000 HD
ATOM     93 HH22 ARG B   9      -4.069   4.539   9.784  0.00  0.00    +0.000 HD
ENDBRANCH  84  85
ENDBRANCH  83  84
ENDBRANCH  82  83
ENDBRANCH  61  82
ENDBRANCH  59  61
ENDBRANCH  56  57
BRANCH  56  94
ATOM     94  CB  ARG B   8      -9.543   5.445   4.452  0.00  0.00    +0.000 C 
BRANCH  94  95
ATOM     95  CG  ARG B   8      -9.562   4.488   3.246  0.00  0.00    +0.000 C 
BRANCH  95  96
ATOM     96  CD  ARG B   8      -9.406   5.240   1.919  0.00  0.00    +0.000 C 
BRANCH  96  97
ATOM     97  NE  ARG B   8     -10.482   6.216   1.683  0.00  0.00    +0.000 N 
ATOM     98  CZ  ARG B   8     -10.481   7.159   0.723  0.00  0.00    +0.000 C 
ATOM     99  NH1 ARG B   8      -9.437   7.327  -0.094  0.00  0.00    +0.000 N 
ATOM    100  NH2 ARG B   8     -11.544   7.954   0.573  0.00  0.00    +0.000 N 
ATOM    101  HE  ARG B   8     -11.294   6.148   2.279  0.00  0.00    +0.000 HD
ATOM    102 HH11 ARG B   8      -8.600   6.765   0.004  0.00  0.00    +0.000 HD
ATOM    103 HH12 ARG B   8      -9.466   8.029  -0.824  0.00  0.00    +0.000 HD
ATOM    104 HH21 ARG B   8     -12.347   7.851   1.175  0.00  0.00    +0.000 HD
ATOM    105 HH22 ARG B   8     -11.537   8.657  -0.151  0.00  0.00    +0.000 HD
ENDBRANCH  96  97
ENDBRANCH  95  96
ENDBRANCH  94  95
ENDBRANCH  56  94
ENDBRANCH   3  56
TORSDOF 29
