REMARK  Name = /Users/acegid/Desktop/Smoking_Research/Docking/Docking_All_PDB/All_PDB/1X41_H.pdb
REMARK  256 active torsions:
REMARK  status: ('A' for Active; 'I' for Inactive)
REMARK    1  A    between atoms: N_1  and  CA_4
REMARK    2  A    between atoms: CA_4  and  C_5
REMARK    3  A    between atoms: N_10  and  CA_11
REMARK    4  A    between atoms: CA_11  and  C_12
REMARK    5  A    between atoms: CA_11  and  CB_14
REMARK    6  A    between atoms: CB_14  and  OG_15
REMARK    7  A    between atoms: N_21  and  CA_22
REMARK    8  A    between atoms: CA_22  and  C_23
REMARK    9  A    between atoms: CA_22  and  CB_25
REMARK   10  A    between atoms: CB_25  and  OG_26
REMARK   11  A    between atoms: N_32  and  CA_33
REMARK   12  A    between atoms: CA_33  and  C_34
REMARK   13  A    between atoms: N_39  and  CA_40
REMARK   14  A    between atoms: CA_40  and  C_41
REMARK   15  A    between atoms: CA_40  and  CB_43
REMARK   16  A    between atoms: CB_43  and  OG_44
REMARK   17  A    between atoms: N_50  and  CA_51
REMARK   18  A    between atoms: CA_51  and  C_52
REMARK   19  A    between atoms: CA_51  and  CB_54
REMARK   20  A    between atoms: CB_54  and  OG_55
REMARK   21  A    between atoms: N_61  and  CA_62
REMARK   22  A    between atoms: CA_62  and  C_63
REMARK   23  A    between atoms: N_68  and  CA_69
REMARK   24  A    between atoms: CA_69  and  C_70
REMARK   25  A    between atoms: CA_69  and  CB_72
REMARK   26  A    between atoms: CB_72  and  CG_73
REMARK   27  A    between atoms: CA_81  and  C_82
REMARK   28  A    between atoms: N_94  and  CA_95
REMARK   29  A    between atoms: CA_95  and  C_96
REMARK   30  A    between atoms: CA_95  and  CB_98
REMARK   31  A    between atoms: CB_98  and  OG_99
REMARK   32  A    between atoms: N_105  and  CA_106
REMARK   33  A    between atoms: CA_106  and  C_107
REMARK   34  A    between atoms: CA_106  and  CB_109
REMARK   35  A    between atoms: CB_109  and  CG_110
REMARK   36  A    between atoms: N_129  and  CA_130
REMARK   37  A    between atoms: CA_130  and  C_131
REMARK   38  A    between atoms: CA_130  and  CB_133
REMARK   39  A    between atoms: CB_133  and  OG1_134
REMARK   40  A    between atoms: CB_133  and  CG2_135
REMARK   41  A    between atoms: N_143  and  CA_144
REMARK   42  A    between atoms: CA_144  and  C_145
REMARK   43  A    between atoms: CA_144  and  CB_147
REMARK   44  A    between atoms: N_153  and  CA_154
REMARK   45  A    between atoms: CA_154  and  C_155
REMARK   46  A    between atoms: CA_154  and  CB_157
REMARK   47  A    between atoms: CB_157  and  CG_158
REMARK   48  A    between atoms: CG_158  and  CD_159
REMARK   49  A    between atoms: N_170  and  CA_171
REMARK   50  A    between atoms: CA_171  and  C_172
REMARK   51  A    between atoms: CA_171  and  CB_174
REMARK   52  A    between atoms: CB_174  and  CG_175
REMARK   53  A    between atoms: CG_175  and  CD_176
REMARK   54  A    between atoms: N_185  and  CA_186
REMARK   55  A    between atoms: CA_186  and  C_187
REMARK   56  A    between atoms: CA_186  and  CB_189
REMARK   57  A    between atoms: CB_189  and  CG_190
REMARK   58  A    between atoms: CG_190  and  CD_191
REMARK   59  A    between atoms: N_200  and  CA_201
REMARK   60  A    between atoms: CA_201  and  C_202
REMARK   61  A    between atoms: CA_201  and  CB_204
REMARK   62  A    between atoms: CB_204  and  CG_205
REMARK   63  A    between atoms: CG_205  and  SD_206
REMARK   64  A    between atoms: SD_206  and  CE_207
REMARK   65  A    between atoms: N_217  and  CA_218
REMARK   66  A    between atoms: CA_218  and  C_219
REMARK   67  A    between atoms: CA_218  and  CB_221
REMARK   68  A    between atoms: N_227  and  CA_228
REMARK   69  A    between atoms: CA_228  and  C_229
REMARK   70  A    between atoms: CA_228  and  CB_231
REMARK   71  A    between atoms: CB_231  and  CG_232
REMARK   72  A    between atoms: CG_232  and  CD1_233
REMARK   73  A    between atoms: CG_232  and  CD2_234
REMARK   74  A    between atoms: N_246  and  CA_247
REMARK   75  A    between atoms: CA_247  and  C_248
REMARK   76  A    between atoms: CA_247  and  CB_250
REMARK   77  A    between atoms: CB_250  and  CG_251
REMARK   78  A    between atoms: CG_251  and  CD1_252
REMARK   79  A    between atoms: CG_251  and  CD2_253
REMARK   80  A    between atoms: N_265  and  CA_266
REMARK   81  A    between atoms: CA_266  and  C_267
REMARK   82  A    between atoms: CA_266  and  CB_269
REMARK   83  A    between atoms: CB_269  and  CG_270
REMARK   84  A    between atoms: CG_270  and  CD_271
REMARK   85  A    between atoms: N_280  and  CA_281
REMARK   86  A    between atoms: CA_281  and  C_282
REMARK   87  A    between atoms: CA_281  and  CB_284
REMARK   88  A    between atoms: N_290  and  CA_291
REMARK   89  A    between atoms: CA_291  and  C_292
REMARK   90  A    between atoms: CA_291  and  CB_294
REMARK   91  A    between atoms: CB_294  and  CG1_295
REMARK   92  A    between atoms: CB_294  and  CG2_296
REMARK   93  A    between atoms: N_306  and  CA_307
REMARK   94  A    between atoms: CA_307  and  C_308
REMARK   95  A    between atoms: CA_307  and  CB_310
REMARK   96  A    between atoms: CB_310  and  CG_311
REMARK   97  A    between atoms: CG_311  and  SD_312
REMARK   98  A    between atoms: SD_312  and  CE_313
REMARK   99  A    between atoms: N_323  and  CA_324
REMARK  100  A    between atoms: CA_324  and  C_325
REMARK  101  A    between atoms: CA_324  and  CB_327
REMARK  102  A    between atoms: CB_327  and  CG_328
REMARK  103  A    between atoms: N_335  and  CA_336
REMARK  104  A    between atoms: CA_336  and  C_337
REMARK  105  A    between atoms: CA_336  and  CB_339
REMARK  106  A    between atoms: CB_339  and  SG_340
REMARK  107  A    between atoms: N_346  and  CA_347
REMARK  108  A    between atoms: CA_347  and  C_348
REMARK  109  A    between atoms: N_353  and  CA_354
REMARK  110  A    between atoms: CA_354  and  C_355
REMARK  111  A    between atoms: CA_354  and  CB_357
REMARK  112  A    between atoms: CB_357  and  CG_358
REMARK  113  A    between atoms: N_373  and  CA_374
REMARK  114  A    between atoms: CA_374  and  C_375
REMARK  115  A    between atoms: N_380  and  CA_381
REMARK  116  A    between atoms: CA_381  and  C_382
REMARK  117  A    between atoms: CA_381  and  CB_384
REMARK  118  A    between atoms: CB_384  and  CG_385
REMARK  119  A    between atoms: N_394  and  CA_395
REMARK  120  A    between atoms: CA_395  and  C_396
REMARK  121  A    between atoms: CA_395  and  CB_398
REMARK  122  A    between atoms: CB_398  and  CG_399
REMARK  123  A    between atoms: N_418  and  CA_419
REMARK  124  A    between atoms: CA_419  and  C_420
REMARK  125  A    between atoms: CA_419  and  CB_422
REMARK  126  A    between atoms: CB_422  and  CG_423
REMARK  127  A    between atoms: CG_423  and  CD_424
REMARK  128  A    between atoms: N_435  and  CA_436
REMARK  129  A    between atoms: CA_436  and  C_437
REMARK  130  A    between atoms: CA_436  and  CB_439
REMARK  131  A    between atoms: CB_439  and  CG_440
REMARK  132  A    between atoms: N_447  and  CA_448
REMARK  133  A    between atoms: CA_448  and  C_449
REMARK  134  A    between atoms: CA_448  and  CB_451
REMARK  135  A    between atoms: CB_451  and  CG1_452
REMARK  136  A    between atoms: CB_451  and  CG2_453
REMARK  137  A    between atoms: N_463  and  CA_464
REMARK  138  A    between atoms: CA_464  and  C_465
REMARK  139  A    between atoms: CA_464  and  CB_467
REMARK  140  A    between atoms: N_473  and  CA_474
REMARK  141  A    between atoms: CA_474  and  C_475
REMARK  142  A    between atoms: CA_474  and  CB_477
REMARK  143  A    between atoms: CB_477  and  CG_478
REMARK  144  A    between atoms: N_487  and  CA_488
REMARK  145  A    between atoms: CA_488  and  C_489
REMARK  146  A    between atoms: CA_488  and  CB_491
REMARK  147  A    between atoms: CB_491  and  CG_492
REMARK  148  A    between atoms: CG_492  and  CD_493
REMARK  149  A    between atoms: N_504  and  CA_505
REMARK  150  A    between atoms: CA_505  and  C_506
REMARK  151  A    between atoms: CA_505  and  CB_508
REMARK  152  A    between atoms: CB_508  and  CG_509
REMARK  153  A    between atoms: CG_509  and  SD_510
REMARK  154  A    between atoms: SD_510  and  CE_511
REMARK  155  A    between atoms: N_521  and  CA_522
REMARK  156  A    between atoms: CA_522  and  C_523
REMARK  157  A    between atoms: CA_522  and  CB_525
REMARK  158  A    between atoms: CB_525  and  SG_526
REMARK  159  A    between atoms: N_532  and  CA_533
REMARK  160  A    between atoms: CA_533  and  C_534
REMARK  161  A    between atoms: CA_533  and  CB_536
REMARK  162  A    between atoms: CB_536  and  OG1_537
REMARK  163  A    between atoms: CB_536  and  CG2_538
REMARK  164  A    between atoms: N_546  and  CA_547
REMARK  165  A    between atoms: CA_547  and  C_548
REMARK  166  A    between atoms: CA_547  and  CB_550
REMARK  167  A    between atoms: CB_550  and  CG_551
REMARK  168  A    between atoms: CG_551  and  CD_552
REMARK  169  A    between atoms: CD_552  and  CE_553
REMARK  170  A    between atoms: CE_553  and  NZ_554
REMARK  171  A    between atoms: N_568  and  CA_569
REMARK  172  A    between atoms: CA_569  and  C_570
REMARK  173  A    between atoms: CA_569  and  CB_572
REMARK  174  A    between atoms: CB_572  and  OG1_573
REMARK  175  A    between atoms: CB_572  and  CG2_574
REMARK  176  A    between atoms: N_582  and  CA_583
REMARK  177  A    between atoms: CA_583  and  C_584
REMARK  178  A    between atoms: CA_583  and  CB_586
REMARK  179  A    between atoms: CB_586  and  CG_587
REMARK  180  A    between atoms: CG_587  and  CD_588
REMARK  181  A    between atoms: CD_588  and  CE_589
REMARK  182  A    between atoms: CE_589  and  NZ_590
REMARK  183  A    between atoms: N_604  and  CA_605
REMARK  184  A    between atoms: CA_605  and  C_606
REMARK  185  A    between atoms: CA_605  and  CB_608
REMARK  186  A    between atoms: CB_608  and  CG_609
REMARK  187  A    between atoms: CG_609  and  CD_610
REMARK  188  A    between atoms: N_619  and  CA_620
REMARK  189  A    between atoms: CA_620  and  C_621
REMARK  190  A    between atoms: CA_620  and  CB_623
REMARK  191  A    between atoms: CB_623  and  CG_624
REMARK  192  A    between atoms: CG_624  and  CD_625
REMARK  193  A    between atoms: N_634  and  CA_635
REMARK  194  A    between atoms: CA_635  and  C_636
REMARK  195  A    between atoms: CA_635  and  CB_638
REMARK  196  A    between atoms: CB_638  and  SG_639
REMARK  197  A    between atoms: N_645  and  CA_646
REMARK  198  A    between atoms: CA_646  and  C_647
REMARK  199  A    between atoms: CA_646  and  CB_649
REMARK  200  A    between atoms: CB_649  and  CG_650
REMARK  201  A    between atoms: CG_650  and  CD_651
REMARK  202  A    between atoms: N_660  and  CA_661
REMARK  203  A    between atoms: CA_661  and  C_662
REMARK  204  A    between atoms: CA_661  and  CB_664
REMARK  205  A    between atoms: CB_664  and  CG_665
REMARK  206  A    between atoms: CG_665  and  CD_666
REMARK  207  A    between atoms: CD_666  and  CE_667
REMARK  208  A    between atoms: CE_667  and  NZ_668
REMARK  209  A    between atoms: N_682  and  CA_683
REMARK  210  A    between atoms: CA_683  and  C_684
REMARK  211  A    between atoms: CA_683  and  CB_686
REMARK  212  A    between atoms: CB_686  and  CG_687
REMARK  213  A    between atoms: N_700  and  CA_701
REMARK  214  A    between atoms: CA_701  and  C_702
REMARK  215  A    between atoms: CA_701  and  CB_704
REMARK  216  A    between atoms: CB_704  and  CG_705
REMARK  217  A    between atoms: CZ_710  and  OH_711
REMARK  218  A    between atoms: N_721  and  CA_722
REMARK  219  A    between atoms: CA_722  and  C_723
REMARK  220  A    between atoms: CA_722  and  CB_725
REMARK  221  A    between atoms: CB_725  and  CG_726
REMARK  222  A    between atoms: CG_726  and  SD_727
REMARK  223  A    between atoms: SD_727  and  CE_728
REMARK  224  A    between atoms: N_738  and  CA_739
REMARK  225  A    between atoms: CA_739  and  C_740
REMARK  226  A    between atoms: CA_739  and  CB_742
REMARK  227  A    between atoms: CB_742  and  CG_743
REMARK  228  A    between atoms: CG_743  and  CD_744
REMARK  229  A    between atoms: CD_744  and  CE_745
REMARK  230  A    between atoms: CE_745  and  NZ_746
REMARK  231  A    between atoms: N_760  and  CA_761
REMARK  232  A    between atoms: CA_761  and  C_762
REMARK  233  A    between atoms: CA_761  and  CB_764
REMARK  234  A    between atoms: CB_764  and  CG_765
REMARK  235  A    between atoms: CZ_770  and  OH_771
REMARK  236  A    between atoms: N_781  and  CA_782
REMARK  237  A    between atoms: CA_782  and  C_783
REMARK  238  A    between atoms: CA_782  and  CB_785
REMARK  239  A    between atoms: CB_785  and  CG_786
REMARK  240  A    between atoms: N_801  and  CA_802
REMARK  241  A    between atoms: CA_802  and  C_803
REMARK  242  A    between atoms: CA_802  and  CB_805
REMARK  243  A    between atoms: CB_805  and  OG_806
REMARK  244  A    between atoms: N_812  and  CA_813
REMARK  245  A    between atoms: CA_813  and  C_814
REMARK  246  A    between atoms: CA_820  and  C_821
REMARK  247  A    between atoms: N_833  and  CA_834
REMARK  248  A    between atoms: CA_834  and  C_835
REMARK  249  A    between atoms: CA_834  and  CB_837
REMARK  250  A    between atoms: CB_837  and  OG_838
REMARK  251  A    between atoms: N_844  and  CA_845
REMARK  252  A    between atoms: CA_845  and  C_846
REMARK  253  A    between atoms: CA_845  and  CB_848
REMARK  254  A    between atoms: CB_848  and  OG_849
REMARK  255  A    between atoms: N_855  and  CA_856
REMARK  256  A    between atoms: CA_856  and  C_857
REMARK                            x       y       z     vdW  Elec       q    Type
REMARK                         _______ _______ _______ _____ _____    ______ ____
ROOT
ATOM      1  CA  GLN A  32      -7.275  -8.080   5.276  0.00  0.00    +0.000 C 
ENDROOT
BRANCH   1   2
ATOM      2  C   GLN A  32      -7.340  -8.492   3.808  0.00  0.00    +0.000 C 
ATOM      3  O   GLN A  32      -6.410  -9.105   3.284  0.00  0.00    +0.000 OA
ATOM      4  N   ASP A  33      -8.444  -8.152   3.152  0.00  0.00    +0.000 N 
ATOM      5  H   ASP A  33      -9.150  -7.664   3.626  0.00  0.00    +0.000 HD
BRANCH   4   6
ATOM      6  CA  ASP A  33      -8.630  -8.486   1.745  0.00  0.00    +0.000 C 
BRANCH   6   7
ATOM      7  C   ASP A  33      -7.459  -7.981   0.907  0.00  0.00    +0.000 C 
ATOM      8  O   ASP A  33      -6.951  -8.692   0.040  0.00  0.00    +0.000 OA
ATOM      9  N   VAL A  34      -7.037  -6.748   1.171  0.00  0.00    +0.000 N 
ATOM     10  H   VAL A  34      -7.483  -6.231   1.874  0.00  0.00    +0.000 HD
BRANCH   9  11
ATOM     11  CA  VAL A  34      -5.927  -6.148   0.442  0.00  0.00    +0.000 C 
BRANCH  11  12
ATOM     12  C   VAL A  34      -4.657  -6.978   0.593  0.00  0.00    +0.000 C 
ATOM     13  O   VAL A  34      -3.876  -7.113  -0.348  0.00  0.00    +0.000 OA
ATOM     14  N   ALA A  35      -4.458  -7.533   1.784  0.00  0.00    +0.000 N 
ATOM     15  H   ALA A  35      -5.117  -7.389   2.495  0.00  0.00    +0.000 HD
BRANCH  14  16
ATOM     16  CA  ALA A  35      -3.284  -8.353   2.059  0.00  0.00    +0.000 C 
ATOM     17  CB  ALA A  35      -3.366  -8.939   3.460  0.00  0.00    +0.000 C 
BRANCH  16  18
ATOM     18  C   ALA A  35      -3.137  -9.464   1.025  0.00  0.00    +0.000 C 
ATOM     19  O   ALA A  35      -2.074 -10.071   0.900  0.00  0.00    +0.000 OA
ATOM     20  N   ASN A  36      -4.212  -9.727   0.289  0.00  0.00    +0.000 N 
ATOM     21  H   ASN A  36      -5.031  -9.209   0.436  0.00  0.00    +0.000 HD
BRANCH  20  22
ATOM     22  CA  ASN A  36      -4.202 -10.768  -0.733  0.00  0.00    +0.000 C 
BRANCH  22  23
ATOM     23  C   ASN A  36      -3.023 -10.586  -1.684  0.00  0.00    +0.000 C 
ATOM     24  O   ASN A  36      -2.157 -11.453  -1.786  0.00  0.00    +0.000 OA
ATOM     25  N   GLN A  37      -2.998  -9.452  -2.377  0.00  0.00    +0.000 N 
ATOM     26  H   GLN A  37      -3.718  -8.799  -2.252  0.00  0.00    +0.000 HD
BRANCH  25  27
ATOM     27  CA  GLN A  37      -1.926  -9.156  -3.319  0.00  0.00    +0.000 C 
BRANCH  27  28
ATOM     28  C   GLN A  37      -0.746  -8.498  -2.612  0.00  0.00    +0.000 C 
ATOM     29  O   GLN A  37       0.364  -8.459  -3.142  0.00  0.00    +0.000 OA
ATOM     30  N   MET A  38      -0.994  -7.982  -1.413  0.00  0.00    +0.000 N 
ATOM     31  H   MET A  38      -1.899  -8.044  -1.042  0.00  0.00    +0.000 HD
BRANCH  30  32
ATOM     32  CA  MET A  38       0.049  -7.326  -0.633  0.00  0.00    +0.000 C 
BRANCH  32  33
ATOM     33  C   MET A  38       0.718  -8.313   0.319  0.00  0.00    +0.000 C 
ATOM     34  O   MET A  38       1.657  -7.960   1.035  0.00  0.00    +0.000 OA
ATOM     35  N   CYS A  39       0.229  -9.548   0.323  0.00  0.00    +0.000 N 
ATOM     36  H   CYS A  39      -0.520  -9.768  -0.269  0.00  0.00    +0.000 HD
BRANCH  35  37
ATOM     37  CA  CYS A  39       0.779 -10.585   1.189  0.00  0.00    +0.000 C 
BRANCH  37  38
ATOM     38  C   CYS A  39       2.277 -10.383   1.396  0.00  0.00    +0.000 C 
ATOM     39  O   CYS A  39       2.825 -10.743   2.438  0.00  0.00    +0.000 OA
ATOM     40  N   THR A  40       2.934  -9.805   0.395  0.00  0.00    +0.000 N 
ATOM     41  H   THR A  40       2.442  -9.541  -0.410  0.00  0.00    +0.000 HD
BRANCH  40  42
ATOM     42  CA  THR A  40       4.369  -9.558   0.466  0.00  0.00    +0.000 C 
BRANCH  42  43
ATOM     43  C   THR A  40       4.749  -8.902   1.788  0.00  0.00    +0.000 C 
ATOM     44  O   THR A  40       5.921  -8.874   2.165  0.00  0.00    +0.000 OA
ATOM     45  N   LYS A  41       3.752  -8.375   2.490  0.00  0.00    +0.000 N 
ATOM     46  H   LYS A  41       2.839  -8.428   2.137  0.00  0.00    +0.000 HD
BRANCH  45  47
ATOM     47  CA  LYS A  41       3.981  -7.720   3.773  0.00  0.00    +0.000 C 
BRANCH  47  48
ATOM     48  C   LYS A  41       2.810  -7.956   4.721  0.00  0.00    +0.000 C 
ATOM     49  O   LYS A  41       1.879  -8.697   4.403  0.00  0.00    +0.000 OA
ATOM     50  N   THR A  42       2.860  -7.319   5.887  0.00  0.00    +0.000 N 
ATOM     51  H   THR A  42       3.628  -6.743   6.082  0.00  0.00    +0.000 HD
BRANCH  50  52
ATOM     52  CA  THR A  42       1.804  -7.460   6.881  0.00  0.00    +0.000 C 
BRANCH  52  53
ATOM     53  C   THR A  42       0.696  -6.437   6.653  0.00  0.00    +0.000 C 
ATOM     54  O   THR A  42       0.962  -5.255   6.438  0.00  0.00    +0.000 OA
ATOM     55  N   LYS A  43      -0.549  -6.900   6.703  0.00  0.00    +0.000 N 
ATOM     56  H   LYS A  43      -0.698  -7.853   6.878  0.00  0.00    +0.000 HD
BRANCH  55  57
ATOM     57  CA  LYS A  43      -1.699  -6.026   6.504  0.00  0.00    +0.000 C 
BRANCH  57  58
ATOM     58  C   LYS A  43      -1.490  -4.685   7.202  0.00  0.00    +0.000 C 
ATOM     59  O   LYS A  43      -1.964  -3.651   6.732  0.00  0.00    +0.000 OA
ATOM     60  N   GLU A  44      -0.777  -4.711   8.323  0.00  0.00    +0.000 N 
ATOM     61  H   GLU A  44      -0.425  -5.567   8.647  0.00  0.00    +0.000 HD
BRANCH  60  62
ATOM     62  CA  GLU A  44      -0.506  -3.497   9.084  0.00  0.00    +0.000 C 
BRANCH  62  63
ATOM     63  C   GLU A  44       0.386  -2.546   8.291  0.00  0.00    +0.000 C 
ATOM     64  O   GLU A  44       0.165  -1.336   8.280  0.00  0.00    +0.000 OA
ATOM     65  N   GLU A  45       1.395  -3.104   7.629  0.00  0.00    +0.000 N 
ATOM     66  H   GLU A  45       1.520  -4.075   7.676  0.00  0.00    +0.000 HD
BRANCH  65  67
ATOM     67  CA  GLU A  45       2.321  -2.306   6.834  0.00  0.00    +0.000 C 
BRANCH  67  68
ATOM     68  C   GLU A  45       1.635  -1.759   5.585  0.00  0.00    +0.000 C 
ATOM     69  O   GLU A  45       1.948  -0.661   5.123  0.00  0.00    +0.000 OA
ATOM     70  N   CYS A  46       0.700  -2.533   5.045  0.00  0.00    +0.000 N 
ATOM     71  H   CYS A  46       0.496  -3.397   5.459  0.00  0.00    +0.000 HD
BRANCH  70  72
ATOM     72  CA  CYS A  46      -0.030  -2.127   3.849  0.00  0.00    +0.000 C 
BRANCH  72  73
ATOM     73  C   CYS A  46      -0.877  -0.889   4.122  0.00  0.00    +0.000 C 
ATOM     74  O   CYS A  46      -1.164  -0.110   3.214  0.00  0.00    +0.000 OA
ATOM     75  N   GLU A  47      -1.273  -0.715   5.379  0.00  0.00    +0.000 N 
ATOM     76  H   GLU A  47      -1.012  -1.371   6.058  0.00  0.00    +0.000 HD
BRANCH  75  77
ATOM     77  CA  GLU A  47      -2.090   0.428   5.770  0.00  0.00    +0.000 C 
BRANCH  77  78
ATOM     78  C   GLU A  47      -1.224   1.664   5.993  0.00  0.00    +0.000 C 
ATOM     79  O   GLU A  47      -1.333   2.653   5.267  0.00  0.00    +0.000 OA
ATOM     80  N   LYS A  48      -0.363   1.602   7.003  0.00  0.00    +0.000 N 
ATOM     81  H   LYS A  48      -0.322   0.787   7.546  0.00  0.00    +0.000 HD
BRANCH  80  82
ATOM     82  CA  LYS A  48       0.524   2.715   7.323  0.00  0.00    +0.000 C 
BRANCH  82  83
ATOM     83  C   LYS A  48       1.212   3.241   6.067  0.00  0.00    +0.000 C 
ATOM     84  O   LYS A  48       1.242   4.448   5.823  0.00  0.00    +0.000 OA
ATOM     85  N   HIS A  49       1.762   2.328   5.273  0.00  0.00    +0.000 N 
ATOM     86  H   HIS A  49       1.706   1.382   5.521  0.00  0.00    +0.000 HD
BRANCH  85  87
ATOM     87  CA  HIS A  49       2.448   2.701   4.041  0.00  0.00    +0.000 C 
BRANCH  87  88
ATOM     88  C   HIS A  49       1.517   3.478   3.115  0.00  0.00    +0.000 C 
ATOM     89  O   HIS A  49       1.902   4.500   2.546  0.00  0.00    +0.000 OA
ATOM     90  N   TYR A  50       0.292   2.987   2.968  0.00  0.00    +0.000 N 
ATOM     91  H   TYR A  50       0.044   2.169   3.447  0.00  0.00    +0.000 HD
BRANCH  90  92
ATOM     92  CA  TYR A  50      -0.693   3.634   2.108  0.00  0.00    +0.000 C 
BRANCH  92  93
ATOM     93  C   TYR A  50      -0.901   5.089   2.517  0.00  0.00    +0.000 C 
ATOM     94  O   TYR A  50      -0.704   6.004   1.718  0.00  0.00    +0.000 OA
ATOM     95  N   MET A  51      -1.300   5.293   3.768  0.00  0.00    +0.000 N 
ATOM     96  H   MET A  51      -1.441   4.523   4.358  0.00  0.00    +0.000 HD
BRANCH  95  97
ATOM     97  CA  MET A  51      -1.534   6.637   4.285  0.00  0.00    +0.000 C 
BRANCH  97  98
ATOM     98  C   MET A  51      -0.243   7.449   4.292  0.00  0.00    +0.000 C 
ATOM     99  O   MET A  51      -0.271   8.678   4.349  0.00  0.00    +0.000 OA
ATOM    100  N   LYS A  52       0.888   6.754   4.234  0.00  0.00    +0.000 N 
ATOM    101  H   LYS A  52       0.846   5.775   4.190  0.00  0.00    +0.000 HD
BRANCH 100 102
ATOM    102  CA  LYS A  52       2.190   7.410   4.232  0.00  0.00    +0.000 C 
BRANCH 102 103
ATOM    103  C   LYS A  52       2.388   8.224   2.958  0.00  0.00    +0.000 C 
ATOM    104  O   LYS A  52       2.537   9.446   3.007  0.00  0.00    +0.000 OA
ATOM    105  N   TYR A  53       2.385   7.541   1.818  0.00  0.00    +0.000 N 
ATOM    106  H   TYR A  53       2.262   6.570   1.843  0.00  0.00    +0.000 HD
BRANCH 105 107
ATOM    107  CA  TYR A  53       2.565   8.202   0.531  0.00  0.00    +0.000 C 
BRANCH 107 108
ATOM    108  C   TYR A  53       1.247   8.783   0.028  0.00  0.00    +0.000 C 
ATOM    109  O   TYR A  53       1.098   9.999  -0.095  0.00  0.00    +0.000 OA
ATOM    110  N   PHE A  54       0.293   7.904  -0.261  0.00  0.00    +0.000 N 
ATOM    111  H   PHE A  54       0.472   6.947  -0.143  0.00  0.00    +0.000 HD
BRANCH 110 112
ATOM    112  CA  PHE A  54      -1.013   8.328  -0.751  0.00  0.00    +0.000 C 
BRANCH 112 113
ATOM    113  C   PHE A  54      -1.596   9.426   0.133  0.00  0.00    +0.000 C 
ATOM    114  O   PHE A  54      -1.854  10.538  -0.328  0.00  0.00    +0.000 OA
ATOM    115  N   SER A  55      -1.801   9.106   1.406  0.00  0.00    +0.000 N 
ATOM    116  H   SER A  55      -1.576   8.203   1.714  0.00  0.00    +0.000 HD
BRANCH 115 117
ATOM    117  CA  SER A  55      -2.358  10.063   2.356  0.00  0.00    +0.000 C 
BRANCH 117 118
ATOM    118  C   SER A  55      -1.253  10.900   2.993  0.00  0.00    +0.000 C 
ATOM    119  O   SER A  55      -1.251  11.129   4.202  0.00  0.00    +0.000 OA
ATOM    120  N   GLY A  56      -0.314  11.355   2.169  0.00  0.00    +0.000 N 
ATOM    121  H   GLY A  56      -0.366  11.141   1.214  0.00  0.00    +0.000 HD
BRANCH 120 122
ATOM    122  CA  GLY A  56       0.784  12.162   2.669  0.00  0.00    +0.000 C 
BRANCH 122 123
ATOM    123  C   GLY A  56       0.842  13.530   2.018  0.00  0.00    +0.000 C 
ATOM    124  O   GLY A  56       0.356  13.732   0.905  0.00  0.00    +0.000 OA
ATOM    125  N   PRO A  57       1.447  14.499   2.721  0.00  0.00    +0.000 N 
ATOM    126  CA  PRO A  57       1.580  15.872   2.224  0.00  0.00    +0.000 C 
ATOM    127  CB  PRO A  57       2.116  16.637   3.436  0.00  0.00    +0.000 C 
ATOM    128  CG  PRO A  57       2.814  15.608   4.256  0.00  0.00    +0.000 C 
ATOM    129  CD  PRO A  57       2.049  14.329   4.054  0.00  0.00    +0.000 C 
BRANCH 126 130
ATOM    130  C   PRO A  57       2.556  15.974   1.056  0.00  0.00    +0.000 C 
ATOM    131  O   PRO A  57       2.253  16.590   0.034  0.00  0.00    +0.000 OA
ATOM    132  N   SER A  58       3.727  15.365   1.214  0.00  0.00    +0.000 N 
ATOM    133  H   SER A  58       3.909  14.890   2.052  0.00  0.00    +0.000 HD
BRANCH 132 134
ATOM    134  CA  SER A  58       4.748  15.391   0.174  0.00  0.00    +0.000 C 
BRANCH 134 135
ATOM    135  C   SER A  58       5.262  13.984  -0.118  0.00  0.00    +0.000 C 
ATOM    136  O   SER A  58       5.357  13.147   0.780  0.00  0.00    +0.000 OA
ATOM    137  N   SER A  59       5.591  13.731  -1.381  0.00  0.00    +0.000 N 
ATOM    138  H   SER A  59       5.492  14.439  -2.051  0.00  0.00    +0.000 HD
BRANCH 137 139
ATOM    139  CA  SER A  59       6.091  12.425  -1.793  0.00  0.00    +0.000 C 
BRANCH 139 140
ATOM    140  C   SER A  59       6.971  11.813  -0.708  0.00  0.00    +0.000 C 
ATOM    141  O   SER A  59       8.096  12.256  -0.482  0.00  0.00    +0.000 OA
ATOM    142  N   GLY A  60       6.449  10.789  -0.038  0.00  0.00    +0.000 N 
ATOM    143  H   GLY A  60       5.547  10.478  -0.261  0.00  0.00    +0.000 HD
BRANCH 142 144
ATOM    144  CA  GLY A  60       7.200  10.132   1.016  0.00  0.00    +0.000 C 
BRANCH 144 145
ATOM    145  C   GLY A  60       6.307   9.367   1.972  0.00  0.00    +0.000 C 
ATOM    146  O   GLY A  60       6.141   9.761   3.127  0.00  0.00    +0.000 OA
ATOM    147  OXT GLY A  60       6.141   8.611   1.052  0.00  0.00    +0.000 OA
ENDBRANCH 144 145
ENDBRANCH 142 144
ENDBRANCH 139 140
BRANCH 139 148
ATOM    148  CB  SER A  59       6.880  12.546  -3.098  0.00  0.00    +0.000 C 
BRANCH 148 149
ATOM    149  OG  SER A  59       6.055  13.012  -4.152  0.00  0.00    +0.000 OA
ATOM    150  HG  SER A  59       6.595  13.195  -4.924  0.00  0.00    +0.000 HD
ENDBRANCH 148 149
ENDBRANCH 139 148
ENDBRANCH 137 139
ENDBRANCH 134 135
BRANCH 134 151
ATOM    151  CB  SER A  58       5.910  16.293   0.593  0.00  0.00    +0.000 C 
BRANCH 151 152
ATOM    152  OG  SER A  58       6.760  16.574  -0.506  0.00  0.00    +0.000 OA
ATOM    153  HG  SER A  58       6.671  15.880  -1.165  0.00  0.00    +0.000 HD
ENDBRANCH 151 152
ENDBRANCH 134 151
ENDBRANCH 132 134
ENDBRANCH 126 130
ENDBRANCH 122 123
ENDBRANCH 120 122
ENDBRANCH 117 118
BRANCH 117 154
ATOM    154  CB  SER A  55      -3.152   9.334   3.441  0.00  0.00    +0.000 C 
BRANCH 154 155
ATOM    155  OG  SER A  55      -4.155  10.172   3.989  0.00  0.00    +0.000 OA
ATOM    156  HG  SER A  55      -3.761  11.001   4.271  0.00  0.00    +0.000 HD
ENDBRANCH 154 155
ENDBRANCH 117 154
ENDBRANCH 115 117
ENDBRANCH 112 113
BRANCH 112 157
ATOM    157  CB  PHE A  54      -1.973   7.137  -0.804  0.00  0.00    +0.000 C 
BRANCH 157 158
ATOM    158  CG  PHE A  54      -1.494   6.020  -1.686  0.00  0.00    +0.000 A 
ATOM    159  CD1 PHE A  54      -1.158   6.259  -3.009  0.00  0.00    +0.000 A 
ATOM    160  CD2 PHE A  54      -1.380   4.730  -1.193  0.00  0.00    +0.000 A 
ATOM    161  CE1 PHE A  54      -0.718   5.233  -3.823  0.00  0.00    +0.000 A 
ATOM    162  CE2 PHE A  54      -0.940   3.700  -2.002  0.00  0.00    +0.000 A 
ATOM    163  CZ  PHE A  54      -0.607   3.952  -3.318  0.00  0.00    +0.000 A 
ENDBRANCH 157 158
ENDBRANCH 112 157
ENDBRANCH 110 112
ENDBRANCH 107 108
BRANCH 107 164
ATOM    164  CB  TYR A  53       3.127   7.218  -0.497  0.00  0.00    +0.000 C 
BRANCH 164 165
ATOM    165  CG  TYR A  53       4.466   6.633  -0.107  0.00  0.00    +0.000 A 
ATOM    166  CD1 TYR A  53       4.558   5.651   0.871  0.00  0.00    +0.000 A 
ATOM    167  CD2 TYR A  53       5.638   7.064  -0.715  0.00  0.00    +0.000 A 
ATOM    168  CE1 TYR A  53       5.779   5.114   1.232  0.00  0.00    +0.000 A 
ATOM    169  CE2 TYR A  53       6.863   6.532  -0.363  0.00  0.00    +0.000 A 
ATOM    170  CZ  TYR A  53       6.929   5.558   0.611  0.00  0.00    +0.000 A 
BRANCH 170 171
ATOM    171  OH  TYR A  53       8.147   5.027   0.967  0.00  0.00    +0.000 OA
ATOM    172  HH  TYR A  53       8.047   4.089   1.146  0.00  0.00    +0.000 HD
ENDBRANCH 170 171
ENDBRANCH 164 165
ENDBRANCH 107 164
ENDBRANCH 105 107
ENDBRANCH 102 103
BRANCH 102 173
ATOM    173  CB  LYS A  52       3.307   6.372   4.365  0.00  0.00    +0.000 C 
BRANCH 173 174
ATOM    174  CG  LYS A  52       4.539   6.893   5.085  0.00  0.00    +0.000 C 
BRANCH 174 175
ATOM    175  CD  LYS A  52       5.444   5.758   5.535  0.00  0.00    +0.000 C 
BRANCH 175 176
ATOM    176  CE  LYS A  52       6.477   5.414   4.473  0.00  0.00    +0.000 C 
BRANCH 176 177
ATOM    177  NZ  LYS A  52       7.738   6.185   4.655  0.00  0.00    +0.000 N 
ATOM    178  HZ1 LYS A  52       8.322   5.743   5.393  0.00  0.00    +0.000 HD
ATOM    179  HZ2 LYS A  52       7.522   7.162   4.938  0.00  0.00    +0.000 HD
ATOM    180  HZ3 LYS A  52       8.277   6.204   3.766  0.00  0.00    +0.000 HD
ENDBRANCH 176 177
ENDBRANCH 175 176
ENDBRANCH 174 175
ENDBRANCH 173 174
ENDBRANCH 102 173
ENDBRANCH 100 102
ENDBRANCH  97  98
BRANCH  97 181
ATOM    181  CB  MET A  51      -2.115   6.568   5.699  0.00  0.00    +0.000 C 
BRANCH 181 182
ATOM    182  CG  MET A  51      -3.436   5.821   5.778  0.00  0.00    +0.000 C 
BRANCH 182 183
ATOM    183  SD  MET A  51      -4.461   6.367   7.157  0.00  0.00    +0.000 S 
ATOM    184  CE  MET A  51      -5.145   7.883   6.491  0.00  0.00    +0.000 C 
ENDBRANCH 182 183
ENDBRANCH 181 182
ENDBRANCH  97 181
ENDBRANCH  95  97
ENDBRANCH  92  93
BRANCH  92 185
ATOM    185  CB  TYR A  50      -2.023   2.881   2.165  0.00  0.00    +0.000 C 
BRANCH 185 186
ATOM    186  CG  TYR A  50      -3.149   3.585   1.442  0.00  0.00    +0.000 A 
ATOM    187  CD1 TYR A  50      -3.745   4.718   1.982  0.00  0.00    +0.000 A 
ATOM    188  CD2 TYR A  50      -3.616   3.118   0.220  0.00  0.00    +0.000 A 
ATOM    189  CE1 TYR A  50      -4.775   5.364   1.325  0.00  0.00    +0.000 A 
ATOM    190  CE2 TYR A  50      -4.644   3.759  -0.444  0.00  0.00    +0.000 A 
ATOM    191  CZ  TYR A  50      -5.220   4.881   0.113  0.00  0.00    +0.000 A 
BRANCH 191 192
ATOM    192  OH  TYR A  50      -6.245   5.522  -0.545  0.00  0.00    +0.000 OA
ATOM    193  HH  TYR A  50      -6.922   4.883  -0.781  0.00  0.00    +0.000 HD
ENDBRANCH 191 192
ENDBRANCH 185 186
ENDBRANCH  92 185
ENDBRANCH  90  92
ENDBRANCH  87  88
BRANCH  87 194
ATOM    194  CB  HIS A  49       2.973   1.455   3.327  0.00  0.00    +0.000 C 
BRANCH 194 195
ATOM    195  CG  HIS A  49       3.726   1.758   2.069  0.00  0.00    +0.000 C 
ATOM    196  ND1 HIS A  49       5.068   2.077   2.053  0.00  0.00    +0.000 N 
ATOM    197  CD2 HIS A  49       3.319   1.788   0.778  0.00  0.00    +0.000 C 
ATOM    198  CE1 HIS A  49       5.453   2.292   0.808  0.00  0.00    +0.000 C 
ATOM    199  NE2 HIS A  49       4.410   2.122   0.015  0.00  0.00    +0.000 N 
ATOM    200  HD1 HIS A  49       5.650   2.139   2.838  0.00  0.00    +0.000 HD
ATOM    201  HE2 HIS A  49       4.399   2.303  -0.948  0.00  0.00    +0.000 HD
ENDBRANCH 194 195
ENDBRANCH  87 194
ENDBRANCH  85  87
ENDBRANCH  82  83
BRANCH  82 202
ATOM    202  CB  LYS A  48       1.574   2.279   8.348  0.00  0.00    +0.000 C 
BRANCH 202 203
ATOM    203  CG  LYS A  48       2.651   1.378   7.769  0.00  0.00    +0.000 C 
BRANCH 203 204
ATOM    204  CD  LYS A  48       3.664   0.970   8.826  0.00  0.00    +0.000 C 
BRANCH 204 205
ATOM    205  CE  LYS A  48       3.082  -0.054   9.789  0.00  0.00    +0.000 C 
BRANCH 205 206
ATOM    206  NZ  LYS A  48       3.833  -0.095  11.074  0.00  0.00    +0.000 N 
ATOM    207  HZ1 LYS A  48       3.206   0.163  11.863  0.00  0.00    +0.000 HD
ATOM    208  HZ2 LYS A  48       4.628   0.575  11.046  0.00  0.00    +0.000 HD
ATOM    209  HZ3 LYS A  48       4.206  -1.052  11.240  0.00  0.00    +0.000 HD
ENDBRANCH 205 206
ENDBRANCH 204 205
ENDBRANCH 203 204
ENDBRANCH 202 203
ENDBRANCH  82 202
ENDBRANCH  80  82
ENDBRANCH  77  78
BRANCH  77 210
ATOM    210  CB  GLU A  47      -2.878   0.108   7.042  0.00  0.00    +0.000 C 
BRANCH 210 211
ATOM    211  CG  GLU A  47      -3.330   1.342   7.805  0.00  0.00    +0.000 C 
BRANCH 211 212
ATOM    212  CD  GLU A  47      -3.927   1.006   9.158  0.00  0.00    +0.000 C 
ATOM    213  OE1 GLU A  47      -3.557  -0.044   9.724  0.00  0.00    +0.000 OA
ATOM    214  OE2 GLU A  47      -4.762   1.793   9.650  0.00  0.00    +0.000 OA
ENDBRANCH 211 212
ENDBRANCH 210 211
ENDBRANCH  77 210
ENDBRANCH  75  77
ENDBRANCH  72  73
BRANCH  72 215
ATOM    215  CB  CYS A  46      -0.919  -3.270   3.357  0.00  0.00    +0.000 C 
BRANCH 215 216
ATOM    216  SG  CYS A  46      -0.059  -4.850   3.178  0.00  0.00    +0.000 S 
ATOM    217  HG  CYS A  46       0.147  -5.343   4.390  0.00  0.00    +0.000 HD
ENDBRANCH 215 216
ENDBRANCH  72 215
ENDBRANCH  70  72
ENDBRANCH  67  68
BRANCH  67 218
ATOM    218  CB  GLU A  45       3.539  -3.143   6.436  0.00  0.00    +0.000 C 
BRANCH 218 219
ATOM    219  CG  GLU A  45       4.492  -3.417   7.587  0.00  0.00    +0.000 C 
BRANCH 219 220
ATOM    220  CD  GLU A  45       5.574  -4.414   7.223  0.00  0.00    +0.000 C 
ATOM    221  OE1 GLU A  45       6.177  -4.268   6.139  0.00  0.00    +0.000 OA
ATOM    222  OE2 GLU A  45       5.819  -5.342   8.023  0.00  0.00    +0.000 OA
ENDBRANCH 219 220
ENDBRANCH 218 219
ENDBRANCH  67 218
ENDBRANCH  65  67
ENDBRANCH  62  63
BRANCH  62 223
ATOM    223  CB  GLU A  44       0.158  -3.842  10.419  0.00  0.00    +0.000 C 
BRANCH 223 224
ATOM    224  CG  GLU A  44      -0.810  -4.383  11.458  0.00  0.00    +0.000 C 
BRANCH 224 225
ATOM    225  CD  GLU A  44      -1.570  -3.284  12.174  0.00  0.00    +0.000 C 
ATOM    226  OE1 GLU A  44      -1.916  -2.279  11.519  0.00  0.00    +0.000 OA
ATOM    227  OE2 GLU A  44      -1.819  -3.428  13.389  0.00  0.00    +0.000 OA
ENDBRANCH 224 225
ENDBRANCH 223 224
ENDBRANCH  62 223
ENDBRANCH  60  62
ENDBRANCH  57  58
BRANCH  57 228
ATOM    228  CB  LYS A  43      -2.970  -6.694   7.031  0.00  0.00    +0.000 C 
BRANCH 228 229
ATOM    229  CG  LYS A  43      -3.145  -6.569   8.535  0.00  0.00    +0.000 C 
BRANCH 229 230
ATOM    230  CD  LYS A  43      -4.565  -6.902   8.961  0.00  0.00    +0.000 C 
BRANCH 230 231
ATOM    231  CE  LYS A  43      -4.601  -7.511  10.354  0.00  0.00    +0.000 C 
BRANCH 231 232
ATOM    232  NZ  LYS A  43      -5.803  -8.367  10.555  0.00  0.00    +0.000 N 
ATOM    233  HZ1 LYS A  43      -6.176  -8.237  11.518  0.00  0.00    +0.000 HD
ATOM    234  HZ2 LYS A  43      -5.555  -9.368  10.424  0.00  0.00    +0.000 HD
ATOM    235  HZ3 LYS A  43      -6.542  -8.111   9.871  0.00  0.00    +0.000 HD
ENDBRANCH 231 232
ENDBRANCH 230 231
ENDBRANCH 229 230
ENDBRANCH 228 229
ENDBRANCH  57 228
ENDBRANCH  55  57
ENDBRANCH  52  53
BRANCH  52 236
ATOM    236  CB  THR A  42       2.352  -7.296   8.311  0.00  0.00    +0.000 C 
ATOM    237  CG2 THR A  42       3.342  -8.403   8.640  0.00  0.00    +0.000 C 
BRANCH 236 238
ATOM    238  OG1 THR A  42       2.990  -6.021   8.448  0.00  0.00    +0.000 OA
ATOM    239  HG1 THR A  42       2.378  -5.398   8.845  0.00  0.00    +0.000 HD
ENDBRANCH 236 238
ENDBRANCH  52 236
ENDBRANCH  50  52
ENDBRANCH  47  48
BRANCH  47 240
ATOM    240  CB  LYS A  41       4.193  -6.218   3.571  0.00  0.00    +0.000 C 
BRANCH 240 241
ATOM    241  CG  LYS A  41       5.333  -5.887   2.623  0.00  0.00    +0.000 C 
BRANCH 241 242
ATOM    242  CD  LYS A  41       6.664  -5.822   3.353  0.00  0.00    +0.000 C 
BRANCH 242 243
ATOM    243  CE  LYS A  41       7.795  -5.426   2.416  0.00  0.00    +0.000 C 
BRANCH 243 244
ATOM    244  NZ  LYS A  41       8.304  -6.589   1.638  0.00  0.00    +0.000 N 
ATOM    245  HZ1 LYS A  41       7.946  -7.476   2.046  0.00  0.00    +0.000 HD
ATOM    246  HZ2 LYS A  41       9.344  -6.606   1.660  0.00  0.00    +0.000 HD
ATOM    247  HZ3 LYS A  41       7.990  -6.522   0.649  0.00  0.00    +0.000 HD
ENDBRANCH 243 244
ENDBRANCH 242 243
ENDBRANCH 241 242
ENDBRANCH 240 241
ENDBRANCH  47 240
ENDBRANCH  45  47
ENDBRANCH  42  43
BRANCH  42 248
ATOM    248  CB  THR A  40       4.842  -8.661  -0.694  0.00  0.00    +0.000 C 
ATOM    249  CG2 THR A  40       5.024  -9.473  -1.967  0.00  0.00    +0.000 C 
BRANCH 248 250
ATOM    250  OG1 THR A  40       3.892  -7.614  -0.922  0.00  0.00    +0.000 OA
ATOM    251  HG1 THR A  40       3.921  -7.351  -1.845  0.00  0.00    +0.000 HD
ENDBRANCH 248 250
ENDBRANCH  42 248
ENDBRANCH  40  42
ENDBRANCH  37  38
BRANCH  37 252
ATOM    252  CB  CYS A  39       0.517 -11.969   0.592  0.00  0.00    +0.000 C 
BRANCH 252 253
ATOM    253  SG  CYS A  39      -1.049 -12.711   1.110  0.00  0.00    +0.000 S 
ATOM    254  HG  CYS A  39      -0.816 -13.445   2.188  0.00  0.00    +0.000 HD
ENDBRANCH 252 253
ENDBRANCH  37 252
ENDBRANCH  35  37
ENDBRANCH  32  33
BRANCH  32 255
ATOM    255  CB  MET A  38      -0.536  -6.154   0.158  0.00  0.00    +0.000 C 
BRANCH 255 256
ATOM    256  CG  MET A  38      -1.208  -5.108  -0.716  0.00  0.00    +0.000 C 
BRANCH 256 257
ATOM    257  SD  MET A  38      -0.090  -4.406  -1.945  0.00  0.00    +0.000 S 
ATOM    258  CE  MET A  38       1.353  -4.072  -0.938  0.00  0.00    +0.000 C 
ENDBRANCH 256 257
ENDBRANCH 255 256
ENDBRANCH  32 255
ENDBRANCH  30  32
ENDBRANCH  27  28
BRANCH  27 259
ATOM    259  CB  GLN A  37      -2.437  -8.247  -4.438  0.00  0.00    +0.000 C 
BRANCH 259 260
ATOM    260  CG  GLN A  37      -3.355  -8.952  -5.423  0.00  0.00    +0.000 C 
BRANCH 260 261
ATOM    261  CD  GLN A  37      -3.678  -8.098  -6.633  0.00  0.00    +0.000 C 
ATOM    262  OE1 GLN A  37      -3.039  -8.215  -7.679  0.00  0.00    +0.000 OA
ATOM    263  NE2 GLN A  37      -4.675  -7.231  -6.498  0.00  0.00    +0.000 N 
ATOM    264 HE21 GLN A  37      -5.140  -7.192  -5.635  0.00  0.00    +0.000 HD
ATOM    265 HE22 GLN A  37      -4.905  -6.666  -7.264  0.00  0.00    +0.000 HD
ENDBRANCH 260 261
ENDBRANCH 259 260
ENDBRANCH  27 259
ENDBRANCH  25  27
ENDBRANCH  22  23
BRANCH  22 266
ATOM    266  CB  ASN A  36      -5.514 -10.750  -1.520  0.00  0.00    +0.000 C 
BRANCH 266 267
ATOM    267  CG  ASN A  36      -6.615 -11.530  -0.827  0.00  0.00    +0.000 C 
ATOM    268  OD1 ASN A  36      -7.222 -12.425  -1.415  0.00  0.00    +0.000 OA
ATOM    269  ND2 ASN A  36      -6.877 -11.192   0.430  0.00  0.00    +0.000 N 
ATOM    270 HD21 ASN A  36      -6.354 -10.469   0.834  0.00  0.00    +0.000 HD
ATOM    271 HD22 ASN A  36      -7.584 -11.680   0.902  0.00  0.00    +0.000 HD
ENDBRANCH 266 267
ENDBRANCH  22 266
ENDBRANCH  20  22
ENDBRANCH  16  18
ENDBRANCH  14  16
ENDBRANCH  11  12
BRANCH  11 272
ATOM    272  CB  VAL A  34      -5.649  -4.712   0.925  0.00  0.00    +0.000 C 
ATOM    273  CG1 VAL A  34      -4.456  -4.122   0.189  0.00  0.00    +0.000 C 
ATOM    274  CG2 VAL A  34      -6.882  -3.841   0.743  0.00  0.00    +0.000 C 
ENDBRANCH  11 272
ENDBRANCH   9  11
ENDBRANCH   6   7
BRANCH   6 275
ATOM    275  CB  ASP A  33      -9.939  -7.889   1.226  0.00  0.00    +0.000 C 
BRANCH 275 276
ATOM    276  CG  ASP A  33     -10.556  -8.721   0.119  0.00  0.00    +0.000 C 
ATOM    277  OD1 ASP A  33      -9.794  -9.301  -0.682  0.00  0.00    +0.000 OA
ATOM    278  OD2 ASP A  33     -11.802  -8.792   0.054  0.00  0.00    +0.000 OA
ENDBRANCH 275 276
ENDBRANCH   6 275
ENDBRANCH   4   6
ENDBRANCH   1   2
BRANCH   1 281
ATOM    279  C   TRP A  31      -6.375  -5.849   4.911  0.00  0.00    +0.000 C 
ATOM    280  O   TRP A  31      -5.397  -6.288   4.305  0.00  0.00    +0.000 OA
ATOM    281  N   GLN A  32      -7.327  -6.630   5.412  0.00  0.00    +0.000 N 
ATOM    282  H   GLN A  32      -8.081  -6.221   5.884  0.00  0.00    +0.000 HD
BRANCH 279 283
ATOM    283  CA  TRP A  31      -6.551  -4.350   5.124  0.00  0.00    +0.000 C 
BRANCH 283 286
ATOM    284  C   ASN A  30      -8.814  -4.527   4.248  0.00  0.00    +0.000 C 
ATOM    285  O   ASN A  30      -8.478  -5.364   3.411  0.00  0.00    +0.000 OA
ATOM    286  N   TRP A  31      -7.963  -3.984   5.111  0.00  0.00    +0.000 N 
ATOM    287  H   TRP A  31      -8.291  -3.322   5.755  0.00  0.00    +0.000 HD
BRANCH 284 288
ATOM    288  CA  ASN A  30     -10.262  -4.055   4.344  0.00  0.00    +0.000 C 
BRANCH 288 291
ATOM    289  C   GLY A  29     -10.149  -2.054   5.726  0.00  0.00    +0.000 C 
ATOM    290  O   GLY A  29      -9.920  -2.709   6.742  0.00  0.00    +0.000 OA
ATOM    291  N   ASN A  30     -10.327  -2.611   4.532  0.00  0.00    +0.000 N 
ATOM    292  H   ASN A  30     -10.506  -2.036   3.759  0.00  0.00    +0.000 HD
BRANCH 289 293
ATOM    293  CA  GLY A  29     -10.244  -0.543   5.785  0.00  0.00    +0.000 C 
BRANCH 293 296
ATOM    294  C   PHE A  28     -10.925   0.268   3.611  0.00  0.00    +0.000 C 
ATOM    295  O   PHE A  28     -12.092  -0.071   3.805  0.00  0.00    +0.000 OA
ATOM    296  N   GLY A  29      -9.960   0.082   4.507  0.00  0.00    +0.000 N 
ATOM    297  H   GLY A  29      -9.047   0.372   4.298  0.00  0.00    +0.000 HD
BRANCH 294 298
ATOM    298  CA  PHE A  28     -10.509   0.933   2.302  0.00  0.00    +0.000 C 
BRANCH 298 301
ATOM    299  C   GLY A  27     -11.140  -0.774   0.686  0.00  0.00    +0.000 C 
ATOM    300  O   GLY A  27     -10.297  -1.562   1.115  0.00  0.00    +0.000 OA
ATOM    301  N   PHE A  28     -11.316   0.443   1.191  0.00  0.00    +0.000 N 
ATOM    302  H   PHE A  28     -12.004   1.025   0.806  0.00  0.00    +0.000 HD
BRANCH 299 303
ATOM    303  CA  GLY A  27     -12.041  -1.160  -0.470  0.00  0.00    +0.000 C 
BRANCH 303 306
ATOM    304  C   CYS A  26     -12.432  -3.297  -1.531  0.00  0.00    +0.000 C 
ATOM    305  O   CYS A  26     -13.641  -3.231  -1.312  0.00  0.00    +0.000 OA
ATOM    306  N   GLY A  27     -11.577  -2.348  -1.163  0.00  0.00    +0.000 N 
ATOM    307  H   GLY A  27     -10.624  -2.454  -1.364  0.00  0.00    +0.000 HD
BRANCH 304 308
ATOM    308  CA  CYS A  26     -11.832  -4.501  -2.250  0.00  0.00    +0.000 C 
BRANCH 308 311
ATOM    309  C   ASP A  25     -11.691  -4.240  -4.666  0.00  0.00    +0.000 C 
ATOM    310  O   ASP A  25     -12.807  -4.732  -4.835  0.00  0.00    +0.000 OA
ATOM    311  N   CYS A  26     -11.141  -4.088  -3.466  0.00  0.00    +0.000 N 
ATOM    312  H   CYS A  26     -10.248  -3.689  -3.396  0.00  0.00    +0.000 HD
BRANCH 309 313
ATOM    313  CA  ASP A  25     -10.858  -3.767  -5.853  0.00  0.00    +0.000 C 
BRANCH 313 316
ATOM    314  C   MET A  24     -10.742  -1.354  -5.560  0.00  0.00    +0.000 C 
ATOM    315  O   MET A  24     -11.927  -1.210  -5.861  0.00  0.00    +0.000 OA
ATOM    316  N   ASP A  25     -10.142  -2.539  -5.529  0.00  0.00    +0.000 N 
ATOM    317  H   ASP A  25      -9.194  -2.589  -5.282  0.00  0.00    +0.000 HD
BRANCH 314 318
ATOM    318  CA  MET A  24      -9.877  -0.151  -5.199  0.00  0.00    +0.000 C 
BRANCH 318 321
ATOM    319  C   VAL A  23      -8.843  -0.439  -3.014  0.00  0.00    +0.000 C 
ATOM    320  O   VAL A  23      -9.835  -0.002  -2.432  0.00  0.00    +0.000 OA
ATOM    321  N   MET A  24      -8.769  -0.547  -4.337  0.00  0.00    +0.000 N 
ATOM    322  H   MET A  24      -7.951  -0.903  -4.744  0.00  0.00    +0.000 HD
BRANCH 319 323
ATOM    323  CA  VAL A  23      -7.614  -0.891  -2.233  0.00  0.00    +0.000 C 
BRANCH 323 326
ATOM    324  C   ALA A  22      -7.418  -3.118  -3.196  0.00  0.00    +0.000 C 
ATOM    325  O   ALA A  22      -8.551  -3.430  -2.830  0.00  0.00    +0.000 OA
ATOM    326  N   VAL A  23      -6.883  -1.925  -2.956  0.00  0.00    +0.000 N 
ATOM    327  H   VAL A  23      -5.975  -1.736  -3.272  0.00  0.00    +0.000 HD
BRANCH 324 328
ATOM    328  CA  ALA A  22      -6.545  -4.106  -3.962  0.00  0.00    +0.000 C 
ATOM    329  CB  ALA A  22      -5.585  -4.810  -3.014  0.00  0.00    +0.000 C 
BRANCH 328 332
ATOM    330  C   GLU A  21      -6.427  -2.861  -6.049  0.00  0.00    +0.000 C 
ATOM    331  O   GLU A  21      -7.652  -2.850  -6.170  0.00  0.00    +0.000 OA
ATOM    332  N   ALA A  22      -5.806  -3.438  -5.026  0.00  0.00    +0.000 N 
ATOM    333  H   ALA A  22      -4.827  -3.413  -4.985  0.00  0.00    +0.000 HD
BRANCH 330 334
ATOM    334  CA  GLU A  21      -5.532  -2.196  -7.091  0.00  0.00    +0.000 C 
BRANCH 334 337
ATOM    335  C   LEU A  20      -4.989  -0.435  -5.501  0.00  0.00    +0.000 C 
ATOM    336  O   LEU A  20      -6.145  -0.387  -5.083  0.00  0.00    +0.000 OA
ATOM    337  N   GLU A  21      -4.599  -1.269  -6.460  0.00  0.00    +0.000 N 
ATOM    338  H   GLU A  21      -3.664  -1.261  -6.751  0.00  0.00    +0.000 HD
BRANCH 335 339
ATOM    339  CA  LEU A  20      -3.912   0.479  -4.926  0.00  0.00    +0.000 C 
BRANCH 339 342
ATOM    340  C   LEU A  19      -2.963  -1.141  -3.377  0.00  0.00    +0.000 C 
ATOM    341  O   LEU A  19      -4.049  -1.324  -2.826  0.00  0.00    +0.000 OA
ATOM    342  N   LEU A  20      -2.800  -0.298  -4.391  0.00  0.00    +0.000 N 
ATOM    343  H   LEU A  20      -1.911  -0.195  -4.789  0.00  0.00    +0.000 HD
BRANCH 340 344
ATOM    344  CA  LEU A  19      -1.717  -1.892  -2.919  0.00  0.00    +0.000 C 
BRANCH 344 347
ATOM    345  C   ALA A  18      -1.615  -3.354  -4.863  0.00  0.00    +0.000 C 
ATOM    346  O   ALA A  18      -2.783  -3.716  -4.713  0.00  0.00    +0.000 OA
ATOM    347  N   LEU A  19      -1.019  -2.485  -4.054  0.00  0.00    +0.000 N 
ATOM    348  H   LEU A  19      -0.087  -2.235  -4.224  0.00  0.00    +0.000 HD
BRANCH 345 349
ATOM    349  CA  ALA A  18      -0.770  -3.896  -6.010  0.00  0.00    +0.000 C 
ATOM    350  CB  ALA A  18       0.084  -5.062  -5.534  0.00  0.00    +0.000 C 
BRANCH 349 353
ATOM    351  C   MET A  17      -0.446  -1.746  -7.102  0.00  0.00    +0.000 C 
ATOM    352  O   MET A  17      -1.656  -1.528  -7.143  0.00  0.00    +0.000 OA
ATOM    353  N   ALA A  18       0.073  -2.853  -6.580  0.00  0.00    +0.000 N 
ATOM    354  H   ALA A  18       1.046  -2.969  -6.577  0.00  0.00    +0.000 HD
BRANCH 351 355
ATOM    355  CA  MET A  17       0.549  -0.735  -7.663  0.00  0.00    +0.000 C 
BRANCH 355 358
ATOM    356  C   GLU A  16       1.483  -0.216  -5.476  0.00  0.00    +0.000 C 
ATOM    357  O   GLU A  16       0.368  -0.045  -4.985  0.00  0.00    +0.000 OA
ATOM    358  N   MET A  17       1.670  -0.548  -6.750  0.00  0.00    +0.000 N 
ATOM    359  H   MET A  17       2.584  -0.670  -7.083  0.00  0.00    +0.000 HD
BRANCH 356 360
ATOM    360  CA  GLU A  16       2.743  -0.053  -4.631  0.00  0.00    +0.000 C 
BRANCH 360 363
ATOM    361  C   GLU A  15       2.882  -2.434  -4.147  0.00  0.00    +0.000 C 
ATOM    362  O   GLU A  15       1.693  -2.491  -3.838  0.00  0.00    +0.000 OA
ATOM    363  N   GLU A  16       3.475  -1.311  -4.541  0.00  0.00    +0.000 N 
ATOM    364  H   GLU A  16       4.427  -1.329  -4.774  0.00  0.00    +0.000 HD
BRANCH 361 365
ATOM    365  CA  GLU A  15       3.764  -3.678  -4.096  0.00  0.00    +0.000 C 
BRANCH 365 368
ATOM    366  C   GLN A  14       4.000  -3.785  -6.515  0.00  0.00    +0.000 C 
ATOM    367  O   GLN A  14       2.788  -3.666  -6.689  0.00  0.00    +0.000 OA
ATOM    368  N   GLU A  15       4.561  -3.801  -5.310  0.00  0.00    +0.000 N 
ATOM    369  H   GLU A  15       5.534  -3.899  -5.237  0.00  0.00    +0.000 HD
BRANCH 366 370
ATOM    370  CA  GLN A  14       4.948  -3.924  -7.702  0.00  0.00    +0.000 C 
BRANCH 370 373
ATOM    371  C   ALA A  13       5.927  -1.703  -7.525  0.00  0.00    +0.000 C 
ATOM    372  O   ALA A  13       4.826  -1.157  -7.594  0.00  0.00    +0.000 OA
ATOM    373  N   GLN A  14       6.086  -3.022  -7.567  0.00  0.00    +0.000 N 
ATOM    374  H   GLN A  14       6.989  -3.397  -7.507  0.00  0.00    +0.000 HD
BRANCH 371 375
ATOM    375  CA  ALA A  13       7.200  -0.876  -7.384  0.00  0.00    +0.000 C 
ATOM    376  CB  ALA A  13       7.854  -0.673  -8.743  0.00  0.00    +0.000 C 
BRANCH 375 379
ATOM    377  C   THR A  12       7.803  -1.770  -5.202  0.00  0.00    +0.000 C 
ATOM    378  O   THR A  12       6.697  -1.503  -4.732  0.00  0.00    +0.000 OA
ATOM    379  N   ALA A  13       8.136  -1.506  -6.461  0.00  0.00    +0.000 N 
ATOM    380  H   ALA A  13       9.033  -1.743  -6.778  0.00  0.00    +0.000 HD
BRANCH 377 381
ATOM    381  CA  THR A  12       8.875  -2.434  -4.346  0.00  0.00    +0.000 C 
BRANCH 381 384
ATOM    382  C   TRP A  11       9.383  -1.863  -2.036  0.00  0.00    +0.000 C 
ATOM    383  O   TRP A  11      10.497  -1.431  -2.336  0.00  0.00    +0.000 OA
ATOM    384  N   THR A  12       8.537  -2.363  -2.931  0.00  0.00    +0.000 N 
ATOM    385  H   THR A  12       7.664  -2.692  -2.630  0.00  0.00    +0.000 HD
BRANCH 382 386
ATOM    386  CA  TRP A  11       8.904  -1.849  -0.589  0.00  0.00    +0.000 C 
BRANCH 386 389
ATOM    387  C   SER A  10      10.876  -2.359   0.742  0.00  0.00    +0.000 C 
ATOM    388  O   SER A  10      10.853  -3.545   0.412  0.00  0.00    +0.000 OA
ATOM    389  N   TRP A  11       9.985  -1.472   0.315  0.00  0.00    +0.000 N 
ATOM    390  H   TRP A  11      10.056  -0.540   0.613  0.00  0.00    +0.000 HD
BRANCH 387 391
ATOM    391  CA  SER A  10      11.953  -1.830   1.684  0.00  0.00    +0.000 C 
BRANCH 391 394
ATOM    392  C   PRO A   9      14.043  -0.922   0.826  0.00  0.00    +0.000 C 
ATOM    393  O   PRO A   9      14.672  -1.929   1.151  0.00  0.00    +0.000 OA
ATOM    394  N   SER A  10      12.738  -0.784   1.038  0.00  0.00    +0.000 N 
ATOM    395  H   SER A  10      12.293   0.043   0.756  0.00  0.00    +0.000 HD
BRANCH 392 399
ATOM    396  C   ASP A   8      12.900   1.185  -1.196  0.00  0.00    +0.000 C 
ATOM    397  O   ASP A   8      12.788   0.148  -1.851  0.00  0.00    +0.000 OA
ATOM    398  N   PRO A   9      13.810   1.319  -0.220  0.00  0.00    +0.000 N 
ATOM    399  CA  PRO A   9      14.743   0.249   0.145  0.00  0.00    +0.000 C 
ATOM    400  CB  PRO A   9      15.706   0.935   1.117  0.00  0.00    +0.000 C 
ATOM    401  CG  PRO A   9      14.924   2.063   1.694  0.00  0.00    +0.000 C 
ATOM    402  CD  PRO A   9      13.999   2.527   0.602  0.00  0.00    +0.000 C 
BRANCH 396 403
ATOM    403  CA  ASP A   8      12.004   2.393  -1.452  0.00  0.00    +0.000 C 
BRANCH 403 406
ATOM    404  C   GLY A   7      11.242   3.694  -3.363  0.00  0.00    +0.000 C 
ATOM    405  O   GLY A   7      10.900   4.636  -2.648  0.00  0.00    +0.000 OA
ATOM    406  N   ASP A   8      11.779   2.578  -2.881  0.00  0.00    +0.000 N 
ATOM    407  H   ASP A   8      12.031   1.863  -3.502  0.00  0.00    +0.000 HD
BRANCH 404 408
ATOM    408  CA  GLY A   7      11.060   3.759  -4.866  0.00  0.00    +0.000 C 
BRANCH 408 411
ATOM    409  C   SER A   6       9.432   5.481  -5.347  0.00  0.00    +0.000 C 
ATOM    410  O   SER A   6       8.503   4.759  -4.988  0.00  0.00    +0.000 OA
ATOM    411  N   GLY A   7      10.703   5.089  -5.325  0.00  0.00    +0.000 N 
ATOM    412  H   GLY A   7      11.402   5.707  -5.623  0.00  0.00    +0.000 HD
BRANCH 409 413
ATOM    413  CA  SER A   6       9.175   6.899  -5.849  0.00  0.00    +0.000 C 
BRANCH 413 416
ATOM    414  C   SER A   5       8.235   7.994  -7.808  0.00  0.00    +0.000 C 
ATOM    415  O   SER A   5       8.583   9.107  -7.415  0.00  0.00    +0.000 OA
ATOM    416  N   SER A   6       8.476   6.878  -7.128  0.00  0.00    +0.000 N 
ATOM    417  H   SER A   6       8.173   6.021  -7.494  0.00  0.00    +0.000 HD
BRANCH 414 418
ATOM    418  CA  SER A   5       7.490   7.828  -9.130  0.00  0.00    +0.000 C 
BRANCH 418 421
ATOM    419  C   GLY A   4       5.309   6.821  -8.741  0.00  0.00    +0.000 C 
ATOM    420  O   GLY A   4       5.781   5.684  -8.724  0.00  0.00    +0.000 OA
ATOM    421  N   SER A   5       6.049   7.909  -8.927  0.00  0.00    +0.000 N 
ATOM    422  H   SER A   5       5.614   8.788  -8.931  0.00  0.00    +0.000 HD
BRANCH 419 423
ATOM    423  CA  GLY A   4       3.822   7.043  -8.549  0.00  0.00    +0.000 C 
BRANCH 423 426
ATOM    424  C   SER A   3       2.046   7.482 -10.131  0.00  0.00    +0.000 C 
ATOM    425  O   SER A   3       1.392   6.523  -9.725  0.00  0.00    +0.000 OA
ATOM    426  N   GLY A   4       3.231   7.814  -9.627  0.00  0.00    +0.000 N 
ATOM    427  H   GLY A   4       3.708   8.590  -9.990  0.00  0.00    +0.000 HD
BRANCH 424 428
ATOM    428  CA  SER A   3       1.525   8.365 -11.260  0.00  0.00    +0.000 C 
BRANCH 428 431
ATOM    429  C   SER A   2       0.766  10.430 -10.217  0.00  0.00    +0.000 C 
ATOM    430  O   SER A   2      -0.258   9.896  -9.791  0.00  0.00    +0.000 OA
ATOM    431  N   SER A   3       1.680   9.777 -10.929  0.00  0.00    +0.000 N 
ATOM    432  H   SER A   3       2.475  10.258 -11.241  0.00  0.00    +0.000 HD
BRANCH 429 433
ATOM    433  CA  SER A   2       1.052  11.904  -9.948  0.00  0.00    +0.000 C 
BRANCH 433 436
ATOM    434  C   GLY A   1      -0.114  13.922 -10.650  0.00  0.00    +0.000 C 
ATOM    435  O   GLY A   1       0.928  14.448 -11.040  0.00  0.00    +0.000 OA
ATOM    436  N   SER A   2      -0.154  12.706 -10.115  0.00  0.00    +0.000 N 
ATOM    437  H   SER A   2      -1.016  12.340  -9.824  0.00  0.00    +0.000 HD
BRANCH 434 438
ATOM    438  CA  GLY A   1      -1.438  14.652 -10.762  0.00  0.00    +0.000 C 
BRANCH 438 439
ATOM    439  N   GLY A   1      -2.180  14.651  -9.515  0.00  0.00    +0.000 N 
ATOM    440  H2  GLY A   1      -3.075  13.847  -9.477  0.00  0.00    +0.000 HD
ATOM    441  H3  GLY A   1      -2.851  15.653  -9.490  0.00  0.00    +0.000 HD
ATOM    442  H   GLY A   1      -1.698  14.650  -8.661  0.00  0.00    +0.000 HD
ENDBRANCH 438 439
ENDBRANCH 434 438
ENDBRANCH 433 436
BRANCH 433 443
ATOM    443  CB  SER A   2       1.612  12.076  -8.534  0.00  0.00    +0.000 C 
BRANCH 443 444
ATOM    444  OG  SER A   2       2.785  11.301  -8.353  0.00  0.00    +0.000 OA
ATOM    445  HG  SER A   2       2.765  10.547  -8.946  0.00  0.00    +0.000 HD
ENDBRANCH 443 444
ENDBRANCH 433 443
ENDBRANCH 429 433
ENDBRANCH 428 431
BRANCH 428 446
ATOM    446  CB  SER A   3       2.265   8.041 -12.559  0.00  0.00    +0.000 C 
BRANCH 446 447
ATOM    447  OG  SER A   3       3.644   8.348 -12.451  0.00  0.00    +0.000 OA
ATOM    448  HG  SER A   3       3.887   8.977 -13.135  0.00  0.00    +0.000 HD
ENDBRANCH 446 447
ENDBRANCH 428 446
ENDBRANCH 424 428
ENDBRANCH 423 426
ENDBRANCH 419 423
ENDBRANCH 418 421
BRANCH 418 449
ATOM    449  CB  SER A   5       7.948   8.897 -10.124  0.00  0.00    +0.000 C 
BRANCH 449 450
ATOM    450  OG  SER A   5       7.645  10.198  -9.650  0.00  0.00    +0.000 OA
ATOM    451  HG  SER A   5       7.421  10.765 -10.391  0.00  0.00    +0.000 HD
ENDBRANCH 449 450
ENDBRANCH 418 449
ENDBRANCH 414 418
ENDBRANCH 413 416
BRANCH 413 452
ATOM    452  CB  SER A   6       8.365   7.679  -4.813  0.00  0.00    +0.000 C 
BRANCH 452 453
ATOM    453  OG  SER A   6       9.087   7.823  -3.602  0.00  0.00    +0.000 OA
ATOM    454  HG  SER A   6       8.574   7.459  -2.877  0.00  0.00    +0.000 HD
ENDBRANCH 452 453
ENDBRANCH 413 452
ENDBRANCH 409 413
ENDBRANCH 408 411
ENDBRANCH 404 408
ENDBRANCH 403 406
BRANCH 403 455
ATOM    455  CB  ASP A   8      10.672   2.221  -0.722  0.00  0.00    +0.000 C 
BRANCH 455 456
ATOM    456  CG  ASP A   8      10.744   2.662   0.726  0.00  0.00    +0.000 C 
ATOM    457  OD1 ASP A   8      11.080   3.839   0.972  0.00  0.00    +0.000 OA
ATOM    458  OD2 ASP A   8      10.465   1.829   1.615  0.00  0.00    +0.000 OA
ENDBRANCH 455 456
ENDBRANCH 403 455
ENDBRANCH 396 403
ENDBRANCH 392 399
ENDBRANCH 391 394
BRANCH 391 459
ATOM    459  CB  SER A  10      11.310  -1.296   2.965  0.00  0.00    +0.000 C 
BRANCH 459 460
ATOM    460  OG  SER A  10      12.290  -0.789   3.855  0.00  0.00    +0.000 OA
ATOM    461  HG  SER A  10      13.028  -0.437   3.352  0.00  0.00    +0.000 HD
ENDBRANCH 459 460
ENDBRANCH 391 459
ENDBRANCH 387 391
ENDBRANCH 386 389
BRANCH 386 462
ATOM    462  CB  TRP A  11       7.726  -0.884  -0.438  0.00  0.00    +0.000 C 
BRANCH 462 463
ATOM    463  CG  TRP A  11       6.814  -1.233   0.699  0.00  0.00    +0.000 A 
ATOM    464  CD1 TRP A  11       7.165  -1.409   2.007  0.00  0.00    +0.000 A 
ATOM    465  CD2 TRP A  11       5.401  -1.449   0.628  0.00  0.00    +0.000 A 
ATOM    466  NE1 TRP A  11       6.055  -1.722   2.753  0.00  0.00    +0.000 N 
ATOM    467  CE2 TRP A  11       4.960  -1.752   1.931  0.00  0.00    +0.000 A 
ATOM    468  CE3 TRP A  11       4.464  -1.415  -0.409  0.00  0.00    +0.000 A 
ATOM    469  CZ2 TRP A  11       3.624  -2.020   2.221  0.00  0.00    +0.000 A 
ATOM    470  CZ3 TRP A  11       3.139  -1.681  -0.119  0.00  0.00    +0.000 A 
ATOM    471  CH2 TRP A  11       2.729  -1.979   1.187  0.00  0.00    +0.000 A 
ATOM    472  HE1 TRP A  11       6.048  -1.894   3.718  0.00  0.00    +0.000 HD
ENDBRANCH 462 463
ENDBRANCH 386 462
ENDBRANCH 382 386
ENDBRANCH 381 384
BRANCH 381 473
ATOM    473  CB  THR A  12       9.054  -3.893  -4.808  0.00  0.00    +0.000 C 
ATOM    474  CG2 THR A  12      10.050  -4.624  -3.920  0.00  0.00    +0.000 C 
BRANCH 473 475
ATOM    475  OG1 THR A  12       7.795  -4.573  -4.782  0.00  0.00    +0.000 OA
ATOM    476  HG1 THR A  12       7.198  -4.119  -4.183  0.00  0.00    +0.000 HD
ENDBRANCH 473 475
ENDBRANCH 381 473
ENDBRANCH 377 381
ENDBRANCH 375 379
ENDBRANCH 371 375
ENDBRANCH 370 373
BRANCH 370 477
ATOM    477  CB  GLN A  14       5.429  -5.372  -7.819  0.00  0.00    +0.000 C 
BRANCH 477 478
ATOM    478  CG  GLN A  14       6.218  -5.650  -9.088  0.00  0.00    +0.000 C 
BRANCH 478 479
ATOM    479  CD  GLN A  14       6.381  -7.132  -9.360  0.00  0.00    +0.000 C 
ATOM    480  OE1 GLN A  14       5.410  -7.833  -9.650  0.00  0.00    +0.000 OA
ATOM    481  NE2 GLN A  14       7.613  -7.619  -9.269  0.00  0.00    +0.000 N 
ATOM    482 HE21 GLN A  14       8.338  -7.002  -9.033  0.00  0.00    +0.000 HD
ATOM    483 HE22 GLN A  14       7.747  -8.574  -9.439  0.00  0.00    +0.000 HD
ENDBRANCH 478 479
ENDBRANCH 477 478
ENDBRANCH 370 477
ENDBRANCH 366 370
ENDBRANCH 365 368
BRANCH 365 484
ATOM    484  CB  GLU A  15       4.674  -3.621  -2.866  0.00  0.00    +0.000 C 
BRANCH 484 485
ATOM    485  CG  GLU A  15       4.979  -4.985  -2.271  0.00  0.00    +0.000 C 
BRANCH 485 486
ATOM    486  CD  GLU A  15       5.420  -5.992  -3.316  0.00  0.00    +0.000 C 
ATOM    487  OE1 GLU A  15       4.666  -6.205  -4.289  0.00  0.00    +0.000 OA
ATOM    488  OE2 GLU A  15       6.517  -6.566  -3.162  0.00  0.00    +0.000 OA
ENDBRANCH 485 486
ENDBRANCH 484 485
ENDBRANCH 365 484
ENDBRANCH 361 365
ENDBRANCH 360 363
BRANCH 360 489
ATOM    489  CB  GLU A  16       3.634   1.038  -5.230  0.00  0.00    +0.000 C 
BRANCH 489 490
ATOM    490  CG  GLU A  16       4.838   1.381  -4.369  0.00  0.00    +0.000 C 
BRANCH 490 491
ATOM    491  CD  GLU A  16       5.336   2.795  -4.599  0.00  0.00    +0.000 C 
ATOM    492  OE1 GLU A  16       6.161   2.992  -5.516  0.00  0.00    +0.000 OA
ATOM    493  OE2 GLU A  16       4.901   3.704  -3.862  0.00  0.00    +0.000 OA
ENDBRANCH 490 491
ENDBRANCH 489 490
ENDBRANCH 360 489
ENDBRANCH 356 360
ENDBRANCH 355 358
BRANCH 355 494
ATOM    494  CB  MET A  17       1.050  -1.199  -9.032  0.00  0.00    +0.000 C 
BRANCH 494 495
ATOM    495  CG  MET A  17       1.969  -0.199  -9.714  0.00  0.00    +0.000 C 
BRANCH 495 496
ATOM    496  SD  MET A  17       1.979  -0.378 -11.508  0.00  0.00    +0.000 S 
ATOM    497  CE  MET A  17       1.211   1.162 -12.007  0.00  0.00    +0.000 C 
ENDBRANCH 495 496
ENDBRANCH 494 495
ENDBRANCH 355 494
ENDBRANCH 351 355
ENDBRANCH 349 353
ENDBRANCH 345 349
ENDBRANCH 344 347
BRANCH 344 498
ATOM    498  CB  LEU A  19      -0.787  -0.944  -2.161  0.00  0.00    +0.000 C 
BRANCH 498 499
ATOM    499  CG  LEU A  19      -1.328  -0.380  -0.846  0.00  0.00    +0.000 C 
ATOM    500  CD1 LEU A  19      -1.782  -1.506   0.071  0.00  0.00    +0.000 C 
ATOM    501  CD2 LEU A  19      -0.276   0.478  -0.160  0.00  0.00    +0.000 C 
ENDBRANCH 498 499
ENDBRANCH 344 498
ENDBRANCH 340 344
ENDBRANCH 339 342
BRANCH 339 502
ATOM    502  CB  LEU A  20      -3.414   1.442  -6.006  0.00  0.00    +0.000 C 
BRANCH 502 503
ATOM    503  CG  LEU A  20      -2.558   2.612  -5.520  0.00  0.00    +0.000 C 
ATOM    504  CD1 LEU A  20      -1.819   3.253  -6.684  0.00  0.00    +0.000 C 
ATOM    505  CD2 LEU A  20      -3.420   3.640  -4.802  0.00  0.00    +0.000 C 
ENDBRANCH 502 503
ENDBRANCH 339 502
ENDBRANCH 335 339
ENDBRANCH 334 337
BRANCH 334 506
ATOM    506  CB  GLU A  21      -4.770  -3.263  -7.880  0.00  0.00    +0.000 C 
BRANCH 506 507
ATOM    507  CG  GLU A  21      -4.338  -2.804  -9.263  0.00  0.00    +0.000 C 
BRANCH 507 508
ATOM    508  CD  GLU A  21      -5.509  -2.618 -10.208  0.00  0.00    +0.000 C 
ATOM    509  OE1 GLU A  21      -6.030  -3.633 -10.716  0.00  0.00    +0.000 OA
ATOM    510  OE2 GLU A  21      -5.904  -1.456 -10.440  0.00  0.00    +0.000 OA
ENDBRANCH 507 508
ENDBRANCH 506 507
ENDBRANCH 334 506
ENDBRANCH 330 334
ENDBRANCH 328 332
ENDBRANCH 324 328
ENDBRANCH 323 326
BRANCH 323 511
ATOM    511  CB  VAL A  23      -6.722   0.332  -1.948  0.00  0.00    +0.000 C 
ATOM    512  CG1 VAL A  23      -7.550   1.478  -1.387  0.00  0.00    +0.000 C 
ATOM    513  CG2 VAL A  23      -5.597  -0.041  -0.994  0.00  0.00    +0.000 C 
ENDBRANCH 323 511
ENDBRANCH 319 323
ENDBRANCH 318 321
BRANCH 318 514
ATOM    514  CB  MET A  24      -9.348   0.513  -6.472  0.00  0.00    +0.000 C 
BRANCH 514 515
ATOM    515  CG  MET A  24      -8.284   1.567  -6.211  0.00  0.00    +0.000 C 
BRANCH 515 516
ATOM    516  SD  MET A  24      -8.289   2.879  -7.448  0.00  0.00    +0.000 S 
ATOM    517  CE  MET A  24      -6.629   2.730  -8.105  0.00  0.00    +0.000 C 
ENDBRANCH 515 516
ENDBRANCH 514 515
ENDBRANCH 318 514
ENDBRANCH 314 318
ENDBRANCH 313 316
BRANCH 313 518
ATOM    518  CB  ASP A  25      -9.874  -4.862  -6.270  0.00  0.00    +0.000 C 
BRANCH 518 519
ATOM    519  CG  ASP A  25      -9.639  -4.890  -7.767  0.00  0.00    +0.000 C 
ATOM    520  OD1 ASP A  25     -10.627  -4.797  -8.524  0.00  0.00    +0.000 OA
ATOM    521  OD2 ASP A  25      -8.466  -5.005  -8.182  0.00  0.00    +0.000 OA
ENDBRANCH 518 519
ENDBRANCH 313 518
ENDBRANCH 309 313
ENDBRANCH 308 311
BRANCH 308 522
ATOM    522  CB  CYS A  26     -10.872  -5.241  -1.319  0.00  0.00    +0.000 C 
BRANCH 522 523
ATOM    523  SG  CYS A  26     -10.125  -6.717  -2.049  0.00  0.00    +0.000 S 
ATOM    524  HG  CYS A  26      -9.073  -7.048  -1.316  0.00  0.00    +0.000 HD
ENDBRANCH 522 523
ENDBRANCH 308 522
ENDBRANCH 304 308
ENDBRANCH 303 306
ENDBRANCH 299 303
ENDBRANCH 298 301
BRANCH 298 525
ATOM    525  CB  PHE A  28     -10.642   2.452   2.425  0.00  0.00    +0.000 C 
BRANCH 525 526
ATOM    526  CG  PHE A  28      -9.960   3.018   3.638  0.00  0.00    +0.000 A 
ATOM    527  CD1 PHE A  28     -10.578   2.980   4.877  0.00  0.00    +0.000 A 
ATOM    528  CD2 PHE A  28      -8.700   3.586   3.539  0.00  0.00    +0.000 A 
ATOM    529  CE1 PHE A  28      -9.953   3.500   5.995  0.00  0.00    +0.000 A 
ATOM    530  CE2 PHE A  28      -8.069   4.107   4.653  0.00  0.00    +0.000 A 
ATOM    531  CZ  PHE A  28      -8.696   4.063   5.883  0.00  0.00    +0.000 A 
ENDBRANCH 525 526
ENDBRANCH 298 525
ENDBRANCH 294 298
ENDBRANCH 293 296
ENDBRANCH 289 293
ENDBRANCH 288 291
BRANCH 288 532
ATOM    532  CB  ASN A  30     -11.027  -4.462   3.084  0.00  0.00    +0.000 C 
BRANCH 532 533
ATOM    533  CG  ASN A  30     -12.313  -3.677   2.910  0.00  0.00    +0.000 C 
ATOM    534  OD1 ASN A  30     -13.186  -3.695   3.777  0.00  0.00    +0.000 OA
ATOM    535  ND2 ASN A  30     -12.435  -2.983   1.784  0.00  0.00    +0.000 N 
ATOM    536 HD21 ASN A  30     -11.698  -3.016   1.138  0.00  0.00    +0.000 HD
ATOM    537 HD22 ASN A  30     -13.256  -2.466   1.646  0.00  0.00    +0.000 HD
ENDBRANCH 532 533
ENDBRANCH 288 532
ENDBRANCH 284 288
ENDBRANCH 283 286
BRANCH 283 538
ATOM    538  CB  TRP A  31      -5.906  -3.931   6.446  0.00  0.00    +0.000 C 
BRANCH 538 539
ATOM    539  CG  TRP A  31      -6.093  -2.478   6.764  0.00  0.00    +0.000 A 
ATOM    540  CD1 TRP A  31      -6.579  -1.949   7.925  0.00  0.00    +0.000 A 
ATOM    541  CD2 TRP A  31      -5.798  -1.369   5.908  0.00  0.00    +0.000 A 
ATOM    542  NE1 TRP A  31      -6.604  -0.578   7.843  0.00  0.00    +0.000 N 
ATOM    543  CE2 TRP A  31      -6.129  -0.197   6.616  0.00  0.00    +0.000 A 
ATOM    544  CE3 TRP A  31      -5.284  -1.251   4.614  0.00  0.00    +0.000 A 
ATOM    545  CZ2 TRP A  31      -5.964   1.073   6.071  0.00  0.00    +0.000 A 
ATOM    546  CZ3 TRP A  31      -5.122   0.010   4.074  0.00  0.00    +0.000 A 
ATOM    547  CH2 TRP A  31      -5.460   1.159   4.802  0.00  0.00    +0.000 A 
ATOM    548  HE1 TRP A  31      -6.911   0.029   8.549  0.00  0.00    +0.000 HD
ENDBRANCH 538 539
ENDBRANCH 283 538
ENDBRANCH 279 283
ENDBRANCH   1 281
BRANCH   1 549
ATOM    549  CB  GLN A  32      -8.423  -8.728   6.051  0.00  0.00    +0.000 C 
BRANCH 549 550
ATOM    550  CG  GLN A  32      -8.574 -10.217   5.784  0.00  0.00    +0.000 C 
BRANCH 550 551
ATOM    551  CD  GLN A  32      -7.762 -11.066   6.742  0.00  0.00    +0.000 C 
ATOM    552  OE1 GLN A  32      -8.211 -11.382   7.844  0.00  0.00    +0.000 OA
ATOM    553  NE2 GLN A  32      -6.558 -11.442   6.326  0.00  0.00    +0.000 N 
ATOM    554 HE21 GLN A  32      -6.265 -11.152   5.436  0.00  0.00    +0.000 HD
ATOM    555 HE22 GLN A  32      -6.011 -11.990   6.925  0.00  0.00    +0.000 HD
ENDBRANCH 550 551
ENDBRANCH 549 550
ENDBRANCH   1 549
TORSDOF 237
