REMARK  Name = /Users/acegid/Desktop/Smoking_Research/Docking/Docking_All_PDB/All_PDB/1X4S_H.pdb
REMARK  216 active torsions:
REMARK  status: ('A' for Active; 'I' for Inactive)
REMARK    1  A    between atoms: N_1  and  CA_4
REMARK    2  A    between atoms: CA_4  and  C_5
REMARK    3  A    between atoms: N_10  and  CA_11
REMARK    4  A    between atoms: CA_11  and  C_12
REMARK    5  A    between atoms: CA_11  and  CB_14
REMARK    6  A    between atoms: CB_14  and  OG_15
REMARK    7  A    between atoms: N_21  and  CA_22
REMARK    8  A    between atoms: CA_22  and  C_23
REMARK    9  A    between atoms: CA_22  and  CB_25
REMARK   10  A    between atoms: CB_25  and  OG_26
REMARK   11  A    between atoms: N_32  and  CA_33
REMARK   12  A    between atoms: CA_33  and  C_34
REMARK   13  A    between atoms: N_39  and  CA_40
REMARK   14  A    between atoms: CA_40  and  C_41
REMARK   15  A    between atoms: CA_40  and  CB_43
REMARK   16  A    between atoms: CB_43  and  OG_44
REMARK   17  A    between atoms: N_50  and  CA_51
REMARK   18  A    between atoms: CA_51  and  C_52
REMARK   19  A    between atoms: CA_51  and  CB_54
REMARK   20  A    between atoms: CB_54  and  OG_55
REMARK   21  A    between atoms: N_61  and  CA_62
REMARK   22  A    between atoms: CA_62  and  C_63
REMARK   23  A    between atoms: N_68  and  CA_69
REMARK   24  A    between atoms: CA_69  and  C_70
REMARK   25  A    between atoms: CA_69  and  CB_72
REMARK   26  A    between atoms: CB_72  and  CG_73
REMARK   27  A    between atoms: CG_73  and  SD_74
REMARK   28  A    between atoms: SD_74  and  CE_75
REMARK   29  A    between atoms: N_85  and  CA_86
REMARK   30  A    between atoms: CA_86  and  C_87
REMARK   31  A    between atoms: CA_86  and  CB_89
REMARK   32  A    between atoms: CB_89  and  CG_90
REMARK   33  A    between atoms: CG_90  and  CD_91
REMARK   34  A    between atoms: CA_101  and  C_102
REMARK   35  A    between atoms: N_114  and  CA_115
REMARK   36  A    between atoms: CA_115  and  C_116
REMARK   37  A    between atoms: CA_115  and  CB_118
REMARK   38  A    between atoms: N_124  and  CA_125
REMARK   39  A    between atoms: CA_125  and  C_126
REMARK   40  A    between atoms: CA_132  and  C_133
REMARK   41  A    between atoms: N_145  and  CA_146
REMARK   42  A    between atoms: CA_146  and  C_147
REMARK   43  A    between atoms: CA_146  and  CB_149
REMARK   44  A    between atoms: CB_149  and  SG_150
REMARK   45  A    between atoms: N_156  and  CA_157
REMARK   46  A    between atoms: CA_157  and  C_158
REMARK   47  A    between atoms: N_163  and  CA_164
REMARK   48  A    between atoms: CA_164  and  C_165
REMARK   49  A    between atoms: CA_164  and  CB_167
REMARK   50  A    between atoms: CB_167  and  CG_168
REMARK   51  A    between atoms: N_183  and  CA_184
REMARK   52  A    between atoms: CA_184  and  C_185
REMARK   53  A    between atoms: CA_184  and  CB_187
REMARK   54  A    between atoms: CB_187  and  SG_188
REMARK   55  A    between atoms: CA_195  and  C_196
REMARK   56  A    between atoms: N_208  and  CA_209
REMARK   57  A    between atoms: CA_209  and  C_210
REMARK   58  A    between atoms: CA_209  and  CB_212
REMARK   59  A    between atoms: N_218  and  CA_219
REMARK   60  A    between atoms: CA_219  and  C_220
REMARK   61  A    between atoms: N_225  and  CA_226
REMARK   62  A    between atoms: CA_226  and  C_227
REMARK   63  A    between atoms: CA_226  and  CB_229
REMARK   64  A    between atoms: CB_229  and  CG_230
REMARK   65  A    between atoms: CG_230  and  CD_231
REMARK   66  A    between atoms: N_240  and  CA_241
REMARK   67  A    between atoms: CA_241  and  C_242
REMARK   68  A    between atoms: CA_241  and  CB_244
REMARK   69  A    between atoms: CB_244  and  CG1_245
REMARK   70  A    between atoms: CB_244  and  CG2_246
REMARK   71  A    between atoms: N_256  and  CA_257
REMARK   72  A    between atoms: CA_257  and  C_258
REMARK   73  A    between atoms: CA_257  and  CB_260
REMARK   74  A    between atoms: CB_260  and  CG_261
REMARK   75  A    between atoms: CG_261  and  CD_262
REMARK   76  A    between atoms: CA_274  and  C_275
REMARK   77  A    between atoms: N_287  and  CA_288
REMARK   78  A    between atoms: CA_288  and  C_289
REMARK   79  A    between atoms: CA_288  and  CB_291
REMARK   80  A    between atoms: N_297  and  CA_298
REMARK   81  A    between atoms: CA_298  and  C_299
REMARK   82  A    between atoms: CA_298  and  CB_301
REMARK   83  A    between atoms: CB_301  and  CG_302
REMARK   84  A    between atoms: CG_302  and  CD_303
REMARK   85  A    between atoms: CD_303  and  NE_304
REMARK   86  A    between atoms: N_321  and  CA_322
REMARK   87  A    between atoms: CA_322  and  C_323
REMARK   88  A    between atoms: CA_322  and  CB_325
REMARK   89  A    between atoms: CB_325  and  CG_326
REMARK   90  A    between atoms: CZ_331  and  OH_332
REMARK   91  A    between atoms: N_342  and  CA_343
REMARK   92  A    between atoms: CA_343  and  C_344
REMARK   93  A    between atoms: CA_343  and  CB_346
REMARK   94  A    between atoms: CB_346  and  OG1_347
REMARK   95  A    between atoms: CB_346  and  CG2_348
REMARK   96  A    between atoms: N_356  and  CA_357
REMARK   97  A    between atoms: CA_357  and  C_358
REMARK   98  A    between atoms: CA_357  and  CB_360
REMARK   99  A    between atoms: CB_360  and  SG_361
REMARK  100  A    between atoms: CA_368  and  C_369
REMARK  101  A    between atoms: N_381  and  CA_382
REMARK  102  A    between atoms: CA_382  and  C_383
REMARK  103  A    between atoms: CA_382  and  CB_385
REMARK  104  A    between atoms: CB_385  and  CG_386
REMARK  105  A    between atoms: CG_386  and  CD_387
REMARK  106  A    between atoms: CD_387  and  NE_388
REMARK  107  A    between atoms: N_405  and  CA_406
REMARK  108  A    between atoms: CA_406  and  C_407
REMARK  109  A    between atoms: CA_406  and  CB_409
REMARK  110  A    between atoms: CB_409  and  SG_410
REMARK  111  A    between atoms: N_416  and  CA_417
REMARK  112  A    between atoms: CA_417  and  C_418
REMARK  113  A    between atoms: CA_417  and  CB_420
REMARK  114  A    between atoms: CB_420  and  CG_421
REMARK  115  A    between atoms: N_430  and  CA_431
REMARK  116  A    between atoms: CA_431  and  C_432
REMARK  117  A    between atoms: CA_431  and  CB_434
REMARK  118  A    between atoms: CA_441  and  C_442
REMARK  119  A    between atoms: N_454  and  CA_455
REMARK  120  A    between atoms: CA_455  and  C_456
REMARK  121  A    between atoms: CA_455  and  CB_458
REMARK  122  A    between atoms: CB_458  and  CG_459
REMARK  123  A    between atoms: CZ_464  and  OH_465
REMARK  124  A    between atoms: N_475  and  CA_476
REMARK  125  A    between atoms: CA_476  and  C_477
REMARK  126  A    between atoms: CA_476  and  CB_479
REMARK  127  A    between atoms: CB_479  and  SG_480
REMARK  128  A    between atoms: N_486  and  CA_487
REMARK  129  A    between atoms: CA_487  and  C_488
REMARK  130  A    between atoms: CA_487  and  CB_490
REMARK  131  A    between atoms: CB_490  and  OG_491
REMARK  132  A    between atoms: N_497  and  CA_498
REMARK  133  A    between atoms: CA_498  and  C_499
REMARK  134  A    between atoms: CA_498  and  CB_501
REMARK  135  A    between atoms: CB_501  and  CG_502
REMARK  136  A    between atoms: CG_502  and  CD1_503
REMARK  137  A    between atoms: CG_502  and  CD2_504
REMARK  138  A    between atoms: N_516  and  CA_517
REMARK  139  A    between atoms: CA_517  and  C_518
REMARK  140  A    between atoms: CA_517  and  CB_520
REMARK  141  A    between atoms: CB_520  and  CG_521
REMARK  142  A    between atoms: CG_521  and  CD_522
REMARK  143  A    between atoms: CD_522  and  NE_523
REMARK  144  A    between atoms: N_540  and  CA_541
REMARK  145  A    between atoms: CA_541  and  C_542
REMARK  146  A    between atoms: CA_541  and  CB_544
REMARK  147  A    between atoms: CB_544  and  SG_545
REMARK  148  A    between atoms: N_551  and  CA_552
REMARK  149  A    between atoms: CA_552  and  C_553
REMARK  150  A    between atoms: CA_552  and  CB_555
REMARK  151  A    between atoms: CB_555  and  CG_556
REMARK  152  A    between atoms: CZ_561  and  OH_562
REMARK  153  A    between atoms: N_572  and  CA_573
REMARK  154  A    between atoms: CA_573  and  C_574
REMARK  155  A    between atoms: CA_573  and  CB_576
REMARK  156  A    between atoms: CB_576  and  CG_577
REMARK  157  A    between atoms: CG_577  and  CD_578
REMARK  158  A    between atoms: CD_578  and  NE_579
REMARK  159  A    between atoms: N_596  and  CA_597
REMARK  160  A    between atoms: CA_597  and  C_598
REMARK  161  A    between atoms: CA_597  and  CB_600
REMARK  162  A    between atoms: CB_600  and  OG1_601
REMARK  163  A    between atoms: CB_600  and  CG2_602
REMARK  164  A    between atoms: N_610  and  CA_611
REMARK  165  A    between atoms: CA_611  and  C_612
REMARK  166  A    between atoms: CA_611  and  CB_614
REMARK  167  A    between atoms: CB_614  and  CG_615
REMARK  168  A    between atoms: N_627  and  CA_628
REMARK  169  A    between atoms: CA_628  and  C_629
REMARK  170  A    between atoms: N_634  and  CA_635
REMARK  171  A    between atoms: CA_635  and  C_636
REMARK  172  A    between atoms: CA_635  and  CB_638
REMARK  173  A    between atoms: CB_638  and  OG1_639
REMARK  174  A    between atoms: CB_638  and  CG2_640
REMARK  175  A    between atoms: N_648  and  CA_649
REMARK  176  A    between atoms: CA_649  and  C_650
REMARK  177  A    between atoms: CA_649  and  CB_652
REMARK  178  A    between atoms: CB_652  and  SG_653
REMARK  179  A    between atoms: N_659  and  CA_660
REMARK  180  A    between atoms: CA_660  and  C_661
REMARK  181  A    between atoms: CA_660  and  CB_663
REMARK  182  A    between atoms: N_669  and  CA_670
REMARK  183  A    between atoms: CA_670  and  C_671
REMARK  184  A    between atoms: CA_670  and  CB_673
REMARK  185  A    between atoms: CB_673  and  CG_674
REMARK  186  A    between atoms: CG_674  and  CD_675
REMARK  187  A    between atoms: N_684  and  CA_685
REMARK  188  A    between atoms: CA_685  and  C_686
REMARK  189  A    between atoms: CA_685  and  CB_688
REMARK  190  A    between atoms: CB_688  and  CG_689
REMARK  191  A    between atoms: N_698  and  CA_699
REMARK  192  A    between atoms: CA_699  and  C_700
REMARK  193  A    between atoms: CA_699  and  CB_702
REMARK  194  A    between atoms: CB_702  and  CG_703
REMARK  195  A    between atoms: N_718  and  CA_719
REMARK  196  A    between atoms: CA_719  and  C_720
REMARK  197  A    between atoms: CA_719  and  CB_722
REMARK  198  A    between atoms: CB_722  and  CG_723
REMARK  199  A    between atoms: CZ_728  and  OH_729
REMARK  200  A    between atoms: N_739  and  CA_740
REMARK  201  A    between atoms: CA_740  and  C_741
REMARK  202  A    between atoms: CA_740  and  CB_743
REMARK  203  A    between atoms: CB_743  and  OG_744
REMARK  204  A    between atoms: N_750  and  CA_751
REMARK  205  A    between atoms: CA_751  and  C_752
REMARK  206  A    between atoms: CA_758  and  C_759
REMARK  207  A    between atoms: N_771  and  CA_772
REMARK  208  A    between atoms: CA_772  and  C_773
REMARK  209  A    between atoms: CA_772  and  CB_775
REMARK  210  A    between atoms: CB_775  and  OG_776
REMARK  211  A    between atoms: N_782  and  CA_783
REMARK  212  A    between atoms: CA_783  and  C_784
REMARK  213  A    between atoms: CA_783  and  CB_786
REMARK  214  A    between atoms: CB_786  and  OG_787
REMARK  215  A    between atoms: N_793  and  CA_794
REMARK  216  A    between atoms: CA_794  and  C_795
REMARK                            x       y       z     vdW  Elec       q    Type
REMARK                         _______ _______ _______ _____ _____    ______ ____
ROOT
ATOM      1  CA  CYS A  32      -4.120  -0.546   3.076  0.00  0.00    +0.000 C 
ENDROOT
BRANCH   1   2
ATOM      2  C   CYS A  32      -3.063  -1.626   3.282  0.00  0.00    +0.000 C 
ATOM      3  O   CYS A  32      -3.306  -2.804   3.022  0.00  0.00    +0.000 OA
ATOM      4  N   ASN A  33      -1.889  -1.216   3.750  0.00  0.00    +0.000 N 
ATOM      5  H   ASN A  33      -1.755  -0.264   3.939  0.00  0.00    +0.000 HD
BRANCH   4   6
ATOM      6  CA  ASN A  33      -0.793  -2.149   3.991  0.00  0.00    +0.000 C 
BRANCH   6   7
ATOM      7  C   ASN A  33      -0.781  -3.255   2.940  0.00  0.00    +0.000 C 
ATOM      8  O   ASN A  33      -0.808  -4.440   3.272  0.00  0.00    +0.000 OA
ATOM      9  N   ALA A  34      -0.739  -2.860   1.672  0.00  0.00    +0.000 N 
ATOM     10  H   ALA A  34      -0.718  -1.901   1.472  0.00  0.00    +0.000 HD
BRANCH   9  11
ATOM     11  CA  ALA A  34      -0.720  -3.817   0.574  0.00  0.00    +0.000 C 
ATOM     12  CB  ALA A  34      -1.776  -3.455  -0.460  0.00  0.00    +0.000 C 
BRANCH  11  13
ATOM     13  C   ALA A  34       0.659  -3.881  -0.075  0.00  0.00    +0.000 C 
ATOM     14  O   ALA A  34       1.140  -2.912  -0.664  0.00  0.00    +0.000 OA
ATOM     15  N   PRO A  35       1.312  -5.047   0.034  0.00  0.00    +0.000 N 
ATOM     16  CA  PRO A  35       2.645  -5.265  -0.536  0.00  0.00    +0.000 C 
ATOM     17  CB  PRO A  35       3.056  -6.626   0.032  0.00  0.00    +0.000 C 
ATOM     18  CG  PRO A  35       1.769  -7.320   0.320  0.00  0.00    +0.000 C 
ATOM     19  CD  PRO A  35       0.799  -6.244   0.723  0.00  0.00    +0.000 C 
BRANCH  16  20
ATOM     20  C   PRO A  35       2.624  -5.307  -2.060  0.00  0.00    +0.000 C 
ATOM     21  O   PRO A  35       2.009  -6.191  -2.657  0.00  0.00    +0.000 OA
ATOM     22  N   TYR A  36       3.298  -4.348  -2.683  0.00  0.00    +0.000 N 
ATOM     23  H   TYR A  36       3.768  -3.671  -2.152  0.00  0.00    +0.000 HD
BRANCH  22  24
ATOM     24  CA  TYR A  36       3.355  -4.275  -4.138  0.00  0.00    +0.000 C 
BRANCH  24  25
ATOM     25  C   TYR A  36       4.800  -4.276  -4.628  0.00  0.00    +0.000 C 
ATOM     26  O   TYR A  36       5.653  -3.575  -4.082  0.00  0.00    +0.000 OA
ATOM     27  N   CYS A  37       5.068  -5.067  -5.661  0.00  0.00    +0.000 N 
ATOM     28  H   CYS A  37       4.345  -5.602  -6.054  0.00  0.00    +0.000 HD
BRANCH  27  29
ATOM     29  CA  CYS A  37       6.408  -5.161  -6.227  0.00  0.00    +0.000 C 
BRANCH  29  30
ATOM     30  C   CYS A  37       6.880  -3.801  -6.734  0.00  0.00    +0.000 C 
ATOM     31  O   CYS A  37       7.992  -3.366  -6.432  0.00  0.00    +0.000 OA
ATOM     32  N   SER A  38       6.028  -3.135  -7.506  0.00  0.00    +0.000 N 
ATOM     33  H   SER A  38       5.157  -3.535  -7.711  0.00  0.00    +0.000 HD
BRANCH  32  34
ATOM     34  CA  SER A  38       6.359  -1.827  -8.059  0.00  0.00    +0.000 C 
BRANCH  34  35
ATOM     35  C   SER A  38       5.114  -0.951  -8.163  0.00  0.00    +0.000 C 
ATOM     36  O   SER A  38       4.012  -1.373  -7.812  0.00  0.00    +0.000 OA
ATOM     37  N   LEU A  39       5.299   0.272  -8.648  0.00  0.00    +0.000 N 
ATOM     38  H   LEU A  39       6.200   0.552  -8.911  0.00  0.00    +0.000 HD
BRANCH  37  39
ATOM     39  CA  LEU A  39       4.192   1.210  -8.799  0.00  0.00    +0.000 C 
BRANCH  39  40
ATOM     40  C   LEU A  39       3.060   0.591  -9.613  0.00  0.00    +0.000 C 
ATOM     41  O   LEU A  39       1.884   0.790  -9.310  0.00  0.00    +0.000 OA
ATOM     42  N   ARG A  40       3.425  -0.162 -10.646  0.00  0.00    +0.000 N 
ATOM     43  H   ARG A  40       4.379  -0.283 -10.836  0.00  0.00    +0.000 HD
BRANCH  42  44
ATOM     44  CA  ARG A  40       2.441  -0.812 -11.503  0.00  0.00    +0.000 C 
BRANCH  44  45
ATOM     45  C   ARG A  40       1.337  -1.459 -10.670  0.00  0.00    +0.000 C 
ATOM     46  O   ARG A  40       0.171  -1.073 -10.758  0.00  0.00    +0.000 OA
ATOM     47  N   CYS A  41       1.714  -2.445  -9.863  0.00  0.00    +0.000 N 
ATOM     48  H   CYS A  41       2.658  -2.708  -9.837  0.00  0.00    +0.000 HD
BRANCH  47  49
ATOM     49  CA  CYS A  41       0.757  -3.146  -9.015  0.00  0.00    +0.000 C 
BRANCH  49  50
ATOM     50  C   CYS A  41       0.111  -2.190  -8.017  0.00  0.00    +0.000 C 
ATOM     51  O   CYS A  41      -1.103  -2.214  -7.814  0.00  0.00    +0.000 OA
ATOM     52  N   TYR A  42       0.931  -1.349  -7.396  0.00  0.00    +0.000 N 
ATOM     53  H   TYR A  42       1.889  -1.377  -7.600  0.00  0.00    +0.000 HD
BRANCH  52  54
ATOM     54  CA  TYR A  42       0.441  -0.386  -6.418  0.00  0.00    +0.000 C 
BRANCH  54  55
ATOM     55  C   TYR A  42      -0.833   0.293  -6.913  0.00  0.00    +0.000 C 
ATOM     56  O   TYR A  42      -1.667   0.728  -6.118  0.00  0.00    +0.000 OA
ATOM     57  N   ARG A  43      -0.975   0.381  -8.231  0.00  0.00    +0.000 N 
ATOM     58  H   ARG A  43      -0.275   0.016  -8.813  0.00  0.00    +0.000 HD
BRANCH  57  59
ATOM     59  CA  ARG A  43      -2.145   1.007  -8.833  0.00  0.00    +0.000 C 
BRANCH  59  60
ATOM     60  C   ARG A  43      -3.227  -0.029  -9.123  0.00  0.00    +0.000 C 
ATOM     61  O   ARG A  43      -4.421   0.261  -9.034  0.00  0.00    +0.000 OA
ATOM     62  N   THR A  44      -2.803  -1.240  -9.472  0.00  0.00    +0.000 N 
ATOM     63  H   THR A  44      -1.839  -1.410  -9.525  0.00  0.00    +0.000 HD
BRANCH  62  64
ATOM     64  CA  THR A  44      -3.734  -2.318  -9.777  0.00  0.00    +0.000 C 
BRANCH  64  65
ATOM     65  C   THR A  44      -4.426  -2.820  -8.514  0.00  0.00    +0.000 C 
ATOM     66  O   THR A  44      -5.655  -2.883  -8.451  0.00  0.00    +0.000 OA
ATOM     67  N   HIS A  45      -3.631  -3.176  -7.511  0.00  0.00    +0.000 N 
ATOM     68  H   HIS A  45      -2.660  -3.104  -7.621  0.00  0.00    +0.000 HD
BRANCH  67  69
ATOM     69  CA  HIS A  45      -4.168  -3.672  -6.248  0.00  0.00    +0.000 C 
BRANCH  69  70
ATOM     70  C   HIS A  45      -5.369  -2.841  -5.805  0.00  0.00    +0.000 C 
ATOM     71  O   HIS A  45      -6.444  -3.377  -5.540  0.00  0.00    +0.000 OA
ATOM     72  N   GLY A  46      -5.177  -1.527  -5.727  0.00  0.00    +0.000 N 
ATOM     73  H   GLY A  46      -4.298  -1.155  -5.951  0.00  0.00    +0.000 HD
BRANCH  72  74
ATOM     74  CA  GLY A  46      -6.252  -0.644  -5.315  0.00  0.00    +0.000 C 
BRANCH  74  75
ATOM     75  C   GLY A  46      -5.997   0.799  -5.701  0.00  0.00    +0.000 C 
ATOM     76  O   GLY A  46      -4.872   1.170  -6.040  0.00  0.00    +0.000 OA
ATOM     77  N   THR A  47      -7.043   1.618  -5.652  0.00  0.00    +0.000 N 
ATOM     78  H   THR A  47      -7.913   1.263  -5.375  0.00  0.00    +0.000 HD
BRANCH  77  79
ATOM     79  CA  THR A  47      -6.928   3.028  -6.002  0.00  0.00    +0.000 C 
BRANCH  79  80
ATOM     80  C   THR A  47      -6.781   3.893  -4.756  0.00  0.00    +0.000 C 
ATOM     81  O   THR A  47      -7.344   4.986  -4.677  0.00  0.00    +0.000 OA
ATOM     82  N   CYS A  48      -6.021   3.399  -3.785  0.00  0.00    +0.000 N 
ATOM     83  H   CYS A  48      -5.599   2.523  -3.906  0.00  0.00    +0.000 HD
BRANCH  82  84
ATOM     84  CA  CYS A  48      -5.799   4.128  -2.541  0.00  0.00    +0.000 C 
BRANCH  84  85
ATOM     85  C   CYS A  48      -5.017   5.413  -2.796  0.00  0.00    +0.000 C 
ATOM     86  O   CYS A  48      -5.261   6.437  -2.158  0.00  0.00    +0.000 OA
ATOM     87  N   ALA A  49      -4.077   5.351  -3.733  0.00  0.00    +0.000 N 
ATOM     88  H   ALA A  49      -3.930   4.506  -4.207  0.00  0.00    +0.000 HD
BRANCH  87  89
ATOM     89  CA  ALA A  49      -3.260   6.509  -4.074  0.00  0.00    +0.000 C 
ATOM     90  CB  ALA A  49      -2.437   6.226  -5.322  0.00  0.00    +0.000 C 
BRANCH  89  91
ATOM     91  C   ALA A  49      -4.125   7.749  -4.278  0.00  0.00    +0.000 C 
ATOM     92  O   ALA A  49      -3.732   8.857  -3.913  0.00  0.00    +0.000 OA
ATOM     93  N   GLU A  50      -5.302   7.554  -4.863  0.00  0.00    +0.000 N 
ATOM     94  H   GLU A  50      -5.559   6.647  -5.131  0.00  0.00    +0.000 HD
BRANCH  93  95
ATOM     95  CA  GLU A  50      -6.221   8.658  -5.116  0.00  0.00    +0.000 C 
BRANCH  95  96
ATOM     96  C   GLU A  50      -6.354   9.549  -3.884  0.00  0.00    +0.000 C 
ATOM     97  O   GLU A  50      -6.098  10.750  -3.943  0.00  0.00    +0.000 OA
ATOM     98  N   ASN A  51      -6.757   8.949  -2.769  0.00  0.00    +0.000 N 
ATOM     99  H   ASN A  51      -6.945   7.987  -2.784  0.00  0.00    +0.000 HD
BRANCH  98 100
ATOM    100  CA  ASN A  51      -6.926   9.687  -1.522  0.00  0.00    +0.000 C 
BRANCH 100 101
ATOM    101  C   ASN A  51      -5.693   9.543  -0.634  0.00  0.00    +0.000 C 
ATOM    102  O   ASN A  51      -5.796   9.157   0.531  0.00  0.00    +0.000 OA
ATOM    103  N   PHE A  52      -4.529   9.858  -1.192  0.00  0.00    +0.000 N 
ATOM    104  H   PHE A  52      -4.512  10.160  -2.124  0.00  0.00    +0.000 HD
BRANCH 103 105
ATOM    105  CA  PHE A  52      -3.276   9.764  -0.451  0.00  0.00    +0.000 C 
BRANCH 105 106
ATOM    106  C   PHE A  52      -2.424  11.011  -0.665  0.00  0.00    +0.000 C 
ATOM    107  O   PHE A  52      -2.008  11.664   0.293  0.00  0.00    +0.000 OA
ATOM    108  N   TYR A  53      -2.167  11.335  -1.927  0.00  0.00    +0.000 N 
ATOM    109  H   TYR A  53      -2.526  10.776  -2.647  0.00  0.00    +0.000 HD
BRANCH 108 110
ATOM    110  CA  TYR A  53      -1.361  12.502  -2.268  0.00  0.00    +0.000 C 
BRANCH 110 111
ATOM    111  C   TYR A  53      -1.665  13.666  -1.331  0.00  0.00    +0.000 C 
ATOM    112  O   TYR A  53      -0.755  14.316  -0.815  0.00  0.00    +0.000 OA
ATOM    113  N   SER A  54      -2.951  13.924  -1.115  0.00  0.00    +0.000 N 
ATOM    114  H   SER A  54      -3.629  13.370  -1.555  0.00  0.00    +0.000 HD
BRANCH 113 115
ATOM    115  CA  SER A  54      -3.376  15.012  -0.242  0.00  0.00    +0.000 C 
BRANCH 115 116
ATOM    116  C   SER A  54      -2.846  16.351  -0.745  0.00  0.00    +0.000 C 
ATOM    117  O   SER A  54      -2.395  17.187   0.038  0.00  0.00    +0.000 OA
ATOM    118  N   GLY A  55      -2.903  16.548  -2.059  0.00  0.00    +0.000 N 
ATOM    119  H   GLY A  55      -3.273  15.846  -2.635  0.00  0.00    +0.000 HD
BRANCH 118 120
ATOM    120  CA  GLY A  55      -2.426  17.786  -2.645  0.00  0.00    +0.000 C 
BRANCH 120 121
ATOM    121  C   GLY A  55      -3.517  18.538  -3.381  0.00  0.00    +0.000 C 
ATOM    122  O   GLY A  55      -4.516  17.962  -3.812  0.00  0.00    +0.000 OA
ATOM    123  N   PRO A  56      -3.333  19.858  -3.532  0.00  0.00    +0.000 N 
ATOM    124  CA  PRO A  56      -4.301  20.719  -4.219  0.00  0.00    +0.000 C 
ATOM    125  CB  PRO A  56      -3.779  22.131  -3.941  0.00  0.00    +0.000 C 
ATOM    126  CG  PRO A  56      -2.320  21.956  -3.702  0.00  0.00    +0.000 C 
ATOM    127  CD  PRO A  56      -2.166  20.612  -3.044  0.00  0.00    +0.000 C 
BRANCH 124 128
ATOM    128  C   PRO A  56      -4.348  20.454  -5.720  0.00  0.00    +0.000 C 
ATOM    129  O   PRO A  56      -5.097  21.102  -6.451  0.00  0.00    +0.000 OA
ATOM    130  N   SER A  57      -3.543  19.498  -6.174  0.00  0.00    +0.000 N 
ATOM    131  H   SER A  57      -2.970  19.017  -5.541  0.00  0.00    +0.000 HD
BRANCH 130 132
ATOM    132  CA  SER A  57      -3.491  19.150  -7.589  0.00  0.00    +0.000 C 
BRANCH 132 133
ATOM    133  C   SER A  57      -4.733  18.366  -8.002  0.00  0.00    +0.000 C 
ATOM    134  O   SER A  57      -5.441  18.749  -8.933  0.00  0.00    +0.000 OA
ATOM    135  N   SER A  58      -4.991  17.266  -7.301  0.00  0.00    +0.000 N 
ATOM    136  H   SER A  58      -4.389  17.014  -6.570  0.00  0.00    +0.000 HD
BRANCH 135 137
ATOM    137  CA  SER A  58      -6.145  16.425  -7.596  0.00  0.00    +0.000 C 
BRANCH 137 138
ATOM    138  C   SER A  58      -7.351  17.275  -7.984  0.00  0.00    +0.000 C 
ATOM    139  O   SER A  58      -7.529  18.385  -7.485  0.00  0.00    +0.000 OA
ATOM    140  N   GLY A  59      -8.179  16.743  -8.879  0.00  0.00    +0.000 N 
ATOM    141  H   GLY A  59      -7.986  15.853  -9.243  0.00  0.00    +0.000 HD
BRANCH 140 142
ATOM    142  CA  GLY A  59      -9.358  17.464  -9.320  0.00  0.00    +0.000 C 
BRANCH 142 143
ATOM    143  C   GLY A  59     -10.640  16.704  -9.042  0.00  0.00    +0.000 C 
ATOM    144  O   GLY A  59     -11.658  16.998  -9.668  0.00  0.00    +0.000 OA
ATOM    145  OXT GLY A  59     -10.039  16.063  -8.229  0.00  0.00    +0.000 OA
ENDBRANCH 142 143
ENDBRANCH 140 142
ENDBRANCH 137 138
BRANCH 137 146
ATOM    146  CB  SER A  58      -6.489  15.552  -6.388  0.00  0.00    +0.000 C 
BRANCH 146 147
ATOM    147  OG  SER A  58      -7.580  14.695  -6.672  0.00  0.00    +0.000 OA
ATOM    148  HG  SER A  58      -7.291  13.990  -7.256  0.00  0.00    +0.000 HD
ENDBRANCH 146 147
ENDBRANCH 137 146
ENDBRANCH 135 137
ENDBRANCH 132 133
BRANCH 132 149
ATOM    149  CB  SER A  57      -2.234  18.331  -7.888  0.00  0.00    +0.000 C 
BRANCH 149 150
ATOM    150  OG  SER A  57      -1.063  19.101  -7.682  0.00  0.00    +0.000 OA
ATOM    151  HG  SER A  57      -0.928  19.687  -8.430  0.00  0.00    +0.000 HD
ENDBRANCH 149 150
ENDBRANCH 132 149
ENDBRANCH 130 132
ENDBRANCH 124 128
ENDBRANCH 120 121
ENDBRANCH 118 120
ENDBRANCH 115 116
BRANCH 115 152
ATOM    152  CB  SER A  54      -2.895  14.765   1.189  0.00  0.00    +0.000 C 
BRANCH 152 153
ATOM    153  OG  SER A  54      -3.649  15.522   2.119  0.00  0.00    +0.000 OA
ATOM    154  HG  SER A  54      -3.415  16.450   2.040  0.00  0.00    +0.000 HD
ENDBRANCH 152 153
ENDBRANCH 115 152
ENDBRANCH 113 115
ENDBRANCH 110 111
BRANCH 110 155
ATOM    155  CB  TYR A  53      -1.617  12.919  -3.717  0.00  0.00    +0.000 C 
BRANCH 155 156
ATOM    156  CG  TYR A  53      -1.352  11.819  -4.720  0.00  0.00    +0.000 A 
ATOM    157  CD1 TYR A  53      -0.077  11.288  -4.877  0.00  0.00    +0.000 A 
ATOM    158  CD2 TYR A  53      -2.374  11.311  -5.511  0.00  0.00    +0.000 A 
ATOM    159  CE1 TYR A  53       0.171  10.284  -5.792  0.00  0.00    +0.000 A 
ATOM    160  CE2 TYR A  53      -2.136  10.306  -6.428  0.00  0.00    +0.000 A 
ATOM    161  CZ  TYR A  53      -0.862   9.795  -6.565  0.00  0.00    +0.000 A 
BRANCH 161 162
ATOM    162  OH  TYR A  53      -0.620   8.795  -7.478  0.00  0.00    +0.000 OA
ATOM    163  HH  TYR A  53       0.110   8.252  -7.172  0.00  0.00    +0.000 HD
ENDBRANCH 161 162
ENDBRANCH 155 156
ENDBRANCH 110 155
ENDBRANCH 108 110
ENDBRANCH 105 106
BRANCH 105 164
ATOM    164  CB  PHE A  52      -2.497   8.520  -0.881  0.00  0.00    +0.000 C 
BRANCH 164 165
ATOM    165  CG  PHE A  52      -1.026   8.603  -0.588  0.00  0.00    +0.000 A 
ATOM    166  CD1 PHE A  52      -0.574   8.794   0.707  0.00  0.00    +0.000 A 
ATOM    167  CD2 PHE A  52      -0.096   8.489  -1.609  0.00  0.00    +0.000 A 
ATOM    168  CE1 PHE A  52       0.779   8.872   0.979  0.00  0.00    +0.000 A 
ATOM    169  CE2 PHE A  52       1.258   8.566  -1.343  0.00  0.00    +0.000 A 
ATOM    170  CZ  PHE A  52       1.696   8.756  -0.047  0.00  0.00    +0.000 A 
ENDBRANCH 164 165
ENDBRANCH 105 164
ENDBRANCH 103 105
ENDBRANCH 100 101
BRANCH 100 171
ATOM    171  CB  ASN A  51      -8.166   9.191  -0.776  0.00  0.00    +0.000 C 
BRANCH 171 172
ATOM    172  CG  ASN A  51      -9.450   9.498  -1.522  0.00  0.00    +0.000 C 
ATOM    173  OD1 ASN A  51     -10.268   8.610  -1.764  0.00  0.00    +0.000 OA
ATOM    174  ND2 ASN A  51      -9.633  10.760  -1.891  0.00  0.00    +0.000 N 
ATOM    175 HD21 ASN A  51      -8.939  11.414  -1.664  0.00  0.00    +0.000 HD
ATOM    176 HD22 ASN A  51     -10.455  10.986  -2.374  0.00  0.00    +0.000 HD
ENDBRANCH 171 172
ENDBRANCH 100 171
ENDBRANCH  98 100
ENDBRANCH  95  96
BRANCH  95 177
ATOM    177  CB  GLU A  50      -7.595   8.124  -5.524  0.00  0.00    +0.000 C 
BRANCH 177 178
ATOM    178  CG  GLU A  50      -7.632   7.550  -6.931  0.00  0.00    +0.000 C 
BRANCH 178 179
ATOM    179  CD  GLU A  50      -7.683   8.625  -7.998  0.00  0.00    +0.000 C 
ATOM    180  OE1 GLU A  50      -6.689   9.368  -8.141  0.00  0.00    +0.000 OA
ATOM    181  OE2 GLU A  50      -8.717   8.724  -8.692  0.00  0.00    +0.000 OA
ENDBRANCH 178 179
ENDBRANCH 177 178
ENDBRANCH  95 177
ENDBRANCH  93  95
ENDBRANCH  89  91
ENDBRANCH  87  89
ENDBRANCH  84  85
BRANCH  84 182
ATOM    182  CB  CYS A  48      -5.047   3.250  -1.539  0.00  0.00    +0.000 C 
BRANCH 182 183
ATOM    183  SG  CYS A  48      -5.696   1.553  -1.403  0.00  0.00    +0.000 S 
ATOM    184  HG  CYS A  48      -6.717   1.032  -1.113  0.00  0.00    +0.000 HD
ENDBRANCH 182 183
ENDBRANCH  84 182
ENDBRANCH  82  84
ENDBRANCH  79  80
BRANCH  79 185
ATOM    185  CB  THR A  47      -8.151   3.509  -6.806  0.00  0.00    +0.000 C 
ATOM    186  CG2 THR A  47      -8.170   2.879  -8.191  0.00  0.00    +0.000 C 
BRANCH 185 187
ATOM    187  OG1 THR A  47      -9.357   3.177  -6.109  0.00  0.00    +0.000 OA
ATOM    188  HG1 THR A  47     -10.053   2.993  -6.744  0.00  0.00    +0.000 HD
ENDBRANCH 185 187
ENDBRANCH  79 185
ENDBRANCH  77  79
ENDBRANCH  74  75
ENDBRANCH  72  74
ENDBRANCH  69  70
BRANCH  69 189
ATOM    189  CB  HIS A  45      -3.089  -3.647  -5.166  0.00  0.00    +0.000 C 
BRANCH 189 190
ATOM    190  CG  HIS A  45      -3.040  -2.362  -4.398  0.00  0.00    +0.000 A 
ATOM    191  ND1 HIS A  45      -2.242  -1.299  -4.761  0.00  0.00    +0.000 N 
ATOM    192  CD2 HIS A  45      -3.698  -1.973  -3.281  0.00  0.00    +0.000 A 
ATOM    193  CE1 HIS A  45      -2.409  -0.311  -3.900  0.00  0.00    +0.000 A 
ATOM    194  NE2 HIS A  45      -3.288  -0.694  -2.992  0.00  0.00    +0.000 NA
ATOM    195  HD1 HIS A  45      -1.640  -1.272  -5.534  0.00  0.00    +0.000 HD
ENDBRANCH 189 190
ENDBRANCH  69 189
ENDBRANCH  67  69
ENDBRANCH  64  65
BRANCH  64 196
ATOM    196  CB  THR A  44      -3.021  -3.500 -10.462  0.00  0.00    +0.000 C 
ATOM    197  CG2 THR A  44      -3.996  -4.635 -10.735  0.00  0.00    +0.000 C 
BRANCH 196 198
ATOM    198  OG1 THR A  44      -2.427  -3.067 -11.691  0.00  0.00    +0.000 OA
ATOM    199  HG1 THR A  44      -2.648  -3.688 -12.389  0.00  0.00    +0.000 HD
ENDBRANCH 196 198
ENDBRANCH  64 196
ENDBRANCH  62  64
ENDBRANCH  59  60
BRANCH  59 200
ATOM    200  CB  ARG A  43      -1.756   1.729 -10.125  0.00  0.00    +0.000 C 
BRANCH 200 201
ATOM    201  CG  ARG A  43      -0.961   3.003  -9.894  0.00  0.00    +0.000 C 
BRANCH 201 202
ATOM    202  CD  ARG A  43      -0.745   3.767 -11.191  0.00  0.00    +0.000 C 
BRANCH 202 203
ATOM    203  NE  ARG A  43      -1.913   4.563 -11.558  0.00  0.00    +0.000 N 
ATOM    204  CZ  ARG A  43      -1.925   5.431 -12.564  0.00  0.00    +0.000 C 
ATOM    205  NH1 ARG A  43      -0.837   5.613 -13.300  0.00  0.00    +0.000 N 
ATOM    206  NH2 ARG A  43      -3.027   6.118 -12.836  0.00  0.00    +0.000 N 
ATOM    207  HE  ARG A  43      -2.728   4.444 -11.028  0.00  0.00    +0.000 HD
ATOM    208 HH11 ARG A  43      -0.006   5.096 -13.098  0.00  0.00    +0.000 HD
ATOM    209 HH12 ARG A  43      -0.849   6.266 -14.057  0.00  0.00    +0.000 HD
ATOM    210 HH21 ARG A  43      -3.849   5.983 -12.284  0.00  0.00    +0.000 HD
ATOM    211 HH22 ARG A  43      -3.035   6.770 -13.593  0.00  0.00    +0.000 HD
ENDBRANCH 202 203
ENDBRANCH 201 202
ENDBRANCH 200 201
ENDBRANCH  59 200
ENDBRANCH  57  59
ENDBRANCH  54  55
BRANCH  54 212
ATOM    212  CB  TYR A  42       1.512   0.666  -6.125  0.00  0.00    +0.000 C 
BRANCH 212 213
ATOM    213  CG  TYR A  42       0.986   1.878  -5.390  0.00  0.00    +0.000 A 
ATOM    214  CD1 TYR A  42       0.680   1.815  -4.036  0.00  0.00    +0.000 A 
ATOM    215  CD2 TYR A  42       0.795   3.086  -6.049  0.00  0.00    +0.000 A 
ATOM    216  CE1 TYR A  42       0.198   2.920  -3.361  0.00  0.00    +0.000 A 
ATOM    217  CE2 TYR A  42       0.315   4.196  -5.381  0.00  0.00    +0.000 A 
ATOM    218  CZ  TYR A  42       0.018   4.108  -4.037  0.00  0.00    +0.000 A 
BRANCH 218 219
ATOM    219  OH  TYR A  42      -0.462   5.211  -3.369  0.00  0.00    +0.000 OA
ATOM    220  HH  TYR A  42       0.263   5.653  -2.920  0.00  0.00    +0.000 HD
ENDBRANCH 218 219
ENDBRANCH 212 213
ENDBRANCH  54 212
ENDBRANCH  52  54
ENDBRANCH  49  50
BRANCH  49 221
ATOM    221  CB  CYS A  41       1.449  -4.289  -8.269  0.00  0.00    +0.000 C 
BRANCH 221 222
ATOM    222  SG  CYS A  41       1.435  -5.877  -9.163  0.00  0.00    +0.000 S 
ATOM    223  HG  CYS A  41       1.322  -6.271 -10.271  0.00  0.00    +0.000 HD
ENDBRANCH 221 222
ENDBRANCH  49 221
ENDBRANCH  47  49
ENDBRANCH  44  45
BRANCH  44 224
ATOM    224  CB  ARG A  40       3.115  -1.866 -12.382  0.00  0.00    +0.000 C 
BRANCH 224 225
ATOM    225  CG  ARG A  40       4.296  -1.332 -13.176  0.00  0.00    +0.000 C 
BRANCH 225 226
ATOM    226  CD  ARG A  40       3.880  -0.199 -14.101  0.00  0.00    +0.000 C 
BRANCH 226 227
ATOM    227  NE  ARG A  40       4.729  -0.120 -15.286  0.00  0.00    +0.000 N 
ATOM    228  CZ  ARG A  40       4.526  -0.836 -16.386  0.00  0.00    +0.000 C 
ATOM    229  NH1 ARG A  40       3.506  -1.681 -16.451  0.00  0.00    +0.000 N 
ATOM    230  NH2 ARG A  40       5.343  -0.708 -17.423  0.00  0.00    +0.000 N 
ATOM    231  HE  ARG A  40       5.489   0.499 -15.259  0.00  0.00    +0.000 HD
ATOM    232 HH11 ARG A  40       2.888  -1.779 -15.671  0.00  0.00    +0.000 HD
ATOM    233 HH12 ARG A  40       3.354  -2.219 -17.281  0.00  0.00    +0.000 HD
ATOM    234 HH21 ARG A  40       6.112  -0.072 -17.378  0.00  0.00    +0.000 HD
ATOM    235 HH22 ARG A  40       5.189  -1.248 -18.250  0.00  0.00    +0.000 HD
ENDBRANCH 226 227
ENDBRANCH 225 226
ENDBRANCH 224 225
ENDBRANCH  44 224
ENDBRANCH  42  44
ENDBRANCH  39  40
BRANCH  39 236
ATOM    236  CB  LEU A  39       4.675   2.496  -9.472  0.00  0.00    +0.000 C 
BRANCH 236 237
ATOM    237  CG  LEU A  39       3.944   3.778  -9.073  0.00  0.00    +0.000 C 
ATOM    238  CD1 LEU A  39       2.528   3.780  -9.627  0.00  0.00    +0.000 C 
ATOM    239  CD2 LEU A  39       3.927   3.934  -7.560  0.00  0.00    +0.000 C 
ENDBRANCH 236 237
ENDBRANCH  39 236
ENDBRANCH  37  39
ENDBRANCH  34  35
BRANCH  34 240
ATOM    240  CB  SER A  38       7.005  -1.980  -9.437  0.00  0.00    +0.000 C 
BRANCH 240 241
ATOM    241  OG  SER A  38       7.918  -0.927  -9.692  0.00  0.00    +0.000 OA
ATOM    242  HG  SER A  38       8.701  -1.279 -10.121  0.00  0.00    +0.000 HD
ENDBRANCH 240 241
ENDBRANCH  34 240
ENDBRANCH  32  34
ENDBRANCH  29  30
BRANCH  29 243
ATOM    243  CB  CYS A  37       6.433  -6.180  -7.367  0.00  0.00    +0.000 C 
BRANCH 243 244
ATOM    244  SG  CYS A  37       5.250  -5.826  -8.707  0.00  0.00    +0.000 S 
ATOM    245  HG  CYS A  37       5.242  -5.794  -9.889  0.00  0.00    +0.000 HD
ENDBRANCH 243 244
ENDBRANCH  29 243
ENDBRANCH  27  29
ENDBRANCH  24  25
BRANCH  24 246
ATOM    246  CB  TYR A  36       2.637  -3.020  -4.635  0.00  0.00    +0.000 C 
BRANCH 246 247
ATOM    247  CG  TYR A  36       3.190  -1.737  -4.057  0.00  0.00    +0.000 A 
ATOM    248  CD1 TYR A  36       4.275  -1.098  -4.644  0.00  0.00    +0.000 A 
ATOM    249  CD2 TYR A  36       2.626  -1.163  -2.924  0.00  0.00    +0.000 A 
ATOM    250  CE1 TYR A  36       4.784   0.074  -4.119  0.00  0.00    +0.000 A 
ATOM    251  CE2 TYR A  36       3.128   0.010  -2.393  0.00  0.00    +0.000 A 
ATOM    252  CZ  TYR A  36       4.207   0.624  -2.993  0.00  0.00    +0.000 A 
BRANCH 252 253
ATOM    253  OH  TYR A  36       4.710   1.792  -2.468  0.00  0.00    +0.000 OA
ATOM    254  HH  TYR A  36       4.048   2.201  -1.906  0.00  0.00    +0.000 HD
ENDBRANCH 252 253
ENDBRANCH 246 247
ENDBRANCH  24 246
ENDBRANCH  22  24
ENDBRANCH  16  20
ENDBRANCH  11  13
ENDBRANCH   9  11
ENDBRANCH   6   7
BRANCH   6 255
ATOM    255  CB  ASN A  33      -0.913  -2.759   5.389  0.00  0.00    +0.000 C 
BRANCH 255 256
ATOM    256  CG  ASN A  33       0.386  -3.385   5.859  0.00  0.00    +0.000 C 
ATOM    257  OD1 ASN A  33       0.578  -4.596   5.750  0.00  0.00    +0.000 OA
ATOM    258  ND2 ASN A  33       1.283  -2.561   6.386  0.00  0.00    +0.000 N 
ATOM    259 HD21 ASN A  33       1.061  -1.608   6.441  0.00  0.00    +0.000 HD
ATOM    260 HD22 ASN A  33       2.132  -2.939   6.697  0.00  0.00    +0.000 HD
ENDBRANCH 255 256
ENDBRANCH   6 255
ENDBRANCH   4   6
ENDBRANCH   1   2
BRANCH   1 263
ATOM    261  C   ARG A  31      -3.938   1.812   3.653  0.00  0.00    +0.000 C 
ATOM    262  O   ARG A  31      -4.880   1.743   4.443  0.00  0.00    +0.000 OA
ATOM    263  N   CYS A  32      -3.503   0.769   2.954  0.00  0.00    +0.000 N 
ATOM    264  H   CYS A  32      -2.747   0.887   2.340  0.00  0.00    +0.000 HD
BRANCH 261 265
ATOM    265  CA  ARG A  31      -3.201   3.129   3.427  0.00  0.00    +0.000 C 
BRANCH 265 268
ATOM    266  C   PRO A  30      -0.842   3.316   3.996  0.00  0.00    +0.000 C 
ATOM    267  O   PRO A  30      -1.090   3.925   5.037  0.00  0.00    +0.000 OA
ATOM    268  N   ARG A  31      -1.787   2.894   3.162  0.00  0.00    +0.000 N 
ATOM    269  H   ARG A  31      -1.526   2.414   2.348  0.00  0.00    +0.000 HD
BRANCH 266 273
ATOM    270  C   CYS A  29       0.260   1.108   2.061  0.00  0.00    +0.000 C 
ATOM    271  O   CYS A  29      -0.232   0.414   2.951  0.00  0.00    +0.000 OA
ATOM    272  N   PRO A  30       0.684   2.361   2.284  0.00  0.00    +0.000 N 
ATOM    273  CA  PRO A  30       0.597   3.005   3.598  0.00  0.00    +0.000 C 
ATOM    274  CB  PRO A  30       1.392   4.299   3.413  0.00  0.00    +0.000 C 
ATOM    275  CG  PRO A  30       1.316   4.585   1.953  0.00  0.00    +0.000 C 
ATOM    276  CD  PRO A  30       1.281   3.246   1.270  0.00  0.00    +0.000 C 
BRANCH 270 277
ATOM    277  CA  CYS A  29       0.422   0.586   0.637  0.00  0.00    +0.000 C 
BRANCH 277 280
ATOM    278  C   THR A  28       2.645  -0.362   0.929  0.00  0.00    +0.000 C 
ATOM    279  O   THR A  28       3.111   0.718   1.295  0.00  0.00    +0.000 OA
ATOM    280  N   CYS A  29       1.369  -0.521   0.593  0.00  0.00    +0.000 N 
ATOM    281  H   CYS A  29       1.056  -1.406   0.309  0.00  0.00    +0.000 HD
BRANCH 278 282
ATOM    282  CA  THR A  28       3.525  -1.603   0.838  0.00  0.00    +0.000 C 
BRANCH 282 285
ATOM    283  C   TYR A  27       5.662  -2.164  -0.184  0.00  0.00    +0.000 C 
ATOM    284  O   TYR A  27       5.321  -3.332  -0.371  0.00  0.00    +0.000 OA
ATOM    285  N   THR A  28       4.869  -1.262   0.388  0.00  0.00    +0.000 N 
ATOM    286  H   THR A  28       5.197  -0.347   0.510  0.00  0.00    +0.000 HD
BRANCH 283 287
ATOM    287  CA  TYR A  27       7.043  -1.671  -0.606  0.00  0.00    +0.000 C 
BRANCH 287 290
ATOM    288  C   ARG A  26       8.905  -3.222  -0.387  0.00  0.00    +0.000 C 
ATOM    289  O   ARG A  26       9.241  -2.742   0.696  0.00  0.00    +0.000 OA
ATOM    290  N   TYR A  27       7.866  -2.776  -1.084  0.00  0.00    +0.000 N 
ATOM    291  H   TYR A  27       7.647  -3.199  -1.940  0.00  0.00    +0.000 HD
BRANCH 288 292
ATOM    292  CA  ARG A  26       9.682  -4.381  -1.004  0.00  0.00    +0.000 C 
BRANCH 292 295
ATOM    293  C   ALA A  25       7.828  -5.868  -1.527  0.00  0.00    +0.000 C 
ATOM    294  O   ALA A  25       7.517  -5.980  -0.340  0.00  0.00    +0.000 OA
ATOM    295  N   ARG A  26       8.849  -5.125  -1.941  0.00  0.00    +0.000 N 
ATOM    296  H   ARG A  26       9.047  -5.076  -2.899  0.00  0.00    +0.000 HD
BRANCH 293 297
ATOM    297  CA  ALA A  25       7.040  -6.595  -2.611  0.00  0.00    +0.000 C 
ATOM    298  CB  ALA A  25       5.578  -6.718  -2.211  0.00  0.00    +0.000 C 
BRANCH 297 301
ATOM    299  C   PRO A  24       8.837  -8.061  -3.350  0.00  0.00    +0.000 C 
ATOM    300  O   PRO A  24       9.578  -7.110  -3.598  0.00  0.00    +0.000 OA
ATOM    301  N   ALA A  25       7.605  -7.913  -2.875  0.00  0.00    +0.000 N 
ATOM    302  H   ALA A  25       7.063  -8.710  -2.698  0.00  0.00    +0.000 HD
BRANCH 299 306
ATOM    303  C   GLN A  23       7.990 -10.106  -5.571  0.00  0.00    +0.000 C 
ATOM    304  O   GLN A  23       6.925  -9.958  -4.971  0.00  0.00    +0.000 OA
ATOM    305  N   PRO A  24       9.177  -9.905  -4.980  0.00  0.00    +0.000 N 
ATOM    306  CA  PRO A  24       9.304  -9.494  -3.579  0.00  0.00    +0.000 C 
ATOM    307  CB  PRO A  24      10.806  -9.617  -3.308  0.00  0.00    +0.000 C 
ATOM    308  CG  PRO A  24      11.445  -9.462  -4.644  0.00  0.00    +0.000 C 
ATOM    309  CD  PRO A  24      10.486 -10.062  -5.635  0.00  0.00    +0.000 C 
BRANCH 303 310
ATOM    310  CA  GLN A  23       8.030 -10.531  -7.035  0.00  0.00    +0.000 C 
BRANCH 310 313
ATOM    311  C   VAL A  22       6.960 -12.593  -7.760  0.00  0.00    +0.000 C 
ATOM    312  O   VAL A  22       8.038 -13.181  -7.848  0.00  0.00    +0.000 OA
ATOM    313  N   GLN A  23       6.855 -11.324  -7.379  0.00  0.00    +0.000 N 
ATOM    314  H   GLN A  23       5.968 -10.911  -7.329  0.00  0.00    +0.000 HD
BRANCH 311 315
ATOM    315  CA  VAL A  22       5.654 -13.306  -8.091  0.00  0.00    +0.000 C 
BRANCH 315 318
ATOM    316  C   GLU A  21       5.366 -12.912 -10.476  0.00  0.00    +0.000 C 
ATOM    317  O   GLU A  21       5.118 -11.719 -10.299  0.00  0.00    +0.000 OA
ATOM    318  N   VAL A  22       5.634 -13.750  -9.479  0.00  0.00    +0.000 N 
ATOM    319  H   VAL A  22       5.825 -14.690  -9.683  0.00  0.00    +0.000 HD
BRANCH 316 320
ATOM    320  CA  GLU A  21       5.380 -13.510 -11.880  0.00  0.00    +0.000 C 
BRANCH 320 323
ATOM    321  C   GLY A  20       5.200 -15.915 -11.555  0.00  0.00    +0.000 C 
ATOM    322  O   GLY A  20       6.365 -16.001 -11.168  0.00  0.00    +0.000 OA
ATOM    323  N   GLU A  21       4.640 -14.766 -11.917  0.00  0.00    +0.000 N 
ATOM    324  H   GLU A  21       3.707 -14.762 -12.217  0.00  0.00    +0.000 HD
BRANCH 321 325
ATOM    325  CA  GLY A  20       4.324 -17.149 -11.643  0.00  0.00    +0.000 C 
BRANCH 325 328
ATOM    326  C   ALA A  19       1.954 -16.695 -11.803  0.00  0.00    +0.000 C 
ATOM    327  O   ALA A  19       2.009 -16.622 -13.030  0.00  0.00    +0.000 OA
ATOM    328  N   GLY A  20       3.018 -16.945 -11.045  0.00  0.00    +0.000 N 
ATOM    329  H   GLY A  20       2.914 -16.992 -10.071  0.00  0.00    +0.000 HD
BRANCH 326 330
ATOM    330  CA  ALA A  19       0.634 -16.497 -11.067  0.00  0.00    +0.000 C 
ATOM    331  CB  ALA A  19      -0.310 -17.656 -11.351  0.00  0.00    +0.000 C 
BRANCH 330 334
ATOM    332  C   PRO A  18       0.734 -14.159 -11.736  0.00  0.00    +0.000 C 
ATOM    333  O   PRO A  18       1.964 -14.155 -11.716  0.00  0.00    +0.000 OA
ATOM    334  N   ALA A  19       0.009 -15.233 -11.439  0.00  0.00    +0.000 N 
ATOM    335  H   ALA A  19      -0.968 -15.175 -11.473  0.00  0.00    +0.000 HD
BRANCH 332 339
ATOM    336  C   CYS A  17       0.413 -11.464 -10.166  0.00  0.00    +0.000 C 
ATOM    337  O   CYS A  17      -0.138 -12.250  -9.396  0.00  0.00    +0.000 OA
ATOM    338  N   PRO A  18       0.503 -11.699 -11.484  0.00  0.00    +0.000 N 
ATOM    339  CA  PRO A  18      -0.046 -12.904 -12.112  0.00  0.00    +0.000 C 
ATOM    340  CB  PRO A  18       0.092 -12.618 -13.610  0.00  0.00    +0.000 C 
ATOM    341  CG  PRO A  18       1.216 -11.645 -13.707  0.00  0.00    +0.000 C 
ATOM    342  CD  PRO A  18       1.147 -10.805 -12.462  0.00  0.00    +0.000 C 
BRANCH 336 343
ATOM    343  CA  CYS A  17       1.037 -10.162  -9.671  0.00  0.00    +0.000 C 
BRANCH 343 346
ATOM    344  C   PHE A  16      -0.856  -9.484  -8.300  0.00  0.00    +0.000 C 
ATOM    345  O   PHE A  16      -1.637  -9.567  -9.248  0.00  0.00    +0.000 OA
ATOM    346  N   CYS A  17       0.441  -9.749  -8.406  0.00  0.00    +0.000 N 
ATOM    347  H   CYS A  17       1.013  -9.665  -7.614  0.00  0.00    +0.000 HD
BRANCH 344 348
ATOM    348  CA  PHE A  16      -1.346  -9.061  -6.917  0.00  0.00    +0.000 C 
BRANCH 348 351
ATOM    349  C   GLY A  15      -0.263 -10.999  -5.918  0.00  0.00    +0.000 C 
ATOM    350  O   GLY A  15      -0.621 -11.735  -6.837  0.00  0.00    +0.000 OA
ATOM    351  N   PHE A  16      -0.561  -9.705  -5.869  0.00  0.00    +0.000 N 
ATOM    352  H   PHE A  16      -0.247  -9.170  -5.110  0.00  0.00    +0.000 HD
BRANCH 349 353
ATOM    353  CA  GLY A  15       0.555 -11.544  -4.764  0.00  0.00    +0.000 C 
BRANCH 353 356
ATOM    354  C   CYS A  14       2.711 -10.452  -4.847  0.00  0.00    +0.000 C 
ATOM    355  O   CYS A  14       3.058 -11.120  -5.820  0.00  0.00    +0.000 OA
ATOM    356  N   GLY A  15       1.522 -10.583  -4.266  0.00  0.00    +0.000 N 
ATOM    357  H   GLY A  15       1.300 -10.023  -3.493  0.00  0.00    +0.000 HD
BRANCH 354 358
ATOM    358  CA  CYS A  14       3.646  -9.411  -4.239  0.00  0.00    +0.000 C 
BRANCH 358 361
ATOM    359  C   PRO A  13       4.540 -11.033  -2.660  0.00  0.00    +0.000 C 
ATOM    360  O   PRO A  13       3.419 -11.465  -2.392  0.00  0.00    +0.000 OA
ATOM    361  N   CYS A  14       4.748 -10.052  -3.531  0.00  0.00    +0.000 N 
ATOM    362  H   CYS A  14       5.666  -9.750  -3.703  0.00  0.00    +0.000 HD
BRANCH 359 366
ATOM    363  C   GLY A  12       6.183  -9.954  -0.216  0.00  0.00    +0.000 C 
ATOM    364  O   GLY A  12       6.364  -9.053  -1.036  0.00  0.00    +0.000 OA
ATOM    365  N   PRO A  13       5.899 -11.211  -0.588  0.00  0.00    +0.000 N 
ATOM    366  CA  PRO A  13       5.782 -11.615  -1.992  0.00  0.00    +0.000 C 
ATOM    367  CB  PRO A  13       5.683 -13.140  -1.916  0.00  0.00    +0.000 C 
ATOM    368  CG  PRO A  13       5.132 -13.417  -0.560  0.00  0.00    +0.000 C 
ATOM    369  CD  PRO A  13       5.671 -12.336   0.335  0.00  0.00    +0.000 C 
BRANCH 363 370
ATOM    370  CA  GLY A  12       6.271  -9.696   1.275  0.00  0.00    +0.000 C 
BRANCH 370 373
ATOM    371  C   ALA A  11       7.925  -8.651   2.697  0.00  0.00    +0.000 C 
ATOM    372  O   ALA A  11       7.896  -9.591   3.490  0.00  0.00    +0.000 OA
ATOM    373  N   GLY A  12       7.178  -8.610   1.597  0.00  0.00    +0.000 N 
ATOM    374  H   GLY A  12       7.243  -7.835   1.001  0.00  0.00    +0.000 HD
BRANCH 371 375
ATOM    375  CA  ALA A  11       8.839  -7.455   2.935  0.00  0.00    +0.000 C 
ATOM    376  CB  ALA A  11       9.844  -7.321   1.800  0.00  0.00    +0.000 C 
BRANCH 375 379
ATOM    377  C   PRO A  10       8.917  -7.317   5.363  0.00  0.00    +0.000 C 
ATOM    378  O   PRO A  10       7.739  -6.971   5.431  0.00  0.00    +0.000 OA
ATOM    379  N   ALA A  11       9.532  -7.570   4.212  0.00  0.00    +0.000 N 
ATOM    380  H   ALA A  11      10.473  -7.842   4.223  0.00  0.00    +0.000 HD
BRANCH 377 384
ATOM    381  C   GLU A   9       8.700  -5.823   8.112  0.00  0.00    +0.000 C 
ATOM    382  O   GLU A   9       8.997  -4.892   7.363  0.00  0.00    +0.000 OA
ATOM    383  N   PRO A  10       9.025  -7.094   7.836  0.00  0.00    +0.000 N 
ATOM    384  CA  PRO A  10       9.758  -7.479   6.625  0.00  0.00    +0.000 C 
ATOM    385  CB  PRO A  10      10.086  -8.955   6.864  0.00  0.00    +0.000 C 
ATOM    386  CG  PRO A  10       9.034  -9.430   7.806  0.00  0.00    +0.000 C 
ATOM    387  CD  PRO A  10       8.703  -8.255   8.683  0.00  0.00    +0.000 C 
BRANCH 381 388
ATOM    388  CA  GLU A   9       7.937  -5.591   9.413  0.00  0.00    +0.000 C 
BRANCH 388 391
ATOM    389  C   MET A   8       9.320  -4.669  11.191  0.00  0.00    +0.000 C 
ATOM    390  O   MET A   8       9.646  -5.788  11.585  0.00  0.00    +0.000 OA
ATOM    391  N   GLU A   9       8.506  -4.474  10.158  0.00  0.00    +0.000 N 
ATOM    392  H   GLU A   9       8.282  -3.558   9.891  0.00  0.00    +0.000 HD
BRANCH 389 393
ATOM    393  CA  MET A   8       9.843  -3.415  11.882  0.00  0.00    +0.000 C 
BRANCH 393 396
ATOM    394  C   GLY A   7       8.760  -2.446  13.834  0.00  0.00    +0.000 C 
ATOM    395  O   GLY A   7       8.334  -1.491  13.186  0.00  0.00    +0.000 OA
ATOM    396  N   MET A   8       9.492  -3.416  13.297  0.00  0.00    +0.000 N 
ATOM    397  H   MET A   8       9.803  -4.152  13.866  0.00  0.00    +0.000 HD
BRANCH 394 398
ATOM    398  CA  GLY A   7       8.466  -2.566  15.316  0.00  0.00    +0.000 C 
BRANCH 398 401
ATOM    399  C   SER A   6       7.073  -3.812  16.850  0.00  0.00    +0.000 C 
ATOM    400  O   SER A   6       7.618  -3.299  17.826  0.00  0.00    +0.000 OA
ATOM    401  N   GLY A   7       7.412  -3.523  15.597  0.00  0.00    +0.000 N 
ATOM    402  H   GLY A   7       6.943  -3.963  14.858  0.00  0.00    +0.000 HD
BRANCH 399 403
ATOM    403  CA  SER A   6       5.952  -4.833  17.024  0.00  0.00    +0.000 C 
BRANCH 403 406
ATOM    404  C   SER A   5       6.935  -7.059  16.949  0.00  0.00    +0.000 C 
ATOM    405  O   SER A   5       7.000  -7.043  15.720  0.00  0.00    +0.000 OA
ATOM    406  N   SER A   6       6.450  -6.047  17.661  0.00  0.00    +0.000 N 
ATOM    407  H   SER A   6       6.424  -6.119  18.639  0.00  0.00    +0.000 HD
BRANCH 404 408
ATOM    408  CA  SER A   5       7.417  -8.269  17.743  0.00  0.00    +0.000 C 
BRANCH 408 411
ATOM    409  C   GLY A   4       6.520  -9.707  15.996  0.00  0.00    +0.000 C 
ATOM    410  O   GLY A   4       5.560  -8.962  15.806  0.00  0.00    +0.000 OA
ATOM    411  N   SER A   5       7.462  -9.458  16.901  0.00  0.00    +0.000 N 
ATOM    412  H   SER A   5       8.203 -10.091  17.005  0.00  0.00    +0.000 HD
BRANCH 409 413
ATOM    413  CA  GLY A   4       6.682 -10.981  15.190  0.00  0.00    +0.000 C 
BRANCH 413 416
ATOM    414  C   SER A   3       4.660 -12.143  15.830  0.00  0.00    +0.000 C 
ATOM    415  O   SER A   3       4.990 -12.149  17.015  0.00  0.00    +0.000 OA
ATOM    416  N   GLY A   4       5.409 -11.602  14.874  0.00  0.00    +0.000 N 
ATOM    417  H   GLY A   4       5.095 -11.626  13.945  0.00  0.00    +0.000 HD
BRANCH 414 418
ATOM    418  CA  SER A   3       3.343 -12.767  15.380  0.00  0.00    +0.000 C 
BRANCH 418 421
ATOM    419  C   SER A   2       2.742 -15.126  15.351  0.00  0.00    +0.000 C 
ATOM    420  O   SER A   2       2.545 -15.112  14.136  0.00  0.00    +0.000 OA
ATOM    421  N   SER A   3       3.128 -14.053  16.034  0.00  0.00    +0.000 N 
ATOM    422  H   SER A   3       3.268 -14.127  17.001  0.00  0.00    +0.000 HD
BRANCH 419 423
ATOM    423  CA  SER A   2       2.550 -16.405  16.161  0.00  0.00    +0.000 C 
BRANCH 423 426
ATOM    424  C   GLY A   1       0.598 -17.203  14.944  0.00  0.00    +0.000 C 
ATOM    425  O   GLY A   1      -0.023 -16.162  15.158  0.00  0.00    +0.000 OA
ATOM    426  N   SER A   2       1.836 -17.410  15.382  0.00  0.00    +0.000 N 
ATOM    427  H   SER A   2       2.278 -18.261  15.179  0.00  0.00    +0.000 HD
BRANCH 424 428
ATOM    428  CA  GLY A   1      -0.033 -18.330  14.151  0.00  0.00    +0.000 C 
BRANCH 428 429
ATOM    429  N   GLY A   1      -0.514 -19.404  15.001  0.00  0.00    +0.000 N 
ATOM    430  H2  GLY A   1      -0.520 -20.437  14.383  0.00  0.00    +0.000 HD
ATOM    431  H3  GLY A   1      -1.685 -19.229  15.224  0.00  0.00    +0.000 HD
ATOM    432  H   GLY A   1      -0.084 -19.572  15.866  0.00  0.00    +0.000 HD
ENDBRANCH 428 429
ENDBRANCH 424 428
ENDBRANCH 423 426
BRANCH 423 433
ATOM    433  CB  SER A   2       3.908 -16.946  16.609  0.00  0.00    +0.000 C 
BRANCH 433 434
ATOM    434  OG  SER A   2       4.788 -17.093  15.508  0.00  0.00    +0.000 OA
ATOM    435  HG  SER A   2       5.252 -16.267  15.356  0.00  0.00    +0.000 HD
ENDBRANCH 433 434
ENDBRANCH 423 433
ENDBRANCH 419 423
ENDBRANCH 418 421
BRANCH 418 436
ATOM    436  CB  SER A   3       2.184 -11.816  15.684  0.00  0.00    +0.000 C 
BRANCH 436 437
ATOM    437  OG  SER A   3       2.281 -10.631  14.913  0.00  0.00    +0.000 OA
ATOM    438  HG  SER A   3       2.285 -10.855  13.980  0.00  0.00    +0.000 HD
ENDBRANCH 436 437
ENDBRANCH 418 436
ENDBRANCH 414 418
ENDBRANCH 413 416
ENDBRANCH 409 413
ENDBRANCH 408 411
BRANCH 408 439
ATOM    439  CB  SER A   5       8.799  -7.986  18.337  0.00  0.00    +0.000 C 
BRANCH 439 440
ATOM    440  OG  SER A   5       9.090  -8.878  19.399  0.00  0.00    +0.000 OA
ATOM    441  HG  SER A   5       9.711  -9.544  19.096  0.00  0.00    +0.000 HD
ENDBRANCH 439 440
ENDBRANCH 408 439
ENDBRANCH 404 408
ENDBRANCH 403 406
BRANCH 403 442
ATOM    442  CB  SER A   6       4.818  -4.225  17.852  0.00  0.00    +0.000 C 
BRANCH 442 443
ATOM    443  OG  SER A   6       5.245  -3.946  19.174  0.00  0.00    +0.000 OA
ATOM    444  HG  SER A   6       6.177  -3.716  19.168  0.00  0.00    +0.000 HD
ENDBRANCH 442 443
ENDBRANCH 403 442
ENDBRANCH 399 403
ENDBRANCH 398 401
ENDBRANCH 394 398
ENDBRANCH 393 396
BRANCH 393 445
ATOM    445  CB  MET A   8      11.361  -3.320  11.711  0.00  0.00    +0.000 C 
BRANCH 445 446
ATOM    446  CG  MET A   8      11.900  -1.904  11.844  0.00  0.00    +0.000 C 
BRANCH 446 447
ATOM    447  SD  MET A   8      13.618  -1.864  12.389  0.00  0.00    +0.000 S 
ATOM    448  CE  MET A   8      14.390  -2.903  11.152  0.00  0.00    +0.000 C 
ENDBRANCH 446 447
ENDBRANCH 445 446
ENDBRANCH 393 445
ENDBRANCH 389 393
ENDBRANCH 388 391
BRANCH 388 449
ATOM    449  CB  GLU A   9       6.459  -5.332   9.111  0.00  0.00    +0.000 C 
BRANCH 449 450
ATOM    450  CG  GLU A   9       5.588  -5.258  10.354  0.00  0.00    +0.000 C 
BRANCH 450 451
ATOM    451  CD  GLU A   9       4.163  -4.841  10.044  0.00  0.00    +0.000 C 
ATOM    452  OE1 GLU A   9       3.402  -5.678   9.515  0.00  0.00    +0.000 OA
ATOM    453  OE2 GLU A   9       3.810  -3.679  10.332  0.00  0.00    +0.000 OA
ENDBRANCH 450 451
ENDBRANCH 449 450
ENDBRANCH 388 449
ENDBRANCH 381 388
ENDBRANCH 377 384
ENDBRANCH 375 379
ENDBRANCH 371 375
ENDBRANCH 370 373
ENDBRANCH 363 370
ENDBRANCH 359 366
ENDBRANCH 358 361
BRANCH 358 454
ATOM    454  CB  CYS A  14       4.184  -8.489  -5.335  0.00  0.00    +0.000 C 
BRANCH 454 455
ATOM    455  SG  CYS A  14       2.888  -7.652  -6.305  0.00  0.00    +0.000 S 
ATOM    456  HG  CYS A  14       2.706  -7.395  -7.440  0.00  0.00    +0.000 HD
ENDBRANCH 454 455
ENDBRANCH 358 454
ENDBRANCH 354 358
ENDBRANCH 353 356
ENDBRANCH 349 353
ENDBRANCH 348 351
BRANCH 348 457
ATOM    457  CB  PHE A  16      -1.268  -7.539  -6.780  0.00  0.00    +0.000 C 
BRANCH 457 458
ATOM    458  CG  PHE A  16      -1.628  -7.042  -5.409  0.00  0.00    +0.000 A 
ATOM    459  CD1 PHE A  16      -2.788  -7.471  -4.784  0.00  0.00    +0.000 A 
ATOM    460  CD2 PHE A  16      -0.806  -6.145  -4.745  0.00  0.00    +0.000 A 
ATOM    461  CE1 PHE A  16      -3.121  -7.016  -3.522  0.00  0.00    +0.000 A 
ATOM    462  CE2 PHE A  16      -1.134  -5.687  -3.484  0.00  0.00    +0.000 A 
ATOM    463  CZ  PHE A  16      -2.294  -6.122  -2.872  0.00  0.00    +0.000 A 
ENDBRANCH 457 458
ENDBRANCH 348 457
ENDBRANCH 344 348
ENDBRANCH 343 346
BRANCH 343 464
ATOM    464  CB  CYS A  17       2.549 -10.335  -9.514  0.00  0.00    +0.000 C 
BRANCH 464 465
ATOM    465  SG  CYS A  17       3.510  -8.827  -9.861  0.00  0.00    +0.000 S 
ATOM    466  HG  CYS A  17       3.993  -8.237 -10.763  0.00  0.00    +0.000 HD
ENDBRANCH 464 465
ENDBRANCH 343 464
ENDBRANCH 336 343
ENDBRANCH 332 339
ENDBRANCH 330 334
ENDBRANCH 326 330
ENDBRANCH 325 328
ENDBRANCH 321 325
ENDBRANCH 320 323
BRANCH 320 467
ATOM    467  CB  GLU A  21       4.787 -12.512 -12.877  0.00  0.00    +0.000 C 
BRANCH 467 468
ATOM    468  CG  GLU A  21       4.768 -13.021 -14.309  0.00  0.00    +0.000 C 
BRANCH 468 469
ATOM    469  CD  GLU A  21       4.632 -11.902 -15.323  0.00  0.00    +0.000 C 
ATOM    470  OE1 GLU A  21       5.366 -10.899 -15.201  0.00  0.00    +0.000 OA
ATOM    471  OE2 GLU A  21       3.792 -12.030 -16.238  0.00  0.00    +0.000 OA
ENDBRANCH 468 469
ENDBRANCH 467 468
ENDBRANCH 320 467
ENDBRANCH 316 320
ENDBRANCH 315 318
BRANCH 315 472
ATOM    472  CB  VAL A  22       5.466 -14.487  -7.121  0.00  0.00    +0.000 C 
ATOM    473  CG1 VAL A  22       5.586 -14.018  -5.679  0.00  0.00    +0.000 C 
ATOM    474  CG2 VAL A  22       4.125 -15.165  -7.360  0.00  0.00    +0.000 C 
ENDBRANCH 315 472
ENDBRANCH 311 315
ENDBRANCH 310 313
BRANCH 310 475
ATOM    475  CB  GLN A  23       8.119  -9.297  -7.934  0.00  0.00    +0.000 C 
BRANCH 475 476
ATOM    476  CG  GLN A  23       8.531  -9.613  -9.363  0.00  0.00    +0.000 C 
BRANCH 476 477
ATOM    477  CD  GLN A  23       8.818  -8.367 -10.177  0.00  0.00    +0.000 C 
ATOM    478  OE1 GLN A  23       8.925  -7.267  -9.634  0.00  0.00    +0.000 OA
ATOM    479  NE2 GLN A  23       8.945  -8.533 -11.489  0.00  0.00    +0.000 N 
ATOM    480 HE21 GLN A  23       8.846  -9.438 -11.852  0.00  0.00    +0.000 HD
ATOM    481 HE22 GLN A  23       9.130  -7.744 -12.039  0.00  0.00    +0.000 HD
ENDBRANCH 476 477
ENDBRANCH 475 476
ENDBRANCH 310 475
ENDBRANCH 303 310
ENDBRANCH 299 306
ENDBRANCH 297 301
ENDBRANCH 293 297
ENDBRANCH 292 295
BRANCH 292 482
ATOM    482  CB  ARG A  26      10.933  -3.853  -1.708  0.00  0.00    +0.000 C 
BRANCH 482 483
ATOM    483  CG  ARG A  26      11.969  -4.928  -1.997  0.00  0.00    +0.000 C 
BRANCH 483 484
ATOM    484  CD  ARG A  26      13.059  -4.415  -2.925  0.00  0.00    +0.000 C 
BRANCH 484 485
ATOM    485  NE  ARG A  26      12.532  -4.036  -4.233  0.00  0.00    +0.000 N 
ATOM    486  CZ  ARG A  26      13.260  -4.021  -5.343  0.00  0.00    +0.000 C 
ATOM    487  NH1 ARG A  26      14.541  -4.363  -5.304  0.00  0.00    +0.000 N 
ATOM    488  NH2 ARG A  26      12.709  -3.664  -6.496  0.00  0.00    +0.000 N 
ATOM    489  HE  ARG A  26      11.588  -3.779  -4.284  0.00  0.00    +0.000 HD
ATOM    490 HH11 ARG A  26      14.959  -4.634  -4.437  0.00  0.00    +0.000 HD
ATOM    491 HH12 ARG A  26      15.087  -4.353  -6.142  0.00  0.00    +0.000 HD
ATOM    492 HH21 ARG A  26      11.744  -3.405  -6.529  0.00  0.00    +0.000 HD
ATOM    493 HH22 ARG A  26      13.258  -3.653  -7.331  0.00  0.00    +0.000 HD
ENDBRANCH 484 485
ENDBRANCH 483 484
ENDBRANCH 482 483
ENDBRANCH 292 482
ENDBRANCH 288 292
ENDBRANCH 287 290
BRANCH 287 494
ATOM    494  CB  TYR A  27       6.905  -0.604  -1.693  0.00  0.00    +0.000 C 
BRANCH 494 495
ATOM    495  CG  TYR A  27       8.156  -0.420  -2.523  0.00  0.00    +0.000 A 
ATOM    496  CD1 TYR A  27       9.321   0.083  -1.958  0.00  0.00    +0.000 A 
ATOM    497  CD2 TYR A  27       8.172  -0.749  -3.873  0.00  0.00    +0.000 A 
ATOM    498  CE1 TYR A  27      10.466   0.253  -2.712  0.00  0.00    +0.000 A 
ATOM    499  CE2 TYR A  27       9.312  -0.584  -4.635  0.00  0.00    +0.000 A 
ATOM    500  CZ  TYR A  27      10.456  -0.083  -4.050  0.00  0.00    +0.000 A 
BRANCH 500 501
ATOM    501  OH  TYR A  27      11.594   0.085  -4.806  0.00  0.00    +0.000 OA
ATOM    502  HH  TYR A  27      11.468   0.815  -5.417  0.00  0.00    +0.000 HD
ENDBRANCH 500 501
ENDBRANCH 494 495
ENDBRANCH 287 494
ENDBRANCH 283 287
ENDBRANCH 282 285
BRANCH 282 503
ATOM    503  CB  THR A  28       3.553  -2.300   2.211  0.00  0.00    +0.000 C 
ATOM    504  CG2 THR A  28       2.410  -3.297   2.335  0.00  0.00    +0.000 C 
BRANCH 503 505
ATOM    505  OG1 THR A  28       4.803  -2.974   2.393  0.00  0.00    +0.000 OA
ATOM    506  HG1 THR A  28       4.914  -3.633   1.704  0.00  0.00    +0.000 HD
ENDBRANCH 503 505
ENDBRANCH 282 503
ENDBRANCH 278 282
ENDBRANCH 277 280
BRANCH 277 507
ATOM    507  CB  CYS A  29      -0.936   0.146   0.086  0.00  0.00    +0.000 C 
BRANCH 507 508
ATOM    508  SG  CYS A  29      -1.922   1.499  -0.631  0.00  0.00    +0.000 S 
ATOM    509  HG  CYS A  29      -1.983   2.659  -0.822  0.00  0.00    +0.000 HD
ENDBRANCH 507 508
ENDBRANCH 277 507
ENDBRANCH 270 277
ENDBRANCH 266 273
ENDBRANCH 265 268
BRANCH 265 510
ATOM    510  CB  ARG A  31      -3.840   3.891   2.264  0.00  0.00    +0.000 C 
BRANCH 510 511
ATOM    511  CG  ARG A  31      -3.786   5.401   2.423  0.00  0.00    +0.000 C 
BRANCH 511 512
ATOM    512  CD  ARG A  31      -4.926   6.080   1.680  0.00  0.00    +0.000 C 
BRANCH 512 513
ATOM    513  NE  ARG A  31      -6.108   6.242   2.521  0.00  0.00    +0.000 N 
ATOM    514  CZ  ARG A  31      -7.344   6.329   2.043  0.00  0.00    +0.000 C 
ATOM    515  NH1 ARG A  31      -7.559   6.270   0.736  0.00  0.00    +0.000 N 
ATOM    516  NH2 ARG A  31      -8.369   6.476   2.873  0.00  0.00    +0.000 N 
ATOM    517  HE  ARG A  31      -5.973   6.288   3.490  0.00  0.00    +0.000 HD
ATOM    518 HH11 ARG A  31      -6.788   6.159   0.108  0.00  0.00    +0.000 HD
ATOM    519 HH12 ARG A  31      -8.491   6.335   0.378  0.00  0.00    +0.000 HD
ATOM    520 HH21 ARG A  31      -8.212   6.520   3.859  0.00  0.00    +0.000 HD
ATOM    521 HH22 ARG A  31      -9.299   6.541   2.512  0.00  0.00    +0.000 HD
ENDBRANCH 512 513
ENDBRANCH 511 512
ENDBRANCH 510 511
ENDBRANCH 265 510
ENDBRANCH 261 265
ENDBRANCH   1 263
BRANCH   1 522
ATOM    522  CB  CYS A  32      -4.951  -0.860   1.831  0.00  0.00    +0.000 C 
BRANCH 522 523
ATOM    523  SG  CYS A  32      -3.963  -1.358   0.384  0.00  0.00    +0.000 S 
ATOM    524  HG  CYS A  32      -4.785  -1.786  -0.350  0.00  0.00    +0.000 HD
ENDBRANCH 522 523
ENDBRANCH   1 522
TORSDOF 203
