REMARK  Name = /Users/acegid/Desktop/Smoking_Research/Docking/Docking_All_PDB/All_PDB/1ZL8_H.pdb
REMARK  527 active torsions:
REMARK  status: ('A' for Active; 'I' for Inactive)
REMARK    1  A    between atoms: N_1  and  CA_4
REMARK    2  A    between atoms: CA_4  and  C_5
REMARK    3  A    between atoms: N_10  and  CA_11
REMARK    4  A    between atoms: CA_11  and  C_12
REMARK    5  A    between atoms: CA_11  and  CB_14
REMARK    6  A    between atoms: CB_14  and  OG_15
REMARK    7  A    between atoms: N_21  and  CA_22
REMARK    8  A    between atoms: CA_22  and  C_23
REMARK    9  A    between atoms: CA_22  and  CB_25
REMARK   10  A    between atoms: CB_25  and  CG_26
REMARK   11  A    between atoms: CG_26  and  CD1_27
REMARK   12  A    between atoms: CG_26  and  CD2_28
REMARK   13  A    between atoms: N_40  and  CA_41
REMARK   14  A    between atoms: CA_41  and  C_42
REMARK   15  A    between atoms: CA_41  and  CB_44
REMARK   16  A    between atoms: CB_44  and  CG_45
REMARK   17  A    between atoms: N_54  and  CA_55
REMARK   18  A    between atoms: CA_55  and  C_56
REMARK   19  A    between atoms: CA_55  and  CB_58
REMARK   20  A    between atoms: CB_58  and  CG_59
REMARK   21  A    between atoms: CG_59  and  CD1_60
REMARK   22  A    between atoms: CG_59  and  CD2_61
REMARK   23  A    between atoms: N_73  and  CA_74
REMARK   24  A    between atoms: CA_74  and  C_75
REMARK   25  A    between atoms: CA_74  and  CB_77
REMARK   26  A    between atoms: CB_77  and  CG_78
REMARK   27  A    between atoms: CG_78  and  CD_79
REMARK   28  A    between atoms: CD_79  and  OE2_81
REMARK   29  A    between atoms: N_89  and  CA_90
REMARK   30  A    between atoms: CA_90  and  C_91
REMARK   31  A    between atoms: CA_90  and  CB_93
REMARK   32  A    between atoms: CB_93  and  CG_94
REMARK   33  A    between atoms: CG_94  and  CD_95
REMARK   34  A    between atoms: CD_95  and  NE_96
REMARK   35  A    between atoms: N_113  and  CA_114
REMARK   36  A    between atoms: CA_114  and  C_115
REMARK   37  A    between atoms: CA_114  and  CB_117
REMARK   38  A    between atoms: CB_117  and  CG_118
REMARK   39  A    between atoms: CG_118  and  OD2_120
REMARK   40  A    between atoms: N_126  and  CA_127
REMARK   41  A    between atoms: CA_127  and  C_128
REMARK   42  A    between atoms: CA_127  and  CB_130
REMARK   43  A    between atoms: CB_130  and  CG1_131
REMARK   44  A    between atoms: CB_130  and  CG2_132
REMARK   45  A    between atoms: N_142  and  CA_143
REMARK   46  A    between atoms: CA_143  and  C_144
REMARK   47  A    between atoms: CA_143  and  CB_146
REMARK   48  A    between atoms: CB_146  and  CG_147
REMARK   49  A    between atoms: CG_147  and  CD_148
REMARK   50  A    between atoms: N_159  and  CA_160
REMARK   51  A    between atoms: CA_160  and  C_161
REMARK   52  A    between atoms: CA_160  and  CB_163
REMARK   53  A    between atoms: CB_163  and  CG_164
REMARK   54  A    between atoms: CG_164  and  CD_165
REMARK   55  A    between atoms: CD_165  and  NE_166
REMARK   56  A    between atoms: N_183  and  CA_184
REMARK   57  A    between atoms: CA_184  and  C_185
REMARK   58  A    between atoms: CA_184  and  CB_187
REMARK   59  A    between atoms: CB_187  and  CG1_188
REMARK   60  A    between atoms: CB_187  and  CG2_189
REMARK   61  A    between atoms: CG1_188  and  CD1_190
REMARK   62  A    between atoms: N_202  and  CA_203
REMARK   63  A    between atoms: CA_203  and  C_204
REMARK   64  A    between atoms: CA_203  and  CB_206
REMARK   65  A    between atoms: CB_206  and  CG_207
REMARK   66  A    between atoms: CG_207  and  CD1_208
REMARK   67  A    between atoms: CG_207  and  CD2_209
REMARK   68  A    between atoms: N_221  and  CA_222
REMARK   69  A    between atoms: CA_222  and  C_223
REMARK   70  A    between atoms: CA_222  and  CB_225
REMARK   71  A    between atoms: CB_225  and  CG_226
REMARK   72  A    between atoms: CG_226  and  CD_227
REMARK   73  A    between atoms: CD_227  and  OE2_229
REMARK   74  A    between atoms: N_237  and  CA_238
REMARK   75  A    between atoms: CA_238  and  C_239
REMARK   76  A    between atoms: CA_238  and  CB_241
REMARK   77  A    between atoms: CB_241  and  CG_242
REMARK   78  A    between atoms: CG_242  and  CD1_243
REMARK   79  A    between atoms: CG_242  and  CD2_244
REMARK   80  A    between atoms: N_256  and  CA_257
REMARK   81  A    between atoms: CA_257  and  C_258
REMARK   82  A    between atoms: CA_257  and  CB_260
REMARK   83  A    between atoms: CB_260  and  CG_261
REMARK   84  A    between atoms: CG_261  and  SD_262
REMARK   85  A    between atoms: SD_262  and  CE_263
REMARK   86  A    between atoms: N_273  and  CA_274
REMARK   87  A    between atoms: CA_274  and  C_275
REMARK   88  A    between atoms: CA_274  and  CB_277
REMARK   89  A    between atoms: CB_277  and  CG_278
REMARK   90  A    between atoms: CG_278  and  CD_279
REMARK   91  A    between atoms: CD_279  and  OE2_281
REMARK   92  A    between atoms: N_289  and  CA_290
REMARK   93  A    between atoms: CA_290  and  C_291
REMARK   94  A    between atoms: CA_290  and  CB_293
REMARK   95  A    between atoms: CB_293  and  CG_294
REMARK   96  A    between atoms: N_306  and  CA_307
REMARK   97  A    between atoms: CA_307  and  C_308
REMARK   98  A    between atoms: CA_307  and  CB_310
REMARK   99  A    between atoms: CB_310  and  CG1_311
REMARK  100  A    between atoms: CB_310  and  CG2_312
REMARK  101  A    between atoms: N_322  and  CA_323
REMARK  102  A    between atoms: CA_323  and  C_324
REMARK  103  A    between atoms: CA_323  and  CB_326
REMARK  104  A    between atoms: CB_326  and  CG_327
REMARK  105  A    between atoms: CG_327  and  CD_328
REMARK  106  A    between atoms: N_339  and  CA_340
REMARK  107  A    between atoms: CA_340  and  C_341
REMARK  108  A    between atoms: CA_340  and  CB_343
REMARK  109  A    between atoms: CB_343  and  CG_344
REMARK  110  A    between atoms: CG_344  and  CD_345
REMARK  111  A    between atoms: CD_345  and  CE_346
REMARK  112  A    between atoms: CE_346  and  NZ_347
REMARK  113  A    between atoms: N_361  and  CA_362
REMARK  114  A    between atoms: CA_362  and  C_363
REMARK  115  A    between atoms: CA_362  and  CB_365
REMARK  116  A    between atoms: CB_365  and  OG1_366
REMARK  117  A    between atoms: CB_365  and  CG2_367
REMARK  118  A    between atoms: N_375  and  CA_376
REMARK  119  A    between atoms: CA_376  and  C_377
REMARK  120  A    between atoms: N_382  and  CA_383
REMARK  121  A    between atoms: CA_383  and  C_384
REMARK  122  A    between atoms: CA_383  and  CB_386
REMARK  123  A    between atoms: CB_386  and  CG_387
REMARK  124  A    between atoms: CG_387  and  CD_388
REMARK  125  A    between atoms: CD_388  and  OE2_390
REMARK  126  A    between atoms: N_398  and  CA_399
REMARK  127  A    between atoms: CA_399  and  C_400
REMARK  128  A    between atoms: CA_399  and  CB_402
REMARK  129  A    between atoms: CB_402  and  CG1_403
REMARK  130  A    between atoms: CB_402  and  CG2_404
REMARK  131  A    between atoms: N_414  and  CA_415
REMARK  132  A    between atoms: CA_415  and  C_416
REMARK  133  A    between atoms: CA_415  and  CB_418
REMARK  134  A    between atoms: CB_418  and  CG_419
REMARK  135  A    between atoms: N_428  and  CA_429
REMARK  136  A    between atoms: CA_429  and  C_430
REMARK  137  A    between atoms: CA_429  and  CB_432
REMARK  138  A    between atoms: CB_432  and  CG_433
REMARK  139  A    between atoms: N_442  and  CA_443
REMARK  140  A    between atoms: CA_443  and  C_444
REMARK  141  A    between atoms: CA_443  and  CB_446
REMARK  142  A    between atoms: N_452  and  CA_453
REMARK  143  A    between atoms: CA_453  and  C_454
REMARK  144  A    between atoms: CA_453  and  CB_456
REMARK  145  A    between atoms: CB_456  and  CG_457
REMARK  146  A    between atoms: CG_457  and  CD_458
REMARK  147  A    between atoms: CD_458  and  CE_459
REMARK  148  A    between atoms: CE_459  and  NZ_460
REMARK  149  A    between atoms: N_474  and  CA_475
REMARK  150  A    between atoms: CA_475  and  C_476
REMARK  151  A    between atoms: CA_475  and  CB_478
REMARK  152  A    between atoms: CB_478  and  CG_479
REMARK  153  A    between atoms: CG_479  and  CD1_480
REMARK  154  A    between atoms: CG_479  and  CD2_481
REMARK  155  A    between atoms: N_493  and  CA_494
REMARK  156  A    between atoms: CA_494  and  C_495
REMARK  157  A    between atoms: CA_494  and  CB_497
REMARK  158  A    between atoms: N_503  and  CA_504
REMARK  159  A    between atoms: CA_504  and  C_505
REMARK  160  A    between atoms: CA_504  and  CB_507
REMARK  161  A    between atoms: CB_507  and  OG_508
REMARK  162  A    between atoms: N_514  and  CA_515
REMARK  163  A    between atoms: CA_515  and  C_516
REMARK  164  A    between atoms: CA_515  and  CB_518
REMARK  165  A    between atoms: CB_518  and  CG_519
REMARK  166  A    between atoms: CG_519  and  CD1_520
REMARK  167  A    between atoms: CG_519  and  CD2_521
REMARK  168  A    between atoms: N_533  and  CA_534
REMARK  169  A    between atoms: CA_534  and  C_535
REMARK  170  A    between atoms: CA_534  and  CB_537
REMARK  171  A    between atoms: CB_537  and  CG_538
REMARK  172  A    between atoms: CG_538  and  CD_539
REMARK  173  A    between atoms: N_550  and  CA_551
REMARK  174  A    between atoms: CA_551  and  C_552
REMARK  175  A    between atoms: CA_551  and  CB_554
REMARK  176  A    between atoms: CB_554  and  CG_555
REMARK  177  A    between atoms: CG_555  and  CD_556
REMARK  178  A    between atoms: N_567  and  CA_568
REMARK  179  A    between atoms: CA_568  and  C_569
REMARK  180  A    between atoms: CA_568  and  CB_571
REMARK  181  A    between atoms: CB_571  and  CG1_572
REMARK  182  A    between atoms: CB_571  and  CG2_573
REMARK  183  A    between atoms: N_583  and  CA_584
REMARK  184  A    between atoms: CA_584  and  C_585
REMARK  185  A    between atoms: CA_584  and  CB_587
REMARK  186  A    between atoms: CB_587  and  CG_588
REMARK  187  A    between atoms: CG_588  and  CD1_589
REMARK  188  A    between atoms: CG_588  and  CD2_590
REMARK  189  A    between atoms: N_602  and  CA_603
REMARK  190  A    between atoms: CA_603  and  C_604
REMARK  191  A    between atoms: CA_603  and  CB_606
REMARK  192  A    between atoms: CB_606  and  CG_607
REMARK  193  A    between atoms: CG_607  and  CD_608
REMARK  194  A    between atoms: N_619  and  CA_620
REMARK  195  A    between atoms: CA_620  and  C_621
REMARK  196  A    between atoms: CA_620  and  CB_623
REMARK  197  A    between atoms: CB_623  and  OG_624
REMARK  198  A    between atoms: N_630  and  CA_631
REMARK  199  A    between atoms: CA_631  and  C_632
REMARK  200  A    between atoms: CA_631  and  CB_634
REMARK  201  A    between atoms: CB_634  and  CG_635
REMARK  202  A    between atoms: CG_635  and  CD_636
REMARK  203  A    between atoms: CD_636  and  OE2_638
REMARK  204  A    between atoms: N_646  and  CA_647
REMARK  205  A    between atoms: CA_647  and  C_648
REMARK  206  A    between atoms: CA_647  and  CB_650
REMARK  207  A    between atoms: CB_650  and  CG_651
REMARK  208  A    between atoms: N_666  and  CA_667
REMARK  209  A    between atoms: CA_667  and  C_668
REMARK  210  A    between atoms: CA_667  and  CB_670
REMARK  211  A    between atoms: CB_670  and  CG_671
REMARK  212  A    between atoms: N_686  and  CA_687
REMARK  213  A    between atoms: CA_687  and  C_688
REMARK  214  A    between atoms: N_693  and  CA_694
REMARK  215  A    between atoms: CA_694  and  C_695
REMARK  216  A    between atoms: CA_694  and  CB_697
REMARK  217  A    between atoms: N_703  and  CA_704
REMARK  218  A    between atoms: CA_704  and  C_705
REMARK  219  A    between atoms: CA_704  and  CB_707
REMARK  220  A    between atoms: CB_707  and  CG1_708
REMARK  221  A    between atoms: CB_707  and  CG2_709
REMARK  222  A    between atoms: N_719  and  CA_720
REMARK  223  A    between atoms: CA_720  and  C_721
REMARK  224  A    between atoms: CA_720  and  CB_723
REMARK  225  A    between atoms: CB_723  and  CG_724
REMARK  226  A    between atoms: CG_724  and  CD_725
REMARK  227  A    between atoms: CD_725  and  NE_726
REMARK  228  A    between atoms: N_743  and  CA_744
REMARK  229  A    between atoms: CA_744  and  C_745
REMARK  230  A    between atoms: CA_744  and  CB_747
REMARK  231  A    between atoms: CB_747  and  CG_748
REMARK  232  A    between atoms: CG_748  and  CD_749
REMARK  233  A    between atoms: CD_749  and  OE2_751
REMARK  234  A    between atoms: N_759  and  CA_760
REMARK  235  A    between atoms: CA_760  and  C_761
REMARK  236  A    between atoms: CA_760  and  CB_763
REMARK  237  A    between atoms: CB_763  and  CG1_764
REMARK  238  A    between atoms: CB_763  and  CG2_765
REMARK  239  A    between atoms: N_775  and  CA_776
REMARK  240  A    between atoms: CA_776  and  C_777
REMARK  241  A    between atoms: CA_776  and  CB_779
REMARK  242  A    between atoms: CB_779  and  CG_780
REMARK  243  A    between atoms: CZ_785  and  OH_786
REMARK  244  A    between atoms: N_796  and  CA_797
REMARK  245  A    between atoms: CA_797  and  C_798
REMARK  246  A    between atoms: CA_797  and  CB_800
REMARK  247  A    between atoms: CB_800  and  CG_801
REMARK  248  A    between atoms: CG_801  and  CD_802
REMARK  249  A    between atoms: CD_802  and  OE2_804
REMARK  250  A    between atoms: N_812  and  CA_813
REMARK  251  A    between atoms: CA_813  and  C_814
REMARK  252  A    between atoms: CA_813  and  CB_816
REMARK  253  A    between atoms: CB_816  and  OG1_817
REMARK  254  A    between atoms: CB_816  and  CG2_818
REMARK  255  A    between atoms: N_826  and  CA_827
REMARK  256  A    between atoms: CA_827  and  C_828
REMARK  257  A    between atoms: CA_827  and  CB_830
REMARK  258  A    between atoms: CB_830  and  CG1_831
REMARK  259  A    between atoms: CB_830  and  CG2_832
REMARK  260  A    between atoms: N_842  and  CA_843
REMARK  261  A    between atoms: CA_843  and  C_844
REMARK  262  A    between atoms: CA_843  and  CB_846
REMARK  263  A    between atoms: CB_846  and  CG_847
REMARK  264  A    between atoms: CZ_852  and  OH_853
REMARK  265  A    between atoms: N_864  and  CA_867
REMARK  266  A    between atoms: CA_867  and  C_868
REMARK  267  A    between atoms: CA_867  and  CB_870
REMARK  268  A    between atoms: CB_870  and  OG_871
REMARK  269  A    between atoms: N_877  and  CA_878
REMARK  270  A    between atoms: CA_878  and  C_879
REMARK  271  A    between atoms: CA_878  and  CB_881
REMARK  272  A    between atoms: CB_881  and  CG_882
REMARK  273  A    between atoms: CG_882  and  OD2_884
REMARK  274  A    between atoms: N_890  and  CA_891
REMARK  275  A    between atoms: CA_891  and  C_892
REMARK  276  A    between atoms: CA_891  and  CB_894
REMARK  277  A    between atoms: N_900  and  CA_901
REMARK  278  A    between atoms: CA_901  and  C_902
REMARK  279  A    between atoms: CA_901  and  CB_904
REMARK  280  A    between atoms: CB_904  and  CG1_905
REMARK  281  A    between atoms: CB_904  and  CG2_906
REMARK  282  A    between atoms: N_916  and  CA_917
REMARK  283  A    between atoms: CA_917  and  C_918
REMARK  284  A    between atoms: CA_917  and  CB_920
REMARK  285  A    between atoms: CB_920  and  CG_921
REMARK  286  A    between atoms: CG_921  and  CD_922
REMARK  287  A    between atoms: N_933  and  CA_934
REMARK  288  A    between atoms: CA_934  and  C_935
REMARK  289  A    between atoms: CA_934  and  CB_937
REMARK  290  A    between atoms: CB_937  and  CG_938
REMARK  291  A    between atoms: CG_938  and  CD_939
REMARK  292  A    between atoms: CD_939  and  NE_940
REMARK  293  A    between atoms: N_957  and  CA_958
REMARK  294  A    between atoms: CA_958  and  C_959
REMARK  295  A    between atoms: CA_958  and  CB_961
REMARK  296  A    between atoms: N_967  and  CA_968
REMARK  297  A    between atoms: CA_968  and  C_969
REMARK  298  A    between atoms: CA_968  and  CB_971
REMARK  299  A    between atoms: CB_971  and  CG_972
REMARK  300  A    between atoms: CG_972  and  CD_973
REMARK  301  A    between atoms: CD_973  and  CE_974
REMARK  302  A    between atoms: CE_974  and  NZ_975
REMARK  303  A    between atoms: N_989  and  CA_990
REMARK  304  A    between atoms: CA_990  and  C_991
REMARK  305  A    between atoms: CA_990  and  CB_993
REMARK  306  A    between atoms: CB_993  and  CG_994
REMARK  307  A    between atoms: CG_994  and  CD_995
REMARK  308  A    between atoms: CD_995  and  OE2_997
REMARK  309  A    between atoms: N_1005  and  CA_1006
REMARK  310  A    between atoms: CA_1006  and  C_1007
REMARK  311  A    between atoms: CA_1006  and  CB_1009
REMARK  312  A    between atoms: CB_1009  and  CG1_1010
REMARK  313  A    between atoms: CB_1009  and  CG2_1011
REMARK  314  A    between atoms: N_1021  and  CA_1022
REMARK  315  A    between atoms: CA_1022  and  C_1023
REMARK  316  A    between atoms: CA_1022  and  CB_1025
REMARK  317  A    between atoms: CB_1025  and  CG_1026
REMARK  318  A    between atoms: CG_1026  and  CD1_1027
REMARK  319  A    between atoms: CG_1026  and  CD2_1028
REMARK  320  A    between atoms: N_1040  and  CA_1041
REMARK  321  A    between atoms: CA_1041  and  C_1042
REMARK  322  A    between atoms: CA_1041  and  CB_1044
REMARK  323  A    between atoms: CB_1044  and  CG_1045
REMARK  324  A    between atoms: CG_1045  and  CD_1046
REMARK  325  A    between atoms: CD_1046  and  OE2_1048
REMARK  326  A    between atoms: N_1056  and  CA_1057
REMARK  327  A    between atoms: CA_1057  and  C_1058
REMARK  328  A    between atoms: CA_1057  and  CB_1060
REMARK  329  A    between atoms: CB_1060  and  CG_1061
REMARK  330  A    between atoms: CG_1061  and  CD_1062
REMARK  331  A    between atoms: CD_1062  and  OE2_1064
REMARK  332  A    between atoms: N_1072  and  CA_1073
REMARK  333  A    between atoms: CA_1073  and  C_1074
REMARK  334  A    between atoms: CA_1073  and  CB_1076
REMARK  335  A    between atoms: CB_1076  and  CG1_1077
REMARK  336  A    between atoms: CB_1076  and  CG2_1078
REMARK  337  A    between atoms: CG1_1077  and  CD1_1079
REMARK  338  A    between atoms: N_1091  and  CA_1092
REMARK  339  A    between atoms: CA_1092  and  C_1093
REMARK  340  A    between atoms: CA_1092  and  CB_1095
REMARK  341  A    between atoms: CB_1095  and  OG_1096
REMARK  342  A    between atoms: N_1102  and  CA_1103
REMARK  343  A    between atoms: CA_1103  and  C_1104
REMARK  344  A    between atoms: CA_1103  and  CB_1106
REMARK  345  A    between atoms: CB_1106  and  SG_1107
REMARK  346  A    between atoms: N_1113  and  CA_1114
REMARK  347  A    between atoms: CA_1114  and  C_1115
REMARK  348  A    between atoms: CA_1114  and  CB_1117
REMARK  349  A    between atoms: CB_1117  and  CG_1118
REMARK  350  A    between atoms: CZ_1123  and  OH_1124
REMARK  351  A    between atoms: CA_1135  and  C_1136
REMARK  352  A    between atoms: N_1148  and  CA_1149
REMARK  353  A    between atoms: CA_1149  and  C_1150
REMARK  354  A    between atoms: CA_1149  and  CB_1152
REMARK  355  A    between atoms: CB_1152  and  CG_1153
REMARK  356  A    between atoms: CG_1153  and  CD_1154
REMARK  357  A    between atoms: CD_1154  and  OE2_1156
REMARK  358  A    between atoms: N_1164  and  CA_1165
REMARK  359  A    between atoms: CA_1165  and  C_1166
REMARK  360  A    between atoms: CA_1165  and  CB_1168
REMARK  361  A    between atoms: CB_1168  and  CG_1169
REMARK  362  A    between atoms: N_1178  and  CA_1179
REMARK  363  A    between atoms: CA_1179  and  C_1180
REMARK  364  A    between atoms: CA_1179  and  CB_1182
REMARK  365  A    between atoms: CB_1182  and  CG_1183
REMARK  366  A    between atoms: N_1192  and  CA_1193
REMARK  367  A    between atoms: CA_1193  and  C_1194
REMARK  368  A    between atoms: CA_1193  and  CB_1196
REMARK  369  A    between atoms: CB_1196  and  CG_1197
REMARK  370  A    between atoms: CG_1197  and  OD2_1199
REMARK  371  A    between atoms: N_1205  and  CA_1206
REMARK  372  A    between atoms: CA_1206  and  C_1207
REMARK  373  A    between atoms: CA_1206  and  CB_1209
REMARK  374  A    between atoms: N_1215  and  CA_1216
REMARK  375  A    between atoms: CA_1216  and  C_1217
REMARK  376  A    between atoms: CA_1216  and  CB_1219
REMARK  377  A    between atoms: CB_1219  and  CG_1220
REMARK  378  A    between atoms: CG_1220  and  CD_1221
REMARK  379  A    between atoms: CD_1221  and  CE_1222
REMARK  380  A    between atoms: CE_1222  and  NZ_1223
REMARK  381  A    between atoms: N_1237  and  CA_1238
REMARK  382  A    between atoms: CA_1238  and  C_1239
REMARK  383  A    between atoms: CA_1238  and  CB_1241
REMARK  384  A    between atoms: CB_1241  and  CG_1242
REMARK  385  A    between atoms: CG_1242  and  CD_1243
REMARK  386  A    between atoms: CD_1243  and  OE2_1245
REMARK  387  A    between atoms: N_1253  and  CA_1254
REMARK  388  A    between atoms: CA_1254  and  C_1255
REMARK  389  A    between atoms: CA_1254  and  CB_1257
REMARK  390  A    between atoms: CB_1257  and  CG_1258
REMARK  391  A    between atoms: CG_1258  and  CD1_1259
REMARK  392  A    between atoms: CG_1258  and  CD2_1260
REMARK  393  A    between atoms: N_1272  and  CA_1273
REMARK  394  A    between atoms: CA_1273  and  C_1274
REMARK  395  A    between atoms: CA_1273  and  CB_1276
REMARK  396  A    between atoms: CB_1276  and  CG_1277
REMARK  397  A    between atoms: CG_1277  and  CD_1278
REMARK  398  A    between atoms: CD_1278  and  CE_1279
REMARK  399  A    between atoms: CE_1279  and  NZ_1280
REMARK  400  A    between atoms: N_1294  and  CA_1295
REMARK  401  A    between atoms: CA_1295  and  C_1296
REMARK  402  A    between atoms: CA_1295  and  CB_1298
REMARK  403  A    between atoms: CB_1298  and  CG_1299
REMARK  404  A    between atoms: CG_1299  and  CD_1300
REMARK  405  A    between atoms: CD_1300  and  NE_1301
REMARK  406  A    between atoms: N_1318  and  CA_1319
REMARK  407  A    between atoms: CA_1319  and  C_1320
REMARK  408  A    between atoms: CA_1319  and  CB_1322
REMARK  409  A    between atoms: CB_1322  and  CG1_1323
REMARK  410  A    between atoms: CB_1322  and  CG2_1324
REMARK  411  A    between atoms: CG1_1323  and  CD1_1325
REMARK  412  A    between atoms: N_1337  and  CA_1338
REMARK  413  A    between atoms: CA_1338  and  C_1339
REMARK  414  A    between atoms: CA_1338  and  CB_1341
REMARK  415  A    between atoms: CB_1341  and  CG_1342
REMARK  416  A    between atoms: CG_1342  and  CD1_1343
REMARK  417  A    between atoms: CG_1342  and  CD2_1344
REMARK  418  A    between atoms: N_1356  and  CA_1357
REMARK  419  A    between atoms: CA_1357  and  C_1358
REMARK  420  A    between atoms: CA_1357  and  CB_1360
REMARK  421  A    between atoms: CB_1360  and  OG1_1361
REMARK  422  A    between atoms: CB_1360  and  CG2_1362
REMARK  423  A    between atoms: N_1370  and  CA_1371
REMARK  424  A    between atoms: CA_1371  and  C_1372
REMARK  425  A    between atoms: CA_1371  and  CB_1374
REMARK  426  A    between atoms: CB_1374  and  CG_1375
REMARK  427  A    between atoms: CG_1375  and  CD_1376
REMARK  428  A    between atoms: CA_1388  and  C_1389
REMARK  429  A    between atoms: N_1401  and  CA_1402
REMARK  430  A    between atoms: CA_1402  and  C_1403
REMARK  431  A    between atoms: CA_1402  and  CB_1405
REMARK  432  A    between atoms: CB_1405  and  CG_1406
REMARK  433  A    between atoms: N_1418  and  CA_1419
REMARK  434  A    between atoms: CA_1419  and  C_1420
REMARK  435  A    between atoms: CA_1419  and  CB_1422
REMARK  436  A    between atoms: CB_1422  and  CG_1423
REMARK  437  A    between atoms: N_1438  and  CA_1439
REMARK  438  A    between atoms: CA_1439  and  C_1440
REMARK  439  A    between atoms: CA_1439  and  CB_1442
REMARK  440  A    between atoms: CB_1442  and  CG_1443
REMARK  441  A    between atoms: CG_1443  and  SD_1444
REMARK  442  A    between atoms: SD_1444  and  CE_1445
REMARK  443  A    between atoms: N_1455  and  CA_1456
REMARK  444  A    between atoms: CA_1456  and  C_1457
REMARK  445  A    between atoms: CA_1456  and  CB_1459
REMARK  446  A    between atoms: N_1465  and  CA_1466
REMARK  447  A    between atoms: CA_1466  and  C_1467
REMARK  448  A    between atoms: CA_1466  and  CB_1469
REMARK  449  A    between atoms: CB_1469  and  CG_1470
REMARK  450  A    between atoms: CG_1470  and  CD1_1471
REMARK  451  A    between atoms: CG_1470  and  CD2_1472
REMARK  452  A    between atoms: N_1484  and  CA_1485
REMARK  453  A    between atoms: CA_1485  and  C_1486
REMARK  454  A    between atoms: CA_1485  and  CB_1488
REMARK  455  A    between atoms: CB_1488  and  CG_1489
REMARK  456  A    between atoms: CG_1489  and  CD1_1490
REMARK  457  A    between atoms: CG_1489  and  CD2_1491
REMARK  458  A    between atoms: N_1503  and  CA_1504
REMARK  459  A    between atoms: CA_1504  and  C_1505
REMARK  460  A    between atoms: CA_1504  and  CB_1507
REMARK  461  A    between atoms: CB_1507  and  CG_1508
REMARK  462  A    between atoms: CG_1508  and  CD_1509
REMARK  463  A    between atoms: N_1520  and  CA_1521
REMARK  464  A    between atoms: CA_1521  and  C_1522
REMARK  465  A    between atoms: CA_1521  and  CB_1524
REMARK  466  A    between atoms: CB_1524  and  OG1_1525
REMARK  467  A    between atoms: CB_1524  and  CG2_1526
REMARK  468  A    between atoms: N_1534  and  CA_1535
REMARK  469  A    between atoms: CA_1535  and  C_1536
REMARK  470  A    between atoms: CA_1535  and  CB_1538
REMARK  471  A    between atoms: CB_1538  and  CG_1539
REMARK  472  A    between atoms: N_1551  and  CA_1552
REMARK  473  A    between atoms: CA_1552  and  C_1553
REMARK  474  A    between atoms: CA_1552  and  CB_1555
REMARK  475  A    between atoms: CB_1555  and  CG_1556
REMARK  476  A    between atoms: CG_1556  and  OD2_1558
REMARK  477  A    between atoms: N_1564  and  CA_1565
REMARK  478  A    between atoms: CA_1565  and  C_1566
REMARK  479  A    between atoms: CA_1565  and  CB_1568
REMARK  480  A    between atoms: CB_1568  and  CG1_1569
REMARK  481  A    between atoms: CB_1568  and  CG2_1570
REMARK  482  A    between atoms: N_1580  and  CA_1581
REMARK  483  A    between atoms: CA_1581  and  C_1582
REMARK  484  A    between atoms: CA_1581  and  CB_1584
REMARK  485  A    between atoms: CB_1584  and  CG1_1585
REMARK  486  A    between atoms: CB_1584  and  CG2_1586
REMARK  487  A    between atoms: N_1596  and  CA_1597
REMARK  488  A    between atoms: CA_1597  and  C_1598
REMARK  489  A    between atoms: CA_1597  and  CB_1600
REMARK  490  A    between atoms: N_1606  and  CA_1607
REMARK  491  A    between atoms: CA_1607  and  C_1608
REMARK  492  A    between atoms: CA_1607  and  CB_1610
REMARK  493  A    between atoms: CB_1610  and  CG_1611
REMARK  494  A    between atoms: N_1623  and  CA_1624
REMARK  495  A    between atoms: CA_1624  and  C_1625
REMARK  496  A    between atoms: CA_1624  and  CB_1627
REMARK  497  A    between atoms: CB_1627  and  CG_1628
REMARK  498  A    between atoms: CG_1628  and  CD_1629
REMARK  499  A    between atoms: CD_1629  and  OE2_1631
REMARK  500  A    between atoms: N_1639  and  CA_1640
REMARK  501  A    between atoms: CA_1640  and  C_1641
REMARK  502  A    between atoms: CA_1640  and  CB_1643
REMARK  503  A    between atoms: CB_1643  and  CG1_1644
REMARK  504  A    between atoms: CB_1643  and  CG2_1645
REMARK  505  A    between atoms: N_1655  and  CA_1656
REMARK  506  A    between atoms: CA_1656  and  C_1657
REMARK  507  A    between atoms: CA_1656  and  CB_1659
REMARK  508  A    between atoms: CB_1659  and  CG_1660
REMARK  509  A    between atoms: CZ_1665  and  OH_1666
REMARK  510  A    between atoms: N_1676  and  CA_1677
REMARK  511  A    between atoms: CA_1677  and  C_1678
REMARK  512  A    between atoms: CA_1677  and  CB_1680
REMARK  513  A    between atoms: CB_1680  and  OG_1681
REMARK  514  A    between atoms: N_1687  and  CA_1688
REMARK  515  A    between atoms: CA_1688  and  C_1689
REMARK  516  A    between atoms: CA_1688  and  CB_1691
REMARK  517  A    between atoms: CB_1691  and  CG_1692
REMARK  518  A    between atoms: CG_1692  and  OD2_1694
REMARK  519  A    between atoms: N_1700  and  CA_1701
REMARK  520  A    between atoms: CA_1701  and  C_1702
REMARK  521  A    between atoms: CA_1701  and  CB_1704
REMARK  522  A    between atoms: CB_1704  and  CG_1705
REMARK  523  A    between atoms: CG_1705  and  CD_1706
REMARK  524  A    between atoms: CD_1706  and  OE2_1708
REMARK  525  A    between atoms: N_1716  and  CA_1717
REMARK  526  A    between atoms: CA_1717  and  C_1718
REMARK  527  A    between atoms: CA_1717  and  CB_1720
REMARK                            x       y       z     vdW  Elec       q    Type
REMARK                         _______ _______ _______ _____ _____    ______ ____
ROOT
ATOM      1  C   ASN A  26     -27.971  -3.806   7.607  0.00  0.00    +0.000 C 
ATOM      2  O   ASN A  26     -27.066  -3.974   6.790  0.00  0.00    +0.000 OA
ATOM      3  N   ASN A  27     -27.953  -2.896   8.569  0.00  0.00    +0.000 N 
ATOM      4  H   ASN A  27     -28.693  -2.766   9.229  0.00  0.00    +0.000 HD
ENDROOT
BRANCH   3   5
ATOM      5  CA  ASN A  27     -26.821  -2.001   8.733  0.00  0.00    +0.000 C 
BRANCH   5   6
ATOM      6  C   ASN A  27     -25.560  -2.823   9.009  0.00  0.00    +0.000 C 
ATOM      7  O   ASN A  27     -24.447  -2.305   8.932  0.00  0.00    +0.000 OA
ATOM      8  N   ALA A  28     -25.778  -4.092   9.326  0.00  0.00    +0.000 N 
ATOM      9  H   ALA A  28     -26.687  -4.504   9.386  0.00  0.00    +0.000 HD
BRANCH   8  10
ATOM     10  CA  ALA A  28     -24.674  -4.991   9.613  0.00  0.00    +0.000 C 
ATOM     11  CB  ALA A  28     -25.218  -6.393   9.894  0.00  0.00    +0.000 C 
BRANCH  10  12
ATOM     12  C   ALA A  28     -23.687  -4.971   8.444  0.00  0.00    +0.000 C 
ATOM     13  O   ALA A  28     -22.493  -4.757   8.639  0.00  0.00    +0.000 OA
ATOM     14  N   LYS A  29     -24.225  -5.197   7.254  0.00  0.00    +0.000 N 
ATOM     15  H   LYS A  29     -25.198  -5.370   7.104  0.00  0.00    +0.000 HD
BRANCH  14  16
ATOM     16  CA  LYS A  29     -23.406  -5.208   6.053  0.00  0.00    +0.000 C 
BRANCH  16  17
ATOM     17  C   LYS A  29     -22.990  -3.775   5.712  0.00  0.00    +0.000 C 
ATOM     18  O   LYS A  29     -21.830  -3.522   5.390  0.00  0.00    +0.000 OA
ATOM     19  N   LEU A  30     -23.960  -2.875   5.794  0.00  0.00    +0.000 N 
ATOM     20  H   LEU A  30     -24.901  -3.090   6.058  0.00  0.00    +0.000 HD
BRANCH  19  21
ATOM     21  CA  LEU A  30     -23.709  -1.476   5.498  0.00  0.00    +0.000 C 
BRANCH  21  22
ATOM     22  C   LEU A  30     -22.544  -0.978   6.356  0.00  0.00    +0.000 C 
ATOM     23  O   LEU A  30     -21.622  -0.342   5.847  0.00  0.00    +0.000 OA
ATOM     24  N   ALA A  31     -22.623  -1.287   7.642  0.00  0.00    +0.000 N 
ATOM     25  H   ALA A  31     -23.377  -1.803   8.047  0.00  0.00    +0.000 HD
BRANCH  24  26
ATOM     26  CA  ALA A  31     -21.586  -0.879   8.574  0.00  0.00    +0.000 C 
ATOM     27  CB  ALA A  31     -22.041  -1.176  10.004  0.00  0.00    +0.000 C 
BRANCH  26  28
ATOM     28  C   ALA A  31     -20.279  -1.588   8.218  0.00  0.00    +0.000 C 
ATOM     29  O   ALA A  31     -19.209  -0.982   8.256  0.00  0.00    +0.000 OA
ATOM     30  N   SER A  32     -20.407  -2.864   7.881  0.00  0.00    +0.000 N 
ATOM     31  H   SER A  32     -21.281  -3.349   7.854  0.00  0.00    +0.000 HD
BRANCH  30  32
ATOM     32  CA  SER A  32     -19.249  -3.663   7.520  0.00  0.00    +0.000 C 
BRANCH  32  33
ATOM     33  C   SER A  32     -18.469  -2.974   6.398  0.00  0.00    +0.000 C 
ATOM     34  O   SER A  32     -17.243  -3.061   6.346  0.00  0.00    +0.000 OA
ATOM     35  N   LEU A  33     -19.211  -2.305   5.528  0.00  0.00    +0.000 N 
ATOM     36  H   LEU A  33     -20.207  -2.240   5.578  0.00  0.00    +0.000 HD
BRANCH  35  37
ATOM     37  CA  LEU A  33     -18.605  -1.602   4.411  0.00  0.00    +0.000 C 
BRANCH  37  38
ATOM     38  C   LEU A  33     -17.801  -0.413   4.938  0.00  0.00    +0.000 C 
ATOM     39  O   LEU A  33     -16.801  -0.020   4.339  0.00  0.00    +0.000 OA
ATOM     40  N   GLN A  34     -18.267   0.129   6.053  0.00  0.00    +0.000 N 
ATOM     41  H   GLN A  34     -19.083  -0.196   6.534  0.00  0.00    +0.000 HD
BRANCH  40  42
ATOM     42  CA  GLN A  34     -17.604   1.266   6.668  0.00  0.00    +0.000 C 
BRANCH  42  43
ATOM     43  C   GLN A  34     -16.260   0.840   7.260  0.00  0.00    +0.000 C 
ATOM     44  O   GLN A  34     -15.284   1.586   7.197  0.00  0.00    +0.000 OA
ATOM     45  N   GLN A  35     -16.251  -0.359   7.825  0.00  0.00    +0.000 N 
ATOM     46  H   GLN A  35     -17.049  -0.960   7.872  0.00  0.00    +0.000 HD
BRANCH  45  47
ATOM     47  CA  GLN A  35     -15.043  -0.894   8.428  0.00  0.00    +0.000 C 
BRANCH  47  48
ATOM     48  C   GLN A  35     -13.937  -1.020   7.379  0.00  0.00    +0.000 C 
ATOM     49  O   GLN A  35     -12.757  -0.867   7.693  0.00  0.00    +0.000 OA
ATOM     50  N   VAL A  36     -14.356  -1.300   6.154  0.00  0.00    +0.000 N 
ATOM     51  H   VAL A  36     -15.318  -1.423   5.907  0.00  0.00    +0.000 HD
BRANCH  50  52
ATOM     52  CA  VAL A  36     -13.416  -1.449   5.056  0.00  0.00    +0.000 C 
BRANCH  52  53
ATOM     53  C   VAL A  36     -13.168  -0.082   4.414  0.00  0.00    +0.000 C 
ATOM     54  O   VAL A  36     -12.043   0.229   4.021  0.00  0.00    +0.000 OA
ATOM     55  N   LEU A  37     -14.236   0.698   4.326  0.00  0.00    +0.000 N 
ATOM     56  H   LEU A  37     -15.146   0.437   4.646  0.00  0.00    +0.000 HD
BRANCH  55  57
ATOM     57  CA  LEU A  37     -14.148   2.022   3.737  0.00  0.00    +0.000 C 
BRANCH  57  58
ATOM     58  C   LEU A  37     -13.321   2.928   4.652  0.00  0.00    +0.000 C 
ATOM     59  O   LEU A  37     -12.529   3.741   4.176  0.00  0.00    +0.000 OA
ATOM     60  N   GLN A  38     -13.533   2.757   5.949  0.00  0.00    +0.000 N 
ATOM     61  H   GLN A  38     -14.178   2.093   6.327  0.00  0.00    +0.000 HD
BRANCH  60  62
ATOM     62  CA  GLN A  38     -12.817   3.549   6.935  0.00  0.00    +0.000 C 
BRANCH  62  63
ATOM     63  C   GLN A  38     -11.536   2.830   7.364  0.00  0.00    +0.000 C 
ATOM     64  O   GLN A  38     -10.844   3.281   8.276  0.00  0.00    +0.000 OA
ATOM     65  N   SER A  39     -11.260   1.726   6.686  0.00  0.00    +0.000 N 
ATOM     66  H   SER A  39     -11.829   1.366   5.948  0.00  0.00    +0.000 HD
BRANCH  65  67
ATOM     67  CA  SER A  39     -10.075   0.941   6.987  0.00  0.00    +0.000 C 
BRANCH  67  68
ATOM     68  C   SER A  39      -8.817   1.781   6.752  0.00  0.00    +0.000 C 
ATOM     69  O   SER A  39      -8.758   2.565   5.805  0.00  0.00    +0.000 OA
ATOM     70  N   GLU A  40      -7.843   1.589   7.628  0.00  0.00    +0.000 N 
ATOM     71  H   GLU A  40      -7.899   0.950   8.396  0.00  0.00    +0.000 HD
BRANCH  70  72
ATOM     72  CA  GLU A  40      -6.591   2.319   7.528  0.00  0.00    +0.000 C 
BRANCH  72  73
ATOM     73  C   GLU A  40      -5.723   1.735   6.413  0.00  0.00    +0.000 C 
ATOM     74  O   GLU A  40      -4.981   2.460   5.753  0.00  0.00    +0.000 OA
ATOM     75  N   PHE A  41      -5.845   0.427   6.235  0.00  0.00    +0.000 N 
ATOM     76  H   PHE A  41      -6.453  -0.157   6.776  0.00  0.00    +0.000 HD
BRANCH  75  77
ATOM     77  CA  PHE A  41      -5.082  -0.265   5.211  0.00  0.00    +0.000 C 
BRANCH  77  78
ATOM     78  C   PHE A  41      -5.290   0.383   3.841  0.00  0.00    +0.000 C 
ATOM     79  O   PHE A  41      -4.390   0.371   3.002  0.00  0.00    +0.000 OA
ATOM     80  N   PHE A  42      -6.480   0.935   3.657  0.00  0.00    +0.000 N 
ATOM     81  H   PHE A  42      -7.205   0.942   4.345  0.00  0.00    +0.000 HD
BRANCH  80  82
ATOM     82  CA  PHE A  42      -6.817   1.587   2.403  0.00  0.00    +0.000 C 
BRANCH  82  83
ATOM     83  C   PHE A  42      -5.831   2.714   2.089  0.00  0.00    +0.000 C 
ATOM     84  O   PHE A  42      -5.355   2.830   0.960  0.00  0.00    +0.000 OA
ATOM     85  N   GLY A  43      -5.553   3.515   3.107  0.00  0.00    +0.000 N 
ATOM     86  H   GLY A  43      -5.944   3.414   4.021  0.00  0.00    +0.000 HD
BRANCH  85  87
ATOM     87  CA  GLY A  43      -4.633   4.628   2.953  0.00  0.00    +0.000 C 
BRANCH  87  88
ATOM     88  C   GLY A  43      -3.180   4.145   2.975  0.00  0.00    +0.000 C 
ATOM     89  O   GLY A  43      -2.335   4.676   2.256  0.00  0.00    +0.000 OA
ATOM     90  N   ALA A  44      -2.934   3.147   3.810  0.00  0.00    +0.000 N 
ATOM     91  H   ALA A  44      -3.628   2.721   4.392  0.00  0.00    +0.000 HD
BRANCH  90  92
ATOM     92  CA  ALA A  44      -1.600   2.587   3.936  0.00  0.00    +0.000 C 
ATOM     93  CB  ALA A  44      -1.572   1.587   5.093  0.00  0.00    +0.000 C 
BRANCH  92  94
ATOM     94  C   ALA A  44      -1.191   1.951   2.606  0.00  0.00    +0.000 C 
ATOM     95  O   ALA A  44      -0.065   2.135   2.146  0.00  0.00    +0.000 OA
ATOM     96  N   VAL A  45      -2.128   1.217   2.024  0.00  0.00    +0.000 N 
ATOM     97  H   VAL A  45      -3.042   1.074   2.406  0.00  0.00    +0.000 HD
BRANCH  96  98
ATOM     98  CA  VAL A  45      -1.880   0.553   0.756  0.00  0.00    +0.000 C 
BRANCH  98  99
ATOM     99  C   VAL A  45      -1.965   1.577  -0.377  0.00  0.00    +0.000 C 
ATOM    100  O   VAL A  45      -1.149   1.559  -1.297  0.00  0.00    +0.000 OA
ATOM    101  N   ARG A  46      -2.959   2.447  -0.272  0.00  0.00    +0.000 N 
ATOM    102  H   ARG A  46      -3.618   2.454   0.480  0.00  0.00    +0.000 HD
BRANCH 101 103
ATOM    103  CA  ARG A  46      -3.162   3.476  -1.276  0.00  0.00    +0.000 C 
BRANCH 103 104
ATOM    104  C   ARG A  46      -1.896   4.325  -1.431  0.00  0.00    +0.000 C 
ATOM    105  O   ARG A  46      -1.627   4.854  -2.507  0.00  0.00    +0.000 OA
ATOM    106  N   GLU A  47      -1.154   4.425  -0.337  0.00  0.00    +0.000 N 
ATOM    107  H   GLU A  47      -1.380   3.991   0.534  0.00  0.00    +0.000 HD
BRANCH 106 108
ATOM    108  CA  GLU A  47       0.076   5.199  -0.338  0.00  0.00    +0.000 C 
BRANCH 108 109
ATOM    109  C   GLU A  47       1.106   4.557  -1.267  0.00  0.00    +0.000 C 
ATOM    110  O   GLU A  47       1.804   5.253  -2.003  0.00  0.00    +0.000 OA
ATOM    111  N   VAL A  48       1.171   3.235  -1.205  0.00  0.00    +0.000 N 
ATOM    112  H   VAL A  48       0.602   2.676  -0.603  0.00  0.00    +0.000 HD
BRANCH 111 113
ATOM    113  CA  VAL A  48       2.106   2.491  -2.032  0.00  0.00    +0.000 C 
BRANCH 113 114
ATOM    114  C   VAL A  48       1.684   2.605  -3.499  0.00  0.00    +0.000 C 
ATOM    115  O   VAL A  48       2.519   2.828  -4.373  0.00  0.00    +0.000 OA
ATOM    116  N   TYR A  49       0.387   2.446  -3.721  0.00  0.00    +0.000 N 
ATOM    117  H   TYR A  49      -0.285   2.265  -3.004  0.00  0.00    +0.000 HD
BRANCH 116 118
ATOM    118  CA  TYR A  49      -0.157   2.528  -5.067  0.00  0.00    +0.000 C 
BRANCH 118 119
ATOM    119  C   TYR A  49       0.302   3.809  -5.766  0.00  0.00    +0.000 C 
ATOM    120  O   TYR A  49       0.731   3.772  -6.919  0.00  0.00    +0.000 OA
ATOM    121  N   GLU A  50       0.196   4.913  -5.040  0.00  0.00    +0.000 N 
ATOM    122  H   GLU A  50      -0.153   4.933  -4.103  0.00  0.00    +0.000 HD
BRANCH 121 123
ATOM    123  CA  GLU A  50       0.595   6.203  -5.576  0.00  0.00    +0.000 C 
BRANCH 123 124
ATOM    124  C   GLU A  50       2.110   6.248  -5.781  0.00  0.00    +0.000 C 
ATOM    125  O   GLU A  50       2.592   6.813  -6.761  0.00  0.00    +0.000 OA
ATOM    126  N   THR A  51       2.821   5.642  -4.839  0.00  0.00    +0.000 N 
ATOM    127  H   THR A  51       2.422   5.184  -4.045  0.00  0.00    +0.000 HD
BRANCH 126 128
ATOM    128  CA  THR A  51       4.272   5.606  -4.904  0.00  0.00    +0.000 C 
BRANCH 128 129
ATOM    129  C   THR A  51       4.731   4.869  -6.163  0.00  0.00    +0.000 C 
ATOM    130  O   THR A  51       5.590   5.357  -6.895  0.00  0.00    +0.000 OA
ATOM    131  N   VAL A  52       4.139   3.703  -6.377  0.00  0.00    +0.000 N 
ATOM    132  H   VAL A  52       3.441   3.312  -5.777  0.00  0.00    +0.000 HD
BRANCH 131 133
ATOM    133  CA  VAL A  52       4.476   2.892  -7.535  0.00  0.00    +0.000 C 
BRANCH 133 134
ATOM    134  C   VAL A  52       4.032   3.618  -8.806  0.00  0.00    +0.000 C 
ATOM    135  O   VAL A  52       4.758   3.634  -9.801  0.00  0.00    +0.000 OA
ATOM    136  N   TYR A  53       2.844   4.200  -8.734  0.00  0.00    +0.000 N 
ATOM    137  H   TYR A  53       2.262   4.182  -7.922  0.00  0.00    +0.000 HD
BRANCH 136 138
ATOM    138  CA  TYR A  53       2.297   4.926  -9.867  0.00  0.00    +0.000 C 
BRANCH 138 139
ATOM    139  C   TYR A  53       2.983   6.283 -10.033  0.00  0.00    +0.000 C 
ATOM    140  O   TYR A  53       3.248   6.715 -11.154  0.00  0.00    +0.000 OA
ATOM    141  OXT TYR A  53       3.145   6.525  -8.788  0.00  0.00    +0.000 OA
ENDBRANCH 138 139
BRANCH 138 142
ATOM    142  CB  TYR A  53       0.818   5.153  -9.547  0.00  0.00    +0.000 C 
BRANCH 142 143
ATOM    143  CG  TYR A  53      -0.048   5.444 -10.774  0.00  0.00    +0.000 A 
ATOM    144  CD1 TYR A  53      -1.046   4.563 -11.140  0.00  0.00    +0.000 A 
ATOM    145  CD2 TYR A  53       0.171   6.586 -11.518  0.00  0.00    +0.000 A 
ATOM    146  CE1 TYR A  53      -1.860   4.836 -12.295  0.00  0.00    +0.000 A 
ATOM    147  CE2 TYR A  53      -0.644   6.859 -12.673  0.00  0.00    +0.000 A 
ATOM    148  CZ  TYR A  53      -1.619   5.970 -13.005  0.00  0.00    +0.000 A 
BRANCH 148 149
ATOM    149  OH  TYR A  53      -2.388   6.229 -14.097  0.00  0.00    +0.000 OA
ATOM    150  HH  TYR A  53      -1.836   6.163 -14.927  0.00  0.00    +0.000 HD
ENDBRANCH 148 149
ENDBRANCH 142 143
ENDBRANCH 138 142
ENDBRANCH 136 138
ENDBRANCH 133 134
BRANCH 133 151
ATOM    151  CB  VAL A  52       3.860   1.499  -7.396  0.00  0.00    +0.000 C 
ATOM    152  CG1 VAL A  52       2.333   1.578  -7.341  0.00  0.00    +0.000 C 
ATOM    153  CG2 VAL A  52       4.320   0.580  -8.529  0.00  0.00    +0.000 C 
ENDBRANCH 133 151
ENDBRANCH 131 133
ENDBRANCH 128 129
BRANCH 128 154
ATOM    154  CB  THR A  51       4.788   4.976  -3.609  0.00  0.00    +0.000 C 
ATOM    155  CG2 THR A  51       6.303   4.765  -3.624  0.00  0.00    +0.000 C 
BRANCH 154 156
ATOM    156  OG1 THR A  51       4.587   5.989  -2.627  0.00  0.00    +0.000 OA
ATOM    157  HG1 THR A  51       5.037   5.731  -1.772  0.00  0.00    +0.000 HD
ENDBRANCH 154 156
ENDBRANCH 128 154
ENDBRANCH 126 128
ENDBRANCH 123 124
BRANCH 123 158
ATOM    158  CB  GLU A  50       0.131   7.342  -4.665  0.00  0.00    +0.000 C 
BRANCH 158 159
ATOM    159  CG  GLU A  50       0.378   8.701  -5.320  0.00  0.00    +0.000 C 
BRANCH 159 160
ATOM    160  CD  GLU A  50       1.653   9.350  -4.776  0.00  0.00    +0.000 C 
ATOM    161  OE1 GLU A  50       1.758   9.588  -3.563  0.00  0.00    +0.000 OA
BRANCH 160 162
ATOM    162  OE2 GLU A  50       2.556   9.604  -5.662  0.00  0.00    +0.000 OA
ATOM    163  HE2 GLU A  50       3.458   9.626  -5.233  0.00  0.00    +0.000 HD
ENDBRANCH 160 162
ENDBRANCH 159 160
ENDBRANCH 158 159
ENDBRANCH 123 158
ENDBRANCH 121 123
ENDBRANCH 118 119
BRANCH 118 164
ATOM    164  CB  TYR A  49      -1.677   2.564  -4.905  0.00  0.00    +0.000 C 
BRANCH 164 165
ATOM    165  CG  TYR A  49      -2.430   1.681  -5.903  0.00  0.00    +0.000 A 
ATOM    166  CD1 TYR A  49      -2.409   0.308  -5.761  0.00  0.00    +0.000 A 
ATOM    167  CD2 TYR A  49      -3.130   2.256  -6.944  0.00  0.00    +0.000 A 
ATOM    168  CE1 TYR A  49      -3.118  -0.523  -6.699  0.00  0.00    +0.000 A 
ATOM    169  CE2 TYR A  49      -3.839   1.425  -7.882  0.00  0.00    +0.000 A 
ATOM    170  CZ  TYR A  49      -3.798   0.076  -7.712  0.00  0.00    +0.000 A 
BRANCH 170 171
ATOM    171  OH  TYR A  49      -4.468  -0.710  -8.599  0.00  0.00    +0.000 OA
ATOM    172  HH  TYR A  49      -5.373  -0.325  -8.779  0.00  0.00    +0.000 HD
ENDBRANCH 170 171
ENDBRANCH 164 165
ENDBRANCH 118 164
ENDBRANCH 116 118
ENDBRANCH 113 114
BRANCH 113 173
ATOM    173  CB  VAL A  48       2.197   1.043  -1.547  0.00  0.00    +0.000 C 
ATOM    174  CG1 VAL A  48       3.028   0.194  -2.509  0.00  0.00    +0.000 C 
ATOM    175  CG2 VAL A  48       2.762   0.975  -0.126  0.00  0.00    +0.000 C 
ENDBRANCH 113 173
ENDBRANCH 111 113
ENDBRANCH 108 109
BRANCH 108 176
ATOM    176  CB  GLU A  47       0.632   5.344   1.081  0.00  0.00    +0.000 C 
BRANCH 176 177
ATOM    177  CG  GLU A  47       1.844   6.277   1.102  0.00  0.00    +0.000 C 
BRANCH 177 178
ATOM    178  CD  GLU A  47       1.484   7.632   1.714  0.00  0.00    +0.000 C 
ATOM    179  OE1 GLU A  47       0.883   7.683   2.796  0.00  0.00    +0.000 OA
BRANCH 178 180
ATOM    180  OE2 GLU A  47       1.850   8.658   1.022  0.00  0.00    +0.000 OA
ATOM    181  HE2 GLU A  47       2.790   8.537   0.703  0.00  0.00    +0.000 HD
ENDBRANCH 178 180
ENDBRANCH 177 178
ENDBRANCH 176 177
ENDBRANCH 108 176
ENDBRANCH 106 108
ENDBRANCH 103 104
BRANCH 103 182
ATOM    182  CB  ARG A  46      -4.334   4.387  -0.904  0.00  0.00    +0.000 C 
BRANCH 182 183
ATOM    183  CG  ARG A  46      -4.384   5.615  -1.813  0.00  0.00    +0.000 C 
BRANCH 183 184
ATOM    184  CD  ARG A  46      -3.661   6.802  -1.172  0.00  0.00    +0.000 C 
BRANCH 184 185
ATOM    185  NE  ARG A  46      -3.456   7.872  -2.174  0.00  0.00    +0.000 N 
ATOM    186  CZ  ARG A  46      -2.762   9.006  -1.938  0.00  0.00    +0.000 C 
ATOM    187  NH1 ARG A  46      -2.200   9.228  -0.732  0.00  0.00    +0.000 N 
ATOM    188  NH2 ARG A  46      -2.642   9.895  -2.907  0.00  0.00    +0.000 N 
ATOM    189 HH22 ARG A  46      -3.121   9.879  -4.000  0.00  0.00    +0.000 HD
ATOM    190  HE  ARG A  46      -3.856   7.747  -3.081  0.00  0.00    +0.000 HD
ATOM    191 HH11 ARG A  46      -2.296   8.548  -0.003  0.00  0.00    +0.000 HD
ATOM    192 HH12 ARG A  46      -1.687  10.070  -0.565  0.00  0.00    +0.000 HD
ATOM    193 HH21 ARG A  46      -2.146  10.758  -2.816  0.00  0.00    +0.000 HD
ENDBRANCH 184 185
ENDBRANCH 183 184
ENDBRANCH 182 183
ENDBRANCH 103 182
ENDBRANCH 101 103
ENDBRANCH  98  99
BRANCH  98 194
ATOM    194  CB  VAL A  45      -2.851  -0.617   0.579  0.00  0.00    +0.000 C 
ATOM    195  CG1 VAL A  45      -2.863  -1.103  -0.872  0.00  0.00    +0.000 C 
ATOM    196  CG2 VAL A  45      -2.512  -1.760   1.537  0.00  0.00    +0.000 C 
ENDBRANCH  98 194
ENDBRANCH  96  98
ENDBRANCH  92  94
ENDBRANCH  90  92
ENDBRANCH  87  88
ENDBRANCH  85  87
ENDBRANCH  82  83
BRANCH  82 197
ATOM    197  CB  PHE A  42      -8.217   2.182   2.571  0.00  0.00    +0.000 C 
BRANCH 197 198
ATOM    198  CG  PHE A  42      -9.273   1.553   1.660  0.00  0.00    +0.000 A 
ATOM    199  CD1 PHE A  42      -8.932   1.129   0.414  0.00  0.00    +0.000 A 
ATOM    200  CD2 PHE A  42     -10.555   1.420   2.097  0.00  0.00    +0.000 A 
ATOM    201  CE1 PHE A  42      -9.912   0.547  -0.431  0.00  0.00    +0.000 A 
ATOM    202  CE2 PHE A  42     -11.535   0.837   1.250  0.00  0.00    +0.000 A 
ATOM    203  CZ  PHE A  42     -11.192   0.412   0.004  0.00  0.00    +0.000 A 
ENDBRANCH 197 198
ENDBRANCH  82 197
ENDBRANCH  80  82
ENDBRANCH  77  78
BRANCH  77 204
ATOM    204  CB  PHE A  41      -5.597  -1.705   5.165  0.00  0.00    +0.000 C 
BRANCH 204 205
ATOM    205  CG  PHE A  41      -6.877  -1.881   4.346  0.00  0.00    +0.000 A 
ATOM    206  CD1 PHE A  41      -8.030  -2.262   4.960  0.00  0.00    +0.000 A 
ATOM    207  CD2 PHE A  41      -6.863  -1.657   3.005  0.00  0.00    +0.000 A 
ATOM    208  CE1 PHE A  41      -9.218  -2.426   4.200  0.00  0.00    +0.000 A 
ATOM    209  CE2 PHE A  41      -8.053  -1.821   2.245  0.00  0.00    +0.000 A 
ATOM    210  CZ  PHE A  41      -9.204  -2.202   2.859  0.00  0.00    +0.000 A 
ENDBRANCH 204 205
ENDBRANCH  77 204
ENDBRANCH  75  77
ENDBRANCH  72  73
BRANCH  72 211
ATOM    211  CB  GLU A  40      -5.844   2.314   8.864  0.00  0.00    +0.000 C 
BRANCH 211 212
ATOM    212  CG  GLU A  40      -5.356   0.908   9.212  0.00  0.00    +0.000 C 
BRANCH 212 213
ATOM    213  CD  GLU A  40      -4.676   0.888  10.583  0.00  0.00    +0.000 C 
ATOM    214  OE1 GLU A  40      -3.486   1.220  10.689  0.00  0.00    +0.000 OA
BRANCH 213 215
ATOM    215  OE2 GLU A  40      -5.428   0.513  11.561  0.00  0.00    +0.000 OA
ATOM    216  HE2 GLU A  40      -5.017   0.779  12.432  0.00  0.00    +0.000 HD
ENDBRANCH 213 215
ENDBRANCH 212 213
ENDBRANCH 211 212
ENDBRANCH  72 211
ENDBRANCH  70  72
ENDBRANCH  67  68
BRANCH  67 217
ATOM    217  CB  SER A  39     -10.028  -0.332   6.141  0.00  0.00    +0.000 C 
BRANCH 217 218
ATOM    218  OG  SER A  39      -9.810  -0.049   4.760  0.00  0.00    +0.000 OA
ATOM    219  HG  SER A  39      -8.831  -0.078   4.556  0.00  0.00    +0.000 HD
ENDBRANCH 217 218
ENDBRANCH  67 217
ENDBRANCH  65  67
ENDBRANCH  62  63
BRANCH  62 220
ATOM    220  CB  GLN A  38     -13.706   3.854   8.142  0.00  0.00    +0.000 C 
BRANCH 220 221
ATOM    221  CG  GLN A  38     -13.561   2.774   9.217  0.00  0.00    +0.000 C 
BRANCH 221 222
ATOM    222  CD  GLN A  38     -14.496   3.045  10.396  0.00  0.00    +0.000 C 
ATOM    223  OE1 GLN A  38     -14.309   3.971  11.170  0.00  0.00    +0.000 OA
ATOM    224  NE2 GLN A  38     -15.510   2.191  10.492  0.00  0.00    +0.000 N 
ATOM    225 HE21 GLN A  38     -15.605   1.452   9.823  0.00  0.00    +0.000 HD
ATOM    226 HE22 GLN A  38     -16.176   2.285  11.231  0.00  0.00    +0.000 HD
ENDBRANCH 221 222
ENDBRANCH 220 221
ENDBRANCH  62 220
ENDBRANCH  60  62
ENDBRANCH  57  58
BRANCH  57 227
ATOM    227  CB  LEU A  37     -15.544   2.568   3.432  0.00  0.00    +0.000 C 
BRANCH 227 228
ATOM    228  CG  LEU A  37     -15.961   2.557   1.960  0.00  0.00    +0.000 C 
ATOM    229  CD1 LEU A  37     -15.567   3.863   1.269  0.00  0.00    +0.000 C 
ATOM    230  CD2 LEU A  37     -15.395   1.333   1.238  0.00  0.00    +0.000 C 
ENDBRANCH 227 228
ENDBRANCH  57 227
ENDBRANCH  55  57
ENDBRANCH  52  53
BRANCH  52 231
ATOM    231  CB  VAL A  36     -13.932  -2.492   4.063  0.00  0.00    +0.000 C 
ATOM    232  CG1 VAL A  36     -15.319  -2.113   3.541  0.00  0.00    +0.000 C 
ATOM    233  CG2 VAL A  36     -12.946  -2.685   2.908  0.00  0.00    +0.000 C 
ENDBRANCH  52 231
ENDBRANCH  50  52
ENDBRANCH  47  48
BRANCH  47 234
ATOM    234  CB  GLN A  35     -15.316  -2.240   9.103  0.00  0.00    +0.000 C 
BRANCH 234 235
ATOM    235  CG  GLN A  35     -16.681  -2.239   9.795  0.00  0.00    +0.000 C 
BRANCH 235 236
ATOM    236  CD  GLN A  35     -16.869  -0.975  10.636  0.00  0.00    +0.000 C 
ATOM    237  OE1 GLN A  35     -16.121  -0.694  11.557  0.00  0.00    +0.000 OA
ATOM    238  NE2 GLN A  35     -17.907  -0.230  10.267  0.00  0.00    +0.000 N 
ATOM    239 HE21 GLN A  35     -18.482  -0.518   9.500  0.00  0.00    +0.000 HD
ATOM    240 HE22 GLN A  35     -18.113   0.617  10.755  0.00  0.00    +0.000 HD
ENDBRANCH 235 236
ENDBRANCH 234 235
ENDBRANCH  47 234
ENDBRANCH  45  47
ENDBRANCH  42  43
BRANCH  42 241
ATOM    241  CB  GLN A  34     -18.494   1.911   7.733  0.00  0.00    +0.000 C 
BRANCH 241 242
ATOM    242  CG  GLN A  34     -19.919   2.106   7.212  0.00  0.00    +0.000 C 
BRANCH 242 243
ATOM    243  CD  GLN A  34     -20.757   2.922   8.199  0.00  0.00    +0.000 C 
ATOM    244  OE1 GLN A  34     -20.466   3.002   9.382  0.00  0.00    +0.000 OA
ATOM    245  NE2 GLN A  34     -21.810   3.520   7.650  0.00  0.00    +0.000 N 
ATOM    246 HE21 GLN A  34     -21.993   3.413   6.672  0.00  0.00    +0.000 HD
ATOM    247 HE22 GLN A  34     -22.419   4.077   8.214  0.00  0.00    +0.000 HD
ENDBRANCH 242 243
ENDBRANCH 241 242
ENDBRANCH  42 241
ENDBRANCH  40  42
ENDBRANCH  37  38
BRANCH  37 248
ATOM    248  CB  LEU A  33     -19.667  -1.219   3.378  0.00  0.00    +0.000 C 
BRANCH 248 249
ATOM    249  CG  LEU A  33     -19.408   0.072   2.597  0.00  0.00    +0.000 C 
ATOM    250  CD1 LEU A  33     -18.442  -0.176   1.437  0.00  0.00    +0.000 C 
ATOM    251  CD2 LEU A  33     -20.720   0.702   2.128  0.00  0.00    +0.000 C 
ENDBRANCH 248 249
ENDBRANCH  37 248
ENDBRANCH  35  37
ENDBRANCH  32  33
BRANCH  32 252
ATOM    252  CB  SER A  32     -19.663  -5.071   7.092  0.00  0.00    +0.000 C 
BRANCH 252 253
ATOM    253  OG  SER A  32     -20.367  -5.758   8.123  0.00  0.00    +0.000 OA
ATOM    254  HG  SER A  32     -19.800  -6.492   8.493  0.00  0.00    +0.000 HD
ENDBRANCH 252 253
ENDBRANCH  32 252
ENDBRANCH  30  32
ENDBRANCH  26  28
ENDBRANCH  24  26
ENDBRANCH  21  22
BRANCH  21 255
ATOM    255  CB  LEU A  30     -24.990  -0.655   5.665  0.00  0.00    +0.000 C 
BRANCH 255 256
ATOM    256  CG  LEU A  30     -24.887   0.829   5.308  0.00  0.00    +0.000 C 
ATOM    257  CD1 LEU A  30     -23.756   1.503   6.085  0.00  0.00    +0.000 C 
ATOM    258  CD2 LEU A  30     -24.737   1.020   3.796  0.00  0.00    +0.000 C 
ENDBRANCH 255 256
ENDBRANCH  21 255
ENDBRANCH  19  21
ENDBRANCH  16  17
BRANCH  16 259
ATOM    259  CB  LYS A  29     -24.135  -5.925   4.914  0.00  0.00    +0.000 C 
BRANCH 259 260
ATOM    260  CG  LYS A  29     -25.411  -5.176   4.523  0.00  0.00    +0.000 C 
BRANCH 260 261
ATOM    261  CD  LYS A  29     -26.466  -6.142   3.978  0.00  0.00    +0.000 C 
BRANCH 261 262
ATOM    262  CE  LYS A  29     -26.717  -7.289   4.957  0.00  0.00    +0.000 C 
BRANCH 262 263
ATOM    263  NZ  LYS A  29     -26.179  -8.557   4.419  0.00  0.00    +0.000 N 
ATOM    264  HZ3 LYS A  29     -25.410  -8.654   3.495  0.00  0.00    +0.000 HD
ATOM    265  HZ1 LYS A  29     -25.660  -9.077   5.117  0.00  0.00    +0.000 HD
ATOM    266  HZ2 LYS A  29     -26.915  -9.170   4.084  0.00  0.00    +0.000 HD
ENDBRANCH 262 263
ENDBRANCH 261 262
ENDBRANCH 260 261
ENDBRANCH 259 260
ENDBRANCH  16 259
ENDBRANCH  14  16
ENDBRANCH  10  12
ENDBRANCH   8  10
ENDBRANCH   5   6
BRANCH   5 267
ATOM    267  CB  ASN A  27     -27.035  -1.052   9.914  0.00  0.00    +0.000 C 
BRANCH 267 268
ATOM    268  CG  ASN A  27     -27.512  -1.816  11.151  0.00  0.00    +0.000 C 
ATOM    269  OD1 ASN A  27     -26.854  -2.714  11.650  0.00  0.00    +0.000 OA
ATOM    270  ND2 ASN A  27     -28.690  -1.410  11.617  0.00  0.00    +0.000 N 
ATOM    271 HD21 ASN A  27     -29.178  -0.666  11.159  0.00  0.00    +0.000 HD
ATOM    272 HD22 ASN A  27     -29.088  -1.849  12.422  0.00  0.00    +0.000 HD
ENDBRANCH 267 268
ENDBRANCH   5 267
ENDBRANCH   3   5
BRANCH   1 273
ATOM    273  CA  ASN A  26     -29.229  -4.674   7.561  0.00  0.00    +0.000 C 
BRANCH 273 276
ATOM    274  C   VAL A  25     -29.624  -3.352   5.575  0.00  0.00    +0.000 C 
ATOM    275  O   VAL A  25     -28.585  -2.708   5.705  0.00  0.00    +0.000 OA
ATOM    276  N   ASN A  26     -30.023  -4.309   6.400  0.00  0.00    +0.000 N 
ATOM    277  H   ASN A  26     -30.871  -4.828   6.287  0.00  0.00    +0.000 HD
BRANCH 274 278
ATOM    278  CA  VAL A  25     -30.566  -3.079   4.399  0.00  0.00    +0.000 C 
BRANCH 278 281
ATOM    279  C   GLU A  24     -32.956  -3.030   4.031  0.00  0.00    +0.000 C 
ATOM    280  O   GLU A  24     -32.842  -3.023   2.805  0.00  0.00    +0.000 OA
ATOM    281  N   VAL A  25     -31.937  -3.055   4.879  0.00  0.00    +0.000 N 
ATOM    282  H   VAL A  25     -32.039  -3.060   5.872  0.00  0.00    +0.000 HD
BRANCH 279 283
ATOM    283  CA  GLU A  24     -34.339  -3.006   4.682  0.00  0.00    +0.000 C 
BRANCH 283 286
ATOM    284  C   GLY A  23     -33.975  -1.677   6.669  0.00  0.00    +0.000 C 
ATOM    285  O   GLY A  23     -33.310  -2.551   7.223  0.00  0.00    +0.000 OA
ATOM    286  N   GLU A  24     -34.510  -1.793   5.462  0.00  0.00    +0.000 N 
ATOM    287  H   GLU A  24     -35.049  -1.077   5.018  0.00  0.00    +0.000 HD
BRANCH 284 288
ATOM    288  CA  GLY A  23     -34.239  -0.342   7.367  0.00  0.00    +0.000 C 
BRANCH 288 291
ATOM    289  C   THR A  22     -35.004   1.233   5.697  0.00  0.00    +0.000 C 
ATOM    290  O   THR A  22     -36.147   0.778   5.684  0.00  0.00    +0.000 OA
ATOM    291  N   GLY A  23     -34.023   0.773   6.460  0.00  0.00    +0.000 N 
ATOM    292  H   GLY A  23     -33.095   1.148   6.466  0.00  0.00    +0.000 HD
BRANCH 289 293
ATOM    293  CA  THR A  22     -34.625   2.408   4.795  0.00  0.00    +0.000 C 
BRANCH 293 296
ATOM    294  C   LYS A  21     -33.617   4.133   6.156  0.00  0.00    +0.000 C 
ATOM    295  O   LYS A  21     -34.703   4.577   6.532  0.00  0.00    +0.000 OA
ATOM    296  N   THR A  22     -33.470   3.107   5.333  0.00  0.00    +0.000 N 
ATOM    297  H   THR A  22     -32.584   2.753   5.033  0.00  0.00    +0.000 HD
BRANCH 294 298
ATOM    298  CA  LYS A  21     -32.311   4.768   6.640  0.00  0.00    +0.000 C 
BRANCH 298 301
ATOM    299  C   GLN A  20     -30.668   3.034   6.262  0.00  0.00    +0.000 C 
ATOM    300  O   GLN A  20     -31.051   2.359   7.216  0.00  0.00    +0.000 OA
ATOM    301  N   LYS A  21     -31.198   4.194   5.904  0.00  0.00    +0.000 N 
ATOM    302  H   LYS A  21     -30.880   4.738   5.126  0.00  0.00    +0.000 HD
BRANCH 299 303
ATOM    303  CA  GLN A  20     -29.503   2.558   5.392  0.00  0.00    +0.000 C 
BRANCH 303 306
ATOM    304  C   VAL A  19     -30.120   3.624   3.311  0.00  0.00    +0.000 C 
ATOM    305  O   VAL A  19     -31.162   2.981   3.202  0.00  0.00    +0.000 OA
ATOM    306  N   GLN A  20     -29.263   3.502   4.313  0.00  0.00    +0.000 N 
ATOM    307  H   GLN A  20     -28.417   4.029   4.394  0.00  0.00    +0.000 HD
BRANCH 304 308
ATOM    308  CA  VAL A  19     -29.732   4.658   2.251  0.00  0.00    +0.000 C 
BRANCH 308 311
ATOM    309  C   HIS A  18     -29.558   6.608   3.670  0.00  0.00    +0.000 C 
ATOM    310  O   HIS A  18     -30.757   6.608   3.945  0.00  0.00    +0.000 OA
ATOM    311  N   VAL A  19     -28.971   5.726   2.876  0.00  0.00    +0.000 N 
ATOM    312  H   VAL A  19     -27.994   5.732   2.657  0.00  0.00    +0.000 HD
BRANCH 309 313
ATOM    313  CA  HIS A  18     -28.628   7.672   4.254  0.00  0.00    +0.000 C 
BRANCH 313 316
ATOM    314  C   GLU A  17     -27.313   6.504   5.916  0.00  0.00    +0.000 C 
ATOM    315  O   GLU A  17     -28.232   6.479   6.735  0.00  0.00    +0.000 OA
ATOM    316  N   HIS A  18     -27.397   7.047   4.711  0.00  0.00    +0.000 N 
ATOM    317  H   HIS A  18     -26.646   7.063   4.052  0.00  0.00    +0.000 HD
BRANCH 314 318
ATOM    318  CA  GLU A  17     -25.956   5.885   6.256  0.00  0.00    +0.000 C 
BRANCH 318 321
ATOM    319  C   MET A  16     -25.530   4.761   4.156  0.00  0.00    +0.000 C 
ATOM    320  O   MET A  16     -26.506   4.021   4.267  0.00  0.00    +0.000 OA
ATOM    321  N   GLU A  17     -25.179   5.680   5.044  0.00  0.00    +0.000 N 
ATOM    322  H   GLU A  17     -24.384   6.279   4.945  0.00  0.00    +0.000 HD
BRANCH 319 323
ATOM    323  CA  MET A  16     -24.616   4.663   2.933  0.00  0.00    +0.000 C 
BRANCH 323 326
ATOM    324  C   LEU A  15     -25.303   6.788   2.004  0.00  0.00    +0.000 C 
ATOM    325  O   LEU A  15     -26.500   6.512   2.062  0.00  0.00    +0.000 OA
ATOM    326  N   MET A  16     -24.327   5.980   2.391  0.00  0.00    +0.000 N 
ATOM    327  H   MET A  16     -23.356   6.212   2.342  0.00  0.00    +0.000 HD
BRANCH 324 328
ATOM    328  CA  LEU A  15     -24.843   8.141   1.456  0.00  0.00    +0.000 C 
BRANCH 328 331
ATOM    329  C   GLU A  14     -24.016   8.952   3.579  0.00  0.00    +0.000 C 
ATOM    330  O   GLU A  14     -25.098   8.802   4.144  0.00  0.00    +0.000 OA
ATOM    331  N   LEU A  15     -23.789   8.670   2.306  0.00  0.00    +0.000 N 
ATOM    332  H   LEU A  15     -22.905   8.795   1.853  0.00  0.00    +0.000 HD
BRANCH 329 333
ATOM    333  CA  GLU A  14     -22.810   9.500   4.344  0.00  0.00    +0.000 C 
BRANCH 333 336
ATOM    334  C   LEU A  13     -21.481   7.528   4.784  0.00  0.00    +0.000 C 
ATOM    335  O   LEU A  13     -22.267   7.094   5.625  0.00  0.00    +0.000 OA
ATOM    336  N   GLU A  14     -21.646   8.662   4.118  0.00  0.00    +0.000 N 
ATOM    337  H   GLU A  14     -21.000   9.009   3.438  0.00  0.00    +0.000 HD
BRANCH 334 338
ATOM    338  CA  LEU A  13     -20.208   6.754   4.438  0.00  0.00    +0.000 C 
BRANCH 338 341
ATOM    339  C   ILE A  12     -20.441   7.039   2.047  0.00  0.00    +0.000 C 
ATOM    340  O   ILE A  12     -21.558   6.526   2.019  0.00  0.00    +0.000 OA
ATOM    341  N   LEU A  13     -19.714   7.195   3.145  0.00  0.00    +0.000 N 
ATOM    342  H   LEU A  13     -18.805   7.612   3.159  0.00  0.00    +0.000 HD
BRANCH 339 343
ATOM    343  CA  ILE A  12     -19.788   7.550   0.761  0.00  0.00    +0.000 C 
BRANCH 343 346
ATOM    344  C   ARG A  11     -19.607   9.878   1.392  0.00  0.00    +0.000 C 
ATOM    345  O   ARG A  11     -20.824  10.028   1.478  0.00  0.00    +0.000 OA
ATOM    346  N   ILE A  12     -19.012   8.742   1.060  0.00  0.00    +0.000 N 
ATOM    347  H   ILE A  12     -18.021   8.628   0.992  0.00  0.00    +0.000 HD
BRANCH 344 348
ATOM    348  CA  ARG A  11     -18.659  11.046   1.676  0.00  0.00    +0.000 C 
BRANCH 348 351
ATOM    349  C   GLN A  10     -17.060   9.873   3.062  0.00  0.00    +0.000 C 
ATOM    350  O   GLN A  10     -17.893   9.607   3.928  0.00  0.00    +0.000 OA
ATOM    351  N   ARG A  11     -17.321  10.552   1.954  0.00  0.00    +0.000 N 
ATOM    352  H   ARG A  11     -16.638  10.764   1.255  0.00  0.00    +0.000 HD
BRANCH 349 353
ATOM    353  CA  GLN A  10     -15.608   9.419   3.217  0.00  0.00    +0.000 C 
BRANCH 353 356
ATOM    354  C   VAL A   9     -15.136   7.685   1.597  0.00  0.00    +0.000 C 
ATOM    355  O   VAL A   9     -15.612   6.794   2.300  0.00  0.00    +0.000 OA
ATOM    356  N   GLN A  10     -15.083   8.964   1.939  0.00  0.00    +0.000 N 
ATOM    357  H   GLN A  10     -14.694   9.682   1.363  0.00  0.00    +0.000 HD
BRANCH 354 358
ATOM    358  CA  VAL A   9     -14.546   7.359   0.223  0.00  0.00    +0.000 C 
BRANCH 358 361
ATOM    359  C   ASP A   8     -15.906   9.031  -0.870  0.00  0.00    +0.000 C 
ATOM    360  O   ASP A   8     -16.951   8.619  -0.370  0.00  0.00    +0.000 OA
ATOM    361  N   VAL A   9     -14.711   8.504  -0.654  0.00  0.00    +0.000 N 
ATOM    362  H   VAL A   9     -13.865   8.847  -1.067  0.00  0.00    +0.000 HD
BRANCH 359 363
ATOM    363  CA  ASP A   8     -15.922  10.233  -1.819  0.00  0.00    +0.000 C 
BRANCH 363 366
ATOM    364  C   ARG A   7     -14.092  11.488  -0.856  0.00  0.00    +0.000 C 
ATOM    365  O   ARG A   7     -14.683  11.682   0.205  0.00  0.00    +0.000 OA
ATOM    366  N   ASP A   8     -14.591  10.812  -1.881  0.00  0.00    +0.000 N 
ATOM    367  H   ASP A   8     -14.103  10.660  -2.741  0.00  0.00    +0.000 HD
BRANCH 364 368
ATOM    368  CA  ARG A   7     -12.680  12.038  -1.070  0.00  0.00    +0.000 C 
BRANCH 368 371
ATOM    369  C   GLU A   6     -11.523   9.922  -1.255  0.00  0.00    +0.000 C 
ATOM    370  O   GLU A   6     -11.839   9.565  -0.121  0.00  0.00    +0.000 OA
ATOM    371  N   ARG A   7     -11.871  11.079  -1.801  0.00  0.00    +0.000 N 
ATOM    372  H   ARG A   7     -11.610  11.361  -2.723  0.00  0.00    +0.000 HD
BRANCH 369 373
ATOM    373  CA  GLU A   6     -10.670   9.017  -2.146  0.00  0.00    +0.000 C 
BRANCH 373 376
ATOM    374  C   LEU A   5     -12.417   8.516  -3.742  0.00  0.00    +0.000 C 
ATOM    375  O   LEU A   5     -13.176   8.069  -2.884  0.00  0.00    +0.000 OA
ATOM    376  N   GLU A   6     -11.205   8.990  -3.497  0.00  0.00    +0.000 N 
ATOM    377  H   GLU A   6     -10.592   9.353  -4.200  0.00  0.00    +0.000 HD
BRANCH 374 378
ATOM    378  CA  LEU A   5     -12.841   8.555  -5.212  0.00  0.00    +0.000 C 
BRANCH 378 381
ATOM    379  C   ASN A   4     -12.928  10.972  -5.215  0.00  0.00    +0.000 C 
ATOM    380  O   ASN A   4     -13.627  11.023  -4.203  0.00  0.00    +0.000 OA
ATOM    381  N   LEU A   5     -12.501   9.849  -5.776  0.00  0.00    +0.000 N 
ATOM    382  H   LEU A   5     -11.934   9.816  -6.599  0.00  0.00    +0.000 HD
BRANCH 379 383
ATOM    383  CA  ASN A   4     -12.490  12.256  -5.922  0.00  0.00    +0.000 C 
BRANCH 383 386
ATOM    384  C   LEU A   3     -10.097  11.914  -5.827  0.00  0.00    +0.000 C 
ATOM    385  O   LEU A   3     -10.064  11.967  -4.598  0.00  0.00    +0.000 OA
ATOM    386  N   ASN A   4     -11.198  12.038  -6.552  0.00  0.00    +0.000 N 
ATOM    387  H   ASN A   4     -11.218  11.996  -7.551  0.00  0.00    +0.000 HD
BRANCH 384 388
ATOM    388  CA  LEU A   3      -8.815  11.691  -6.630  0.00  0.00    +0.000 C 
BRANCH 388 391
ATOM    389  C   SER A   2      -7.861  13.823  -5.999  0.00  0.00    +0.000 C 
ATOM    390  O   SER A   2      -8.839  14.460  -6.386  0.00  0.00    +0.000 OA
ATOM    391  N   LEU A   3      -7.750  12.504  -6.069  0.00  0.00    +0.000 N 
ATOM    392  H   LEU A   3      -6.950  11.993  -5.751  0.00  0.00    +0.000 HD
BRANCH 389 393
ATOM    393  CA  SER A   2      -6.659  14.541  -5.383  0.00  0.00    +0.000 C 
BRANCH 393 396
ATOM    394  C   GLY A   1      -5.963  16.795  -5.919  0.00  0.00    +0.000 C 
ATOM    395  O   GLY A   1      -4.893  16.431  -6.402  0.00  0.00    +0.000 OA
ATOM    396  N   SER A   2      -6.874  15.979  -5.408  0.00  0.00    +0.000 N 
ATOM    397  H   SER A   2      -7.741  16.283  -5.017  0.00  0.00    +0.000 HD
BRANCH 394 398
ATOM    398  CA  GLY A   1      -6.331  18.280  -5.875  0.00  0.00    +0.000 C 
BRANCH 398 399
ATOM    399  N   GLY A   1      -7.594  18.485  -5.189  0.00  0.00    +0.000 N 
ATOM    400  H2  GLY A   1      -7.259  19.338  -4.399  0.00  0.00    +0.000 HD
ATOM    401  H3  GLY A   1      -8.395  17.992  -4.436  0.00  0.00    +0.000 HD
ATOM    402  H   GLY A   1      -8.291  18.967  -5.720  0.00  0.00    +0.000 HD
ENDBRANCH 398 399
ENDBRANCH 394 398
ENDBRANCH 393 396
BRANCH 393 403
ATOM    403  CB  SER A   2      -6.417  14.047  -3.956  0.00  0.00    +0.000 C 
BRANCH 403 404
ATOM    404  OG  SER A   2      -5.329  13.127  -3.887  0.00  0.00    +0.000 OA
ATOM    405  HG  SER A   2      -4.516  13.530  -4.306  0.00  0.00    +0.000 HD
ENDBRANCH 403 404
ENDBRANCH 393 403
ENDBRANCH 389 393
ENDBRANCH 388 391
BRANCH 388 406
ATOM    406  CB  LEU A   3      -8.386  10.226  -6.709  0.00  0.00    +0.000 C 
BRANCH 406 407
ATOM    407  CG  LEU A   3      -8.082   9.542  -5.374  0.00  0.00    +0.000 C 
ATOM    408  CD1 LEU A   3      -8.351   8.038  -5.455  0.00  0.00    +0.000 C 
ATOM    409  CD2 LEU A   3      -6.656   9.846  -4.913  0.00  0.00    +0.000 C 
ENDBRANCH 406 407
ENDBRANCH 388 406
ENDBRANCH 384 388
ENDBRANCH 383 386
BRANCH 383 410
ATOM    410  CB  ASN A   4     -13.557  12.612  -6.960  0.00  0.00    +0.000 C 
BRANCH 410 411
ATOM    411  CG  ASN A   4     -13.462  14.085  -7.360  0.00  0.00    +0.000 C 
ATOM    412  OD1 ASN A   4     -14.449  14.741  -7.649  0.00  0.00    +0.000 OA
ATOM    413  ND2 ASN A   4     -12.222  14.567  -7.360  0.00  0.00    +0.000 N 
ATOM    414 HD21 ASN A   4     -11.456  13.975  -7.112  0.00  0.00    +0.000 HD
ATOM    415 HD22 ASN A   4     -12.058  15.522  -7.609  0.00  0.00    +0.000 HD
ENDBRANCH 410 411
ENDBRANCH 383 410
ENDBRANCH 379 383
ENDBRANCH 378 381
BRANCH 378 416
ATOM    416  CB  LEU A   5     -12.239   7.428  -6.055  0.00  0.00    +0.000 C 
BRANCH 416 417
ATOM    417  CG  LEU A   5     -11.211   6.539  -5.352  0.00  0.00    +0.000 C 
ATOM    418  CD1 LEU A   5     -11.884   5.634  -4.318  0.00  0.00    +0.000 C 
ATOM    419  CD2 LEU A   5     -10.393   5.741  -6.368  0.00  0.00    +0.000 C 
ENDBRANCH 416 417
ENDBRANCH 378 416
ENDBRANCH 374 378
ENDBRANCH 373 376
BRANCH 373 420
ATOM    420  CB  GLU A   6      -9.207   9.464  -2.143  0.00  0.00    +0.000 C 
BRANCH 420 421
ATOM    421  CG  GLU A   6      -8.682   9.617  -0.714  0.00  0.00    +0.000 C 
BRANCH 421 422
ATOM    422  CD  GLU A   6      -7.153   9.639  -0.690  0.00  0.00    +0.000 C 
ATOM    423  OE1 GLU A   6      -6.531  10.363  -1.480  0.00  0.00    +0.000 OA
BRANCH 422 424
ATOM    424  OE2 GLU A   6      -6.611   8.865   0.189  0.00  0.00    +0.000 OA
ATOM    425  HE2 GLU A   6      -5.980   9.389   0.762  0.00  0.00    +0.000 HD
ENDBRANCH 422 424
ENDBRANCH 421 422
ENDBRANCH 420 421
ENDBRANCH 373 420
ENDBRANCH 369 373
ENDBRANCH 368 371
BRANCH 368 426
ATOM    426  CB  ARG A   7     -12.767  13.369  -1.820  0.00  0.00    +0.000 C 
BRANCH 426 427
ATOM    427  CG  ARG A   7     -11.422  14.095  -1.804  0.00  0.00    +0.000 C 
BRANCH 427 428
ATOM    428  CD  ARG A   7     -11.439  15.266  -0.818  0.00  0.00    +0.000 C 
BRANCH 428 429
ATOM    429  NE  ARG A   7     -10.567  16.356  -1.309  0.00  0.00    +0.000 N 
ATOM    430  CZ  ARG A   7      -9.226  16.261  -1.418  0.00  0.00    +0.000 C 
ATOM    431  NH1 ARG A   7      -8.588  15.123  -1.069  0.00  0.00    +0.000 N 
ATOM    432  NH2 ARG A   7      -8.545  17.298  -1.869  0.00  0.00    +0.000 N 
ATOM    433 HH22 ARG A   7      -8.915  18.399  -1.584  0.00  0.00    +0.000 HD
ATOM    434  HE  ARG A   7     -11.000  17.216  -1.577  0.00  0.00    +0.000 HD
ATOM    435 HH11 ARG A   7      -9.111  14.341  -0.729  0.00  0.00    +0.000 HD
ATOM    436 HH12 ARG A   7      -7.593  15.060  -1.153  0.00  0.00    +0.000 HD
ATOM    437 HH21 ARG A   7      -7.552  17.310  -1.980  0.00  0.00    +0.000 HD
ENDBRANCH 428 429
ENDBRANCH 427 428
ENDBRANCH 426 427
ENDBRANCH 368 426
ENDBRANCH 364 368
ENDBRANCH 363 366
BRANCH 363 438
ATOM    438  CB  ASP A   8     -16.375   9.743  -3.196  0.00  0.00    +0.000 C 
BRANCH 438 439
ATOM    439  CG  ASP A   8     -17.478  10.578  -3.848  0.00  0.00    +0.000 C 
ATOM    440  OD1 ASP A   8     -18.001  11.527  -3.246  0.00  0.00    +0.000 OA
BRANCH 439 441
ATOM    441  OD2 ASP A   8     -17.802  10.214  -5.042  0.00  0.00    +0.000 OA
ATOM    442  HD2 ASP A   8     -17.007   9.831  -5.511  0.00  0.00    +0.000 HD
ENDBRANCH 439 441
ENDBRANCH 438 439
ENDBRANCH 363 438
ENDBRANCH 359 363
ENDBRANCH 358 361
BRANCH 358 443
ATOM    443  CB  VAL A   9     -13.070   6.956   0.287  0.00  0.00    +0.000 C 
ATOM    444  CG1 VAL A   9     -12.463   7.311   1.646  0.00  0.00    +0.000 C 
ATOM    445  CG2 VAL A   9     -12.895   5.468  -0.020  0.00  0.00    +0.000 C 
ENDBRANCH 358 443
ENDBRANCH 354 358
ENDBRANCH 353 356
BRANCH 353 446
ATOM    446  CB  GLN A  10     -14.742  10.538   3.797  0.00  0.00    +0.000 C 
BRANCH 446 447
ATOM    447  CG  GLN A  10     -13.979  10.058   5.033  0.00  0.00    +0.000 C 
BRANCH 447 448
ATOM    448  CD  GLN A  10     -13.505  11.241   5.880  0.00  0.00    +0.000 C 
ATOM    449  OE1 GLN A  10     -12.398  11.735   5.738  0.00  0.00    +0.000 OA
ATOM    450  NE2 GLN A  10     -14.401  11.667   6.764  0.00  0.00    +0.000 N 
ATOM    451 HE21 GLN A  10     -15.292  11.218   6.830  0.00  0.00    +0.000 HD
ATOM    452 HE22 GLN A  10     -14.184  12.437   7.364  0.00  0.00    +0.000 HD
ENDBRANCH 447 448
ENDBRANCH 446 447
ENDBRANCH 353 446
ENDBRANCH 349 353
ENDBRANCH 348 351
BRANCH 348 453
ATOM    453  CB  ARG A  11     -18.656  11.995   0.477  0.00  0.00    +0.000 C 
BRANCH 453 454
ATOM    454  CG  ARG A  11     -19.193  13.374   0.869  0.00  0.00    +0.000 C 
BRANCH 454 455
ATOM    455  CD  ARG A  11     -20.689  13.311   1.184  0.00  0.00    +0.000 C 
BRANCH 455 456
ATOM    456  NE  ARG A  11     -21.329  14.608   0.865  0.00  0.00    +0.000 N 
ATOM    457  CZ  ARG A  11     -21.623  15.017  -0.387  0.00  0.00    +0.000 C 
ATOM    458  NH1 ARG A  11     -21.339  14.236  -1.450  0.00  0.00    +0.000 N 
ATOM    459  NH2 ARG A  11     -22.195  16.196  -0.556  0.00  0.00    +0.000 N 
ATOM    460 HH22 ARG A  11     -22.381  17.048   0.261  0.00  0.00    +0.000 HD
ATOM    461  HE  ARG A  11     -21.555  15.217   1.624  0.00  0.00    +0.000 HD
ATOM    462 HH11 ARG A  11     -20.906  13.344  -1.314  0.00  0.00    +0.000 HD
ATOM    463 HH12 ARG A  11     -21.561  14.547  -2.374  0.00  0.00    +0.000 HD
ATOM    464 HH21 ARG A  11     -22.446  16.573  -1.448  0.00  0.00    +0.000 HD
ENDBRANCH 455 456
ENDBRANCH 454 455
ENDBRANCH 453 454
ENDBRANCH 348 453
ENDBRANCH 344 348
ENDBRANCH 343 346
BRANCH 343 465
ATOM    465  CB  ILE A  12     -18.921   6.508   0.055  0.00  0.00    +0.000 C 
ATOM    466  CG2 ILE A  12     -17.816   5.996   0.981  0.00  0.00    +0.000 C 
BRANCH 465 467
ATOM    467  CG1 ILE A  12     -19.776   5.368  -0.501  0.00  0.00    +0.000 C 
ATOM    468  CD1 ILE A  12     -18.902   4.293  -1.149  0.00  0.00    +0.000 C 
ENDBRANCH 465 467
ENDBRANCH 343 465
ENDBRANCH 339 343
ENDBRANCH 338 341
BRANCH 338 469
ATOM    469  CB  LEU A  13     -19.111   6.870   5.499  0.00  0.00    +0.000 C 
BRANCH 469 470
ATOM    470  CG  LEU A  13     -17.981   5.841   5.411  0.00  0.00    +0.000 C 
ATOM    471  CD1 LEU A  13     -18.492   4.438   5.745  0.00  0.00    +0.000 C 
ATOM    472  CD2 LEU A  13     -17.298   5.892   4.043  0.00  0.00    +0.000 C 
ENDBRANCH 469 470
ENDBRANCH 338 469
ENDBRANCH 334 338
ENDBRANCH 333 336
BRANCH 333 473
ATOM    473  CB  GLU A  14     -22.524  10.952   3.951  0.00  0.00    +0.000 C 
BRANCH 473 474
ATOM    474  CG  GLU A  14     -23.814  11.676   3.555  0.00  0.00    +0.000 C 
BRANCH 474 475
ATOM    475  CD  GLU A  14     -23.551  13.161   3.298  0.00  0.00    +0.000 C 
ATOM    476  OE1 GLU A  14     -23.827  13.658   2.197  0.00  0.00    +0.000 OA
BRANCH 475 477
ATOM    477  OE2 GLU A  14     -23.042  13.805   4.294  0.00  0.00    +0.000 OA
ATOM    478  HE2 GLU A  14     -23.224  14.783   4.196  0.00  0.00    +0.000 HD
ENDBRANCH 475 477
ENDBRANCH 474 475
ENDBRANCH 473 474
ENDBRANCH 333 473
ENDBRANCH 329 333
ENDBRANCH 328 331
BRANCH 328 479
ATOM    479  CB  LEU A  15     -24.382   8.089  -0.001  0.00  0.00    +0.000 C 
BRANCH 479 480
ATOM    480  CG  LEU A  15     -24.043   9.436  -0.645  0.00  0.00    +0.000 C 
ATOM    481  CD1 LEU A  15     -22.651   9.406  -1.276  0.00  0.00    +0.000 C 
ATOM    482  CD2 LEU A  15     -25.120   9.850  -1.651  0.00  0.00    +0.000 C 
ENDBRANCH 479 480
ENDBRANCH 328 479
ENDBRANCH 324 328
ENDBRANCH 323 326
BRANCH 323 483
ATOM    483  CB  MET A  16     -23.308   3.974   3.326  0.00  0.00    +0.000 C 
BRANCH 483 484
ATOM    484  CG  MET A  16     -22.441   3.700   2.095  0.00  0.00    +0.000 C 
BRANCH 484 485
ATOM    485  SD  MET A  16     -20.713   3.806   2.528  0.00  0.00    +0.000 S 
ATOM    486  CE  MET A  16     -20.758   3.083   4.161  0.00  0.00    +0.000 C 
ENDBRANCH 484 485
ENDBRANCH 483 484
ENDBRANCH 323 483
ENDBRANCH 319 323
ENDBRANCH 318 321
BRANCH 318 487
ATOM    487  CB  GLU A  17     -25.191   6.753   7.256  0.00  0.00    +0.000 C 
BRANCH 487 488
ATOM    488  CG  GLU A  17     -25.734   6.562   8.674  0.00  0.00    +0.000 C 
BRANCH 488 489
ATOM    489  CD  GLU A  17     -24.649   6.018   9.607  0.00  0.00    +0.000 C 
ATOM    490  OE1 GLU A  17     -23.652   6.707   9.865  0.00  0.00    +0.000 OA
BRANCH 489 491
ATOM    491  OE2 GLU A  17     -24.873   4.834  10.070  0.00  0.00    +0.000 OA
ATOM    492  HE2 GLU A  17     -24.815   4.843  11.070  0.00  0.00    +0.000 HD
ENDBRANCH 489 491
ENDBRANCH 488 489
ENDBRANCH 487 488
ENDBRANCH 318 487
ENDBRANCH 314 318
ENDBRANCH 313 316
BRANCH 313 493
ATOM    493  CB  HIS A  18     -28.329   8.803   3.270  0.00  0.00    +0.000 C 
BRANCH 493 494
ATOM    494  CG  HIS A  18     -27.773  10.050   3.916  0.00  0.00    +0.000 A 
ATOM    495  ND1 HIS A  18     -27.025  10.021   5.080  0.00  0.00    +0.000 N 
ATOM    496  CD2 HIS A  18     -27.863  11.360   3.548  0.00  0.00    +0.000 A 
ATOM    497  CE1 HIS A  18     -26.687  11.263   5.392  0.00  0.00    +0.000 A 
ATOM    498  NE2 HIS A  18     -27.206  12.091   4.441  0.00  0.00    +0.000 NA
ATOM    499  HD1 HIS A  18     -26.783   9.201   5.600  0.00  0.00    +0.000 HD
ENDBRANCH 493 494
ENDBRANCH 313 493
ENDBRANCH 309 313
ENDBRANCH 308 311
BRANCH 308 500
ATOM    500  CB  VAL A  19     -28.934   4.054   1.093  0.00  0.00    +0.000 C 
ATOM    501  CG1 VAL A  19     -28.328   5.151   0.214  0.00  0.00    +0.000 C 
ATOM    502  CG2 VAL A  19     -27.851   3.104   1.610  0.00  0.00    +0.000 C 
ENDBRANCH 308 500
ENDBRANCH 304 308
ENDBRANCH 303 306
BRANCH 303 503
ATOM    503  CB  GLN A  20     -28.240   2.352   6.231  0.00  0.00    +0.000 C 
BRANCH 503 504
ATOM    504  CG  GLN A  20     -28.203   3.321   7.414  0.00  0.00    +0.000 C 
BRANCH 504 505
ATOM    505  CD  GLN A  20     -27.012   3.024   8.329  0.00  0.00    +0.000 C 
ATOM    506  OE1 GLN A  20     -27.133   2.946   9.540  0.00  0.00    +0.000 OA
ATOM    507  NE2 GLN A  20     -25.860   2.866   7.684  0.00  0.00    +0.000 N 
ATOM    508 HE21 GLN A  20     -25.831   2.944   6.686  0.00  0.00    +0.000 HD
ATOM    509 HE22 GLN A  20     -25.025   2.668   8.194  0.00  0.00    +0.000 HD
ENDBRANCH 504 505
ENDBRANCH 503 504
ENDBRANCH 303 503
ENDBRANCH 299 303
ENDBRANCH 298 301
BRANCH 298 510
ATOM    510  CB  LYS A  21     -32.293   6.294   6.535  0.00  0.00    +0.000 C 
BRANCH 510 511
ATOM    511  CG  LYS A  21     -30.870   6.837   6.674  0.00  0.00    +0.000 C 
BRANCH 511 512
ATOM    512  CD  LYS A  21     -30.404   6.787   8.131  0.00  0.00    +0.000 C 
BRANCH 512 513
ATOM    513  CE  LYS A  21     -31.462   7.374   9.065  0.00  0.00    +0.000 C 
BRANCH 513 514
ATOM    514  NZ  LYS A  21     -30.820   8.088  10.192  0.00  0.00    +0.000 N 
ATOM    515  HZ3 LYS A  21     -31.606   8.819  10.743  0.00  0.00    +0.000 HD
ATOM    516  HZ1 LYS A  21     -30.472   7.450  10.897  0.00  0.00    +0.000 HD
ATOM    517  HZ2 LYS A  21     -30.030   8.647   9.886  0.00  0.00    +0.000 HD
ENDBRANCH 513 514
ENDBRANCH 512 513
ENDBRANCH 511 512
ENDBRANCH 510 511
ENDBRANCH 298 510
ENDBRANCH 294 298
ENDBRANCH 293 296
BRANCH 293 518
ATOM    518  CB  THR A  22     -34.299   1.991   3.359  0.00  0.00    +0.000 C 
ATOM    519  CG2 THR A  22     -33.457   0.715   3.296  0.00  0.00    +0.000 C 
BRANCH 518 520
ATOM    520  OG1 THR A  22     -35.558   1.603   2.816  0.00  0.00    +0.000 OA
ATOM    521  HG1 THR A  22     -36.015   0.964   3.434  0.00  0.00    +0.000 HD
ENDBRANCH 518 520
ENDBRANCH 293 518
ENDBRANCH 289 293
ENDBRANCH 288 291
ENDBRANCH 284 288
ENDBRANCH 283 286
BRANCH 283 522
ATOM    522  CB  GLU A  24     -35.443  -3.142   3.631  0.00  0.00    +0.000 C 
BRANCH 522 523
ATOM    523  CG  GLU A  24     -35.363  -4.496   2.922  0.00  0.00    +0.000 C 
BRANCH 523 524
ATOM    524  CD  GLU A  24     -36.113  -5.571   3.707  0.00  0.00    +0.000 C 
ATOM    525  OE1 GLU A  24     -36.089  -5.564   4.947  0.00  0.00    +0.000 OA
BRANCH 524 526
ATOM    526  OE2 GLU A  24     -36.740  -6.437   2.985  0.00  0.00    +0.000 OA
ATOM    527  HE2 GLU A  24     -37.357  -5.970   2.351  0.00  0.00    +0.000 HD
ENDBRANCH 524 526
ENDBRANCH 523 524
ENDBRANCH 522 523
ENDBRANCH 283 522
ENDBRANCH 279 283
ENDBRANCH 278 281
BRANCH 278 528
ATOM    528  CB  VAL A  25     -30.245  -1.775   3.667  0.00  0.00    +0.000 C 
ATOM    529  CG1 VAL A  25     -30.359  -0.575   4.608  0.00  0.00    +0.000 C 
ATOM    530  CG2 VAL A  25     -28.858  -1.835   3.022  0.00  0.00    +0.000 C 
ENDBRANCH 278 528
ENDBRANCH 274 278
ENDBRANCH 273 276
BRANCH 273 531
ATOM    531  CB  ASN A  26     -28.790  -6.139   7.488  0.00  0.00    +0.000 C 
BRANCH 531 532
ATOM    532  CG  ASN A  26     -29.846  -6.994   6.785  0.00  0.00    +0.000 C 
ATOM    533  OD1 ASN A  26     -30.494  -7.840   7.378  0.00  0.00    +0.000 OA
ATOM    534  ND2 ASN A  26     -29.983  -6.726   5.488  0.00  0.00    +0.000 N 
ATOM    535 HD21 ASN A  26     -29.421  -6.019   5.062  0.00  0.00    +0.000 HD
ATOM    536 HD22 ASN A  26     -30.649  -7.234   4.941  0.00  0.00    +0.000 HD
ENDBRANCH 531 532
ENDBRANCH 273 531
ENDBRANCH   1 273
TORSDOF 228
REMARK  Name = /Users/acegid/Desktop/Smoking_Research/Docking/Docking_All_PDB/All_PDB/1ZL8_H.pdb
REMARK  527 active torsions:
REMARK  status: ('A' for Active; 'I' for Inactive)
REMARK    1  A    between atoms: N_1  and  CA_4
REMARK    2  A    between atoms: CA_4  and  C_5
REMARK    3  A    between atoms: N_10  and  CA_11
REMARK    4  A    between atoms: CA_11  and  C_12
REMARK    5  A    between atoms: CA_11  and  CB_14
REMARK    6  A    between atoms: CB_14  and  OG_15
REMARK    7  A    between atoms: N_21  and  CA_22
REMARK    8  A    between atoms: CA_22  and  C_23
REMARK    9  A    between atoms: CA_22  and  CB_25
REMARK   10  A    between atoms: CB_25  and  CG_26
REMARK   11  A    between atoms: CG_26  and  CD1_27
REMARK   12  A    between atoms: CG_26  and  CD2_28
REMARK   13  A    between atoms: N_40  and  CA_41
REMARK   14  A    between atoms: CA_41  and  C_42
REMARK   15  A    between atoms: CA_41  and  CB_44
REMARK   16  A    between atoms: CB_44  and  CG_45
REMARK   17  A    between atoms: N_54  and  CA_55
REMARK   18  A    between atoms: CA_55  and  C_56
REMARK   19  A    between atoms: CA_55  and  CB_58
REMARK   20  A    between atoms: CB_58  and  CG_59
REMARK   21  A    between atoms: CG_59  and  CD1_60
REMARK   22  A    between atoms: CG_59  and  CD2_61
REMARK   23  A    between atoms: N_73  and  CA_74
REMARK   24  A    between atoms: CA_74  and  C_75
REMARK   25  A    between atoms: CA_74  and  CB_77
REMARK   26  A    between atoms: CB_77  and  CG_78
REMARK   27  A    between atoms: CG_78  and  CD_79
REMARK   28  A    between atoms: CD_79  and  OE2_81
REMARK   29  A    between atoms: N_89  and  CA_90
REMARK   30  A    between atoms: CA_90  and  C_91
REMARK   31  A    between atoms: CA_90  and  CB_93
REMARK   32  A    between atoms: CB_93  and  CG_94
REMARK   33  A    between atoms: CG_94  and  CD_95
REMARK   34  A    between atoms: CD_95  and  NE_96
REMARK   35  A    between atoms: N_113  and  CA_114
REMARK   36  A    between atoms: CA_114  and  C_115
REMARK   37  A    between atoms: CA_114  and  CB_117
REMARK   38  A    between atoms: CB_117  and  CG_118
REMARK   39  A    between atoms: CG_118  and  OD2_120
REMARK   40  A    between atoms: N_126  and  CA_127
REMARK   41  A    between atoms: CA_127  and  C_128
REMARK   42  A    between atoms: CA_127  and  CB_130
REMARK   43  A    between atoms: CB_130  and  CG1_131
REMARK   44  A    between atoms: CB_130  and  CG2_132
REMARK   45  A    between atoms: N_142  and  CA_143
REMARK   46  A    between atoms: CA_143  and  C_144
REMARK   47  A    between atoms: CA_143  and  CB_146
REMARK   48  A    between atoms: CB_146  and  CG_147
REMARK   49  A    between atoms: CG_147  and  CD_148
REMARK   50  A    between atoms: N_159  and  CA_160
REMARK   51  A    between atoms: CA_160  and  C_161
REMARK   52  A    between atoms: CA_160  and  CB_163
REMARK   53  A    between atoms: CB_163  and  CG_164
REMARK   54  A    between atoms: CG_164  and  CD_165
REMARK   55  A    between atoms: CD_165  and  NE_166
REMARK   56  A    between atoms: N_183  and  CA_184
REMARK   57  A    between atoms: CA_184  and  C_185
REMARK   58  A    between atoms: CA_184  and  CB_187
REMARK   59  A    between atoms: CB_187  and  CG1_188
REMARK   60  A    between atoms: CB_187  and  CG2_189
REMARK   61  A    between atoms: CG1_188  and  CD1_190
REMARK   62  A    between atoms: N_202  and  CA_203
REMARK   63  A    between atoms: CA_203  and  C_204
REMARK   64  A    between atoms: CA_203  and  CB_206
REMARK   65  A    between atoms: CB_206  and  CG_207
REMARK   66  A    between atoms: CG_207  and  CD1_208
REMARK   67  A    between atoms: CG_207  and  CD2_209
REMARK   68  A    between atoms: N_221  and  CA_222
REMARK   69  A    between atoms: CA_222  and  C_223
REMARK   70  A    between atoms: CA_222  and  CB_225
REMARK   71  A    between atoms: CB_225  and  CG_226
REMARK   72  A    between atoms: CG_226  and  CD_227
REMARK   73  A    between atoms: CD_227  and  OE2_229
REMARK   74  A    between atoms: N_237  and  CA_238
REMARK   75  A    between atoms: CA_238  and  C_239
REMARK   76  A    between atoms: CA_238  and  CB_241
REMARK   77  A    between atoms: CB_241  and  CG_242
REMARK   78  A    between atoms: CG_242  and  CD1_243
REMARK   79  A    between atoms: CG_242  and  CD2_244
REMARK   80  A    between atoms: N_256  and  CA_257
REMARK   81  A    between atoms: CA_257  and  C_258
REMARK   82  A    between atoms: CA_257  and  CB_260
REMARK   83  A    between atoms: CB_260  and  CG_261
REMARK   84  A    between atoms: CG_261  and  SD_262
REMARK   85  A    between atoms: SD_262  and  CE_263
REMARK   86  A    between atoms: N_273  and  CA_274
REMARK   87  A    between atoms: CA_274  and  C_275
REMARK   88  A    between atoms: CA_274  and  CB_277
REMARK   89  A    between atoms: CB_277  and  CG_278
REMARK   90  A    between atoms: CG_278  and  CD_279
REMARK   91  A    between atoms: CD_279  and  OE2_281
REMARK   92  A    between atoms: N_289  and  CA_290
REMARK   93  A    between atoms: CA_290  and  C_291
REMARK   94  A    between atoms: CA_290  and  CB_293
REMARK   95  A    between atoms: CB_293  and  CG_294
REMARK   96  A    between atoms: N_306  and  CA_307
REMARK   97  A    between atoms: CA_307  and  C_308
REMARK   98  A    between atoms: CA_307  and  CB_310
REMARK   99  A    between atoms: CB_310  and  CG1_311
REMARK  100  A    between atoms: CB_310  and  CG2_312
REMARK  101  A    between atoms: N_322  and  CA_323
REMARK  102  A    between atoms: CA_323  and  C_324
REMARK  103  A    between atoms: CA_323  and  CB_326
REMARK  104  A    between atoms: CB_326  and  CG_327
REMARK  105  A    between atoms: CG_327  and  CD_328
REMARK  106  A    between atoms: N_339  and  CA_340
REMARK  107  A    between atoms: CA_340  and  C_341
REMARK  108  A    between atoms: CA_340  and  CB_343
REMARK  109  A    between atoms: CB_343  and  CG_344
REMARK  110  A    between atoms: CG_344  and  CD_345
REMARK  111  A    between atoms: CD_345  and  CE_346
REMARK  112  A    between atoms: CE_346  and  NZ_347
REMARK  113  A    between atoms: N_361  and  CA_362
REMARK  114  A    between atoms: CA_362  and  C_363
REMARK  115  A    between atoms: CA_362  and  CB_365
REMARK  116  A    between atoms: CB_365  and  OG1_366
REMARK  117  A    between atoms: CB_365  and  CG2_367
REMARK  118  A    between atoms: N_375  and  CA_376
REMARK  119  A    between atoms: CA_376  and  C_377
REMARK  120  A    between atoms: N_382  and  CA_383
REMARK  121  A    between atoms: CA_383  and  C_384
REMARK  122  A    between atoms: CA_383  and  CB_386
REMARK  123  A    between atoms: CB_386  and  CG_387
REMARK  124  A    between atoms: CG_387  and  CD_388
REMARK  125  A    between atoms: CD_388  and  OE2_390
REMARK  126  A    between atoms: N_398  and  CA_399
REMARK  127  A    between atoms: CA_399  and  C_400
REMARK  128  A    between atoms: CA_399  and  CB_402
REMARK  129  A    between atoms: CB_402  and  CG1_403
REMARK  130  A    between atoms: CB_402  and  CG2_404
REMARK  131  A    between atoms: N_414  and  CA_415
REMARK  132  A    between atoms: CA_415  and  C_416
REMARK  133  A    between atoms: CA_415  and  CB_418
REMARK  134  A    between atoms: CB_418  and  CG_419
REMARK  135  A    between atoms: N_428  and  CA_429
REMARK  136  A    between atoms: CA_429  and  C_430
REMARK  137  A    between atoms: CA_429  and  CB_432
REMARK  138  A    between atoms: CB_432  and  CG_433
REMARK  139  A    between atoms: N_442  and  CA_443
REMARK  140  A    between atoms: CA_443  and  C_444
REMARK  141  A    between atoms: CA_443  and  CB_446
REMARK  142  A    between atoms: N_452  and  CA_453
REMARK  143  A    between atoms: CA_453  and  C_454
REMARK  144  A    between atoms: CA_453  and  CB_456
REMARK  145  A    between atoms: CB_456  and  CG_457
REMARK  146  A    between atoms: CG_457  and  CD_458
REMARK  147  A    between atoms: CD_458  and  CE_459
REMARK  148  A    between atoms: CE_459  and  NZ_460
REMARK  149  A    between atoms: N_474  and  CA_475
REMARK  150  A    between atoms: CA_475  and  C_476
REMARK  151  A    between atoms: CA_475  and  CB_478
REMARK  152  A    between atoms: CB_478  and  CG_479
REMARK  153  A    between atoms: CG_479  and  CD1_480
REMARK  154  A    between atoms: CG_479  and  CD2_481
REMARK  155  A    between atoms: N_493  and  CA_494
REMARK  156  A    between atoms: CA_494  and  C_495
REMARK  157  A    between atoms: CA_494  and  CB_497
REMARK  158  A    between atoms: N_503  and  CA_504
REMARK  159  A    between atoms: CA_504  and  C_505
REMARK  160  A    between atoms: CA_504  and  CB_507
REMARK  161  A    between atoms: CB_507  and  OG_508
REMARK  162  A    between atoms: N_514  and  CA_515
REMARK  163  A    between atoms: CA_515  and  C_516
REMARK  164  A    between atoms: CA_515  and  CB_518
REMARK  165  A    between atoms: CB_518  and  CG_519
REMARK  166  A    between atoms: CG_519  and  CD1_520
REMARK  167  A    between atoms: CG_519  and  CD2_521
REMARK  168  A    between atoms: N_533  and  CA_534
REMARK  169  A    between atoms: CA_534  and  C_535
REMARK  170  A    between atoms: CA_534  and  CB_537
REMARK  171  A    between atoms: CB_537  and  CG_538
REMARK  172  A    between atoms: CG_538  and  CD_539
REMARK  173  A    between atoms: N_550  and  CA_551
REMARK  174  A    between atoms: CA_551  and  C_552
REMARK  175  A    between atoms: CA_551  and  CB_554
REMARK  176  A    between atoms: CB_554  and  CG_555
REMARK  177  A    between atoms: CG_555  and  CD_556
REMARK  178  A    between atoms: N_567  and  CA_568
REMARK  179  A    between atoms: CA_568  and  C_569
REMARK  180  A    between atoms: CA_568  and  CB_571
REMARK  181  A    between atoms: CB_571  and  CG1_572
REMARK  182  A    between atoms: CB_571  and  CG2_573
REMARK  183  A    between atoms: N_583  and  CA_584
REMARK  184  A    between atoms: CA_584  and  C_585
REMARK  185  A    between atoms: CA_584  and  CB_587
REMARK  186  A    between atoms: CB_587  and  CG_588
REMARK  187  A    between atoms: CG_588  and  CD1_589
REMARK  188  A    between atoms: CG_588  and  CD2_590
REMARK  189  A    between atoms: N_602  and  CA_603
REMARK  190  A    between atoms: CA_603  and  C_604
REMARK  191  A    between atoms: CA_603  and  CB_606
REMARK  192  A    between atoms: CB_606  and  CG_607
REMARK  193  A    between atoms: CG_607  and  CD_608
REMARK  194  A    between atoms: N_619  and  CA_620
REMARK  195  A    between atoms: CA_620  and  C_621
REMARK  196  A    between atoms: CA_620  and  CB_623
REMARK  197  A    between atoms: CB_623  and  OG_624
REMARK  198  A    between atoms: N_630  and  CA_631
REMARK  199  A    between atoms: CA_631  and  C_632
REMARK  200  A    between atoms: CA_631  and  CB_634
REMARK  201  A    between atoms: CB_634  and  CG_635
REMARK  202  A    between atoms: CG_635  and  CD_636
REMARK  203  A    between atoms: CD_636  and  OE2_638
REMARK  204  A    between atoms: N_646  and  CA_647
REMARK  205  A    between atoms: CA_647  and  C_648
REMARK  206  A    between atoms: CA_647  and  CB_650
REMARK  207  A    between atoms: CB_650  and  CG_651
REMARK  208  A    between atoms: N_666  and  CA_667
REMARK  209  A    between atoms: CA_667  and  C_668
REMARK  210  A    between atoms: CA_667  and  CB_670
REMARK  211  A    between atoms: CB_670  and  CG_671
REMARK  212  A    between atoms: N_686  and  CA_687
REMARK  213  A    between atoms: CA_687  and  C_688
REMARK  214  A    between atoms: N_693  and  CA_694
REMARK  215  A    between atoms: CA_694  and  C_695
REMARK  216  A    between atoms: CA_694  and  CB_697
REMARK  217  A    between atoms: N_703  and  CA_704
REMARK  218  A    between atoms: CA_704  and  C_705
REMARK  219  A    between atoms: CA_704  and  CB_707
REMARK  220  A    between atoms: CB_707  and  CG1_708
REMARK  221  A    between atoms: CB_707  and  CG2_709
REMARK  222  A    between atoms: N_719  and  CA_720
REMARK  223  A    between atoms: CA_720  and  C_721
REMARK  224  A    between atoms: CA_720  and  CB_723
REMARK  225  A    between atoms: CB_723  and  CG_724
REMARK  226  A    between atoms: CG_724  and  CD_725
REMARK  227  A    between atoms: CD_725  and  NE_726
REMARK  228  A    between atoms: N_743  and  CA_744
REMARK  229  A    between atoms: CA_744  and  C_745
REMARK  230  A    between atoms: CA_744  and  CB_747
REMARK  231  A    between atoms: CB_747  and  CG_748
REMARK  232  A    between atoms: CG_748  and  CD_749
REMARK  233  A    between atoms: CD_749  and  OE2_751
REMARK  234  A    between atoms: N_759  and  CA_760
REMARK  235  A    between atoms: CA_760  and  C_761
REMARK  236  A    between atoms: CA_760  and  CB_763
REMARK  237  A    between atoms: CB_763  and  CG1_764
REMARK  238  A    between atoms: CB_763  and  CG2_765
REMARK  239  A    between atoms: N_775  and  CA_776
REMARK  240  A    between atoms: CA_776  and  C_777
REMARK  241  A    between atoms: CA_776  and  CB_779
REMARK  242  A    between atoms: CB_779  and  CG_780
REMARK  243  A    between atoms: CZ_785  and  OH_786
REMARK  244  A    between atoms: N_796  and  CA_797
REMARK  245  A    between atoms: CA_797  and  C_798
REMARK  246  A    between atoms: CA_797  and  CB_800
REMARK  247  A    between atoms: CB_800  and  CG_801
REMARK  248  A    between atoms: CG_801  and  CD_802
REMARK  249  A    between atoms: CD_802  and  OE2_804
REMARK  250  A    between atoms: N_812  and  CA_813
REMARK  251  A    between atoms: CA_813  and  C_814
REMARK  252  A    between atoms: CA_813  and  CB_816
REMARK  253  A    between atoms: CB_816  and  OG1_817
REMARK  254  A    between atoms: CB_816  and  CG2_818
REMARK  255  A    between atoms: N_826  and  CA_827
REMARK  256  A    between atoms: CA_827  and  C_828
REMARK  257  A    between atoms: CA_827  and  CB_830
REMARK  258  A    between atoms: CB_830  and  CG1_831
REMARK  259  A    between atoms: CB_830  and  CG2_832
REMARK  260  A    between atoms: N_842  and  CA_843
REMARK  261  A    between atoms: CA_843  and  C_844
REMARK  262  A    between atoms: CA_843  and  CB_846
REMARK  263  A    between atoms: CB_846  and  CG_847
REMARK  264  A    between atoms: CZ_852  and  OH_853
REMARK  265  A    between atoms: N_864  and  CA_867
REMARK  266  A    between atoms: CA_867  and  C_868
REMARK  267  A    between atoms: CA_867  and  CB_870
REMARK  268  A    between atoms: CB_870  and  OG_871
REMARK  269  A    between atoms: N_877  and  CA_878
REMARK  270  A    between atoms: CA_878  and  C_879
REMARK  271  A    between atoms: CA_878  and  CB_881
REMARK  272  A    between atoms: CB_881  and  CG_882
REMARK  273  A    between atoms: CG_882  and  OD2_884
REMARK  274  A    between atoms: N_890  and  CA_891
REMARK  275  A    between atoms: CA_891  and  C_892
REMARK  276  A    between atoms: CA_891  and  CB_894
REMARK  277  A    between atoms: N_900  and  CA_901
REMARK  278  A    between atoms: CA_901  and  C_902
REMARK  279  A    between atoms: CA_901  and  CB_904
REMARK  280  A    between atoms: CB_904  and  CG1_905
REMARK  281  A    between atoms: CB_904  and  CG2_906
REMARK  282  A    between atoms: N_916  and  CA_917
REMARK  283  A    between atoms: CA_917  and  C_918
REMARK  284  A    between atoms: CA_917  and  CB_920
REMARK  285  A    between atoms: CB_920  and  CG_921
REMARK  286  A    between atoms: CG_921  and  CD_922
REMARK  287  A    between atoms: N_933  and  CA_934
REMARK  288  A    between atoms: CA_934  and  C_935
REMARK  289  A    between atoms: CA_934  and  CB_937
REMARK  290  A    between atoms: CB_937  and  CG_938
REMARK  291  A    between atoms: CG_938  and  CD_939
REMARK  292  A    between atoms: CD_939  and  NE_940
REMARK  293  A    between atoms: N_957  and  CA_958
REMARK  294  A    between atoms: CA_958  and  C_959
REMARK  295  A    between atoms: CA_958  and  CB_961
REMARK  296  A    between atoms: N_967  and  CA_968
REMARK  297  A    between atoms: CA_968  and  C_969
REMARK  298  A    between atoms: CA_968  and  CB_971
REMARK  299  A    between atoms: CB_971  and  CG_972
REMARK  300  A    between atoms: CG_972  and  CD_973
REMARK  301  A    between atoms: CD_973  and  CE_974
REMARK  302  A    between atoms: CE_974  and  NZ_975
REMARK  303  A    between atoms: N_989  and  CA_990
REMARK  304  A    between atoms: CA_990  and  C_991
REMARK  305  A    between atoms: CA_990  and  CB_993
REMARK  306  A    between atoms: CB_993  and  CG_994
REMARK  307  A    between atoms: CG_994  and  CD_995
REMARK  308  A    between atoms: CD_995  and  OE2_997
REMARK  309  A    between atoms: N_1005  and  CA_1006
REMARK  310  A    between atoms: CA_1006  and  C_1007
REMARK  311  A    between atoms: CA_1006  and  CB_1009
REMARK  312  A    between atoms: CB_1009  and  CG1_1010
REMARK  313  A    between atoms: CB_1009  and  CG2_1011
REMARK  314  A    between atoms: N_1021  and  CA_1022
REMARK  315  A    between atoms: CA_1022  and  C_1023
REMARK  316  A    between atoms: CA_1022  and  CB_1025
REMARK  317  A    between atoms: CB_1025  and  CG_1026
REMARK  318  A    between atoms: CG_1026  and  CD1_1027
REMARK  319  A    between atoms: CG_1026  and  CD2_1028
REMARK  320  A    between atoms: N_1040  and  CA_1041
REMARK  321  A    between atoms: CA_1041  and  C_1042
REMARK  322  A    between atoms: CA_1041  and  CB_1044
REMARK  323  A    between atoms: CB_1044  and  CG_1045
REMARK  324  A    between atoms: CG_1045  and  CD_1046
REMARK  325  A    between atoms: CD_1046  and  OE2_1048
REMARK  326  A    between atoms: N_1056  and  CA_1057
REMARK  327  A    between atoms: CA_1057  and  C_1058
REMARK  328  A    between atoms: CA_1057  and  CB_1060
REMARK  329  A    between atoms: CB_1060  and  CG_1061
REMARK  330  A    between atoms: CG_1061  and  CD_1062
REMARK  331  A    between atoms: CD_1062  and  OE2_1064
REMARK  332  A    between atoms: N_1072  and  CA_1073
REMARK  333  A    between atoms: CA_1073  and  C_1074
REMARK  334  A    between atoms: CA_1073  and  CB_1076
REMARK  335  A    between atoms: CB_1076  and  CG1_1077
REMARK  336  A    between atoms: CB_1076  and  CG2_1078
REMARK  337  A    between atoms: CG1_1077  and  CD1_1079
REMARK  338  A    between atoms: N_1091  and  CA_1092
REMARK  339  A    between atoms: CA_1092  and  C_1093
REMARK  340  A    between atoms: CA_1092  and  CB_1095
REMARK  341  A    between atoms: CB_1095  and  OG_1096
REMARK  342  A    between atoms: N_1102  and  CA_1103
REMARK  343  A    between atoms: CA_1103  and  C_1104
REMARK  344  A    between atoms: CA_1103  and  CB_1106
REMARK  345  A    between atoms: CB_1106  and  SG_1107
REMARK  346  A    between atoms: N_1113  and  CA_1114
REMARK  347  A    between atoms: CA_1114  and  C_1115
REMARK  348  A    between atoms: CA_1114  and  CB_1117
REMARK  349  A    between atoms: CB_1117  and  CG_1118
REMARK  350  A    between atoms: CZ_1123  and  OH_1124
REMARK  351  A    between atoms: CA_1135  and  C_1136
REMARK  352  A    between atoms: N_1148  and  CA_1149
REMARK  353  A    between atoms: CA_1149  and  C_1150
REMARK  354  A    between atoms: CA_1149  and  CB_1152
REMARK  355  A    between atoms: CB_1152  and  CG_1153
REMARK  356  A    between atoms: CG_1153  and  CD_1154
REMARK  357  A    between atoms: CD_1154  and  OE2_1156
REMARK  358  A    between atoms: N_1164  and  CA_1165
REMARK  359  A    between atoms: CA_1165  and  C_1166
REMARK  360  A    between atoms: CA_1165  and  CB_1168
REMARK  361  A    between atoms: CB_1168  and  CG_1169
REMARK  362  A    between atoms: N_1178  and  CA_1179
REMARK  363  A    between atoms: CA_1179  and  C_1180
REMARK  364  A    between atoms: CA_1179  and  CB_1182
REMARK  365  A    between atoms: CB_1182  and  CG_1183
REMARK  366  A    between atoms: N_1192  and  CA_1193
REMARK  367  A    between atoms: CA_1193  and  C_1194
REMARK  368  A    between atoms: CA_1193  and  CB_1196
REMARK  369  A    between atoms: CB_1196  and  CG_1197
REMARK  370  A    between atoms: CG_1197  and  OD2_1199
REMARK  371  A    between atoms: N_1205  and  CA_1206
REMARK  372  A    between atoms: CA_1206  and  C_1207
REMARK  373  A    between atoms: CA_1206  and  CB_1209
REMARK  374  A    between atoms: N_1215  and  CA_1216
REMARK  375  A    between atoms: CA_1216  and  C_1217
REMARK  376  A    between atoms: CA_1216  and  CB_1219
REMARK  377  A    between atoms: CB_1219  and  CG_1220
REMARK  378  A    between atoms: CG_1220  and  CD_1221
REMARK  379  A    between atoms: CD_1221  and  CE_1222
REMARK  380  A    between atoms: CE_1222  and  NZ_1223
REMARK  381  A    between atoms: N_1237  and  CA_1238
REMARK  382  A    between atoms: CA_1238  and  C_1239
REMARK  383  A    between atoms: CA_1238  and  CB_1241
REMARK  384  A    between atoms: CB_1241  and  CG_1242
REMARK  385  A    between atoms: CG_1242  and  CD_1243
REMARK  386  A    between atoms: CD_1243  and  OE2_1245
REMARK  387  A    between atoms: N_1253  and  CA_1254
REMARK  388  A    between atoms: CA_1254  and  C_1255
REMARK  389  A    between atoms: CA_1254  and  CB_1257
REMARK  390  A    between atoms: CB_1257  and  CG_1258
REMARK  391  A    between atoms: CG_1258  and  CD1_1259
REMARK  392  A    between atoms: CG_1258  and  CD2_1260
REMARK  393  A    between atoms: N_1272  and  CA_1273
REMARK  394  A    between atoms: CA_1273  and  C_1274
REMARK  395  A    between atoms: CA_1273  and  CB_1276
REMARK  396  A    between atoms: CB_1276  and  CG_1277
REMARK  397  A    between atoms: CG_1277  and  CD_1278
REMARK  398  A    between atoms: CD_1278  and  CE_1279
REMARK  399  A    between atoms: CE_1279  and  NZ_1280
REMARK  400  A    between atoms: N_1294  and  CA_1295
REMARK  401  A    between atoms: CA_1295  and  C_1296
REMARK  402  A    between atoms: CA_1295  and  CB_1298
REMARK  403  A    between atoms: CB_1298  and  CG_1299
REMARK  404  A    between atoms: CG_1299  and  CD_1300
REMARK  405  A    between atoms: CD_1300  and  NE_1301
REMARK  406  A    between atoms: N_1318  and  CA_1319
REMARK  407  A    between atoms: CA_1319  and  C_1320
REMARK  408  A    between atoms: CA_1319  and  CB_1322
REMARK  409  A    between atoms: CB_1322  and  CG1_1323
REMARK  410  A    between atoms: CB_1322  and  CG2_1324
REMARK  411  A    between atoms: CG1_1323  and  CD1_1325
REMARK  412  A    between atoms: N_1337  and  CA_1338
REMARK  413  A    between atoms: CA_1338  and  C_1339
REMARK  414  A    between atoms: CA_1338  and  CB_1341
REMARK  415  A    between atoms: CB_1341  and  CG_1342
REMARK  416  A    between atoms: CG_1342  and  CD1_1343
REMARK  417  A    between atoms: CG_1342  and  CD2_1344
REMARK  418  A    between atoms: N_1356  and  CA_1357
REMARK  419  A    between atoms: CA_1357  and  C_1358
REMARK  420  A    between atoms: CA_1357  and  CB_1360
REMARK  421  A    between atoms: CB_1360  and  OG1_1361
REMARK  422  A    between atoms: CB_1360  and  CG2_1362
REMARK  423  A    between atoms: N_1370  and  CA_1371
REMARK  424  A    between atoms: CA_1371  and  C_1372
REMARK  425  A    between atoms: CA_1371  and  CB_1374
REMARK  426  A    between atoms: CB_1374  and  CG_1375
REMARK  427  A    between atoms: CG_1375  and  CD_1376
REMARK  428  A    between atoms: CA_1388  and  C_1389
REMARK  429  A    between atoms: N_1401  and  CA_1402
REMARK  430  A    between atoms: CA_1402  and  C_1403
REMARK  431  A    between atoms: CA_1402  and  CB_1405
REMARK  432  A    between atoms: CB_1405  and  CG_1406
REMARK  433  A    between atoms: N_1418  and  CA_1419
REMARK  434  A    between atoms: CA_1419  and  C_1420
REMARK  435  A    between atoms: CA_1419  and  CB_1422
REMARK  436  A    between atoms: CB_1422  and  CG_1423
REMARK  437  A    between atoms: N_1438  and  CA_1439
REMARK  438  A    between atoms: CA_1439  and  C_1440
REMARK  439  A    between atoms: CA_1439  and  CB_1442
REMARK  440  A    between atoms: CB_1442  and  CG_1443
REMARK  441  A    between atoms: CG_1443  and  SD_1444
REMARK  442  A    between atoms: SD_1444  and  CE_1445
REMARK  443  A    between atoms: N_1455  and  CA_1456
REMARK  444  A    between atoms: CA_1456  and  C_1457
REMARK  445  A    between atoms: CA_1456  and  CB_1459
REMARK  446  A    between atoms: N_1465  and  CA_1466
REMARK  447  A    between atoms: CA_1466  and  C_1467
REMARK  448  A    between atoms: CA_1466  and  CB_1469
REMARK  449  A    between atoms: CB_1469  and  CG_1470
REMARK  450  A    between atoms: CG_1470  and  CD1_1471
REMARK  451  A    between atoms: CG_1470  and  CD2_1472
REMARK  452  A    between atoms: N_1484  and  CA_1485
REMARK  453  A    between atoms: CA_1485  and  C_1486
REMARK  454  A    between atoms: CA_1485  and  CB_1488
REMARK  455  A    between atoms: CB_1488  and  CG_1489
REMARK  456  A    between atoms: CG_1489  and  CD1_1490
REMARK  457  A    between atoms: CG_1489  and  CD2_1491
REMARK  458  A    between atoms: N_1503  and  CA_1504
REMARK  459  A    between atoms: CA_1504  and  C_1505
REMARK  460  A    between atoms: CA_1504  and  CB_1507
REMARK  461  A    between atoms: CB_1507  and  CG_1508
REMARK  462  A    between atoms: CG_1508  and  CD_1509
REMARK  463  A    between atoms: N_1520  and  CA_1521
REMARK  464  A    between atoms: CA_1521  and  C_1522
REMARK  465  A    between atoms: CA_1521  and  CB_1524
REMARK  466  A    between atoms: CB_1524  and  OG1_1525
REMARK  467  A    between atoms: CB_1524  and  CG2_1526
REMARK  468  A    between atoms: N_1534  and  CA_1535
REMARK  469  A    between atoms: CA_1535  and  C_1536
REMARK  470  A    between atoms: CA_1535  and  CB_1538
REMARK  471  A    between atoms: CB_1538  and  CG_1539
REMARK  472  A    between atoms: N_1551  and  CA_1552
REMARK  473  A    between atoms: CA_1552  and  C_1553
REMARK  474  A    between atoms: CA_1552  and  CB_1555
REMARK  475  A    between atoms: CB_1555  and  CG_1556
REMARK  476  A    between atoms: CG_1556  and  OD2_1558
REMARK  477  A    between atoms: N_1564  and  CA_1565
REMARK  478  A    between atoms: CA_1565  and  C_1566
REMARK  479  A    between atoms: CA_1565  and  CB_1568
REMARK  480  A    between atoms: CB_1568  and  CG1_1569
REMARK  481  A    between atoms: CB_1568  and  CG2_1570
REMARK  482  A    between atoms: N_1580  and  CA_1581
REMARK  483  A    between atoms: CA_1581  and  C_1582
REMARK  484  A    between atoms: CA_1581  and  CB_1584
REMARK  485  A    between atoms: CB_1584  and  CG1_1585
REMARK  486  A    between atoms: CB_1584  and  CG2_1586
REMARK  487  A    between atoms: N_1596  and  CA_1597
REMARK  488  A    between atoms: CA_1597  and  C_1598
REMARK  489  A    between atoms: CA_1597  and  CB_1600
REMARK  490  A    between atoms: N_1606  and  CA_1607
REMARK  491  A    between atoms: CA_1607  and  C_1608
REMARK  492  A    between atoms: CA_1607  and  CB_1610
REMARK  493  A    between atoms: CB_1610  and  CG_1611
REMARK  494  A    between atoms: N_1623  and  CA_1624
REMARK  495  A    between atoms: CA_1624  and  C_1625
REMARK  496  A    between atoms: CA_1624  and  CB_1627
REMARK  497  A    between atoms: CB_1627  and  CG_1628
REMARK  498  A    between atoms: CG_1628  and  CD_1629
REMARK  499  A    between atoms: CD_1629  and  OE2_1631
REMARK  500  A    between atoms: N_1639  and  CA_1640
REMARK  501  A    between atoms: CA_1640  and  C_1641
REMARK  502  A    between atoms: CA_1640  and  CB_1643
REMARK  503  A    between atoms: CB_1643  and  CG1_1644
REMARK  504  A    between atoms: CB_1643  and  CG2_1645
REMARK  505  A    between atoms: N_1655  and  CA_1656
REMARK  506  A    between atoms: CA_1656  and  C_1657
REMARK  507  A    between atoms: CA_1656  and  CB_1659
REMARK  508  A    between atoms: CB_1659  and  CG_1660
REMARK  509  A    between atoms: CZ_1665  and  OH_1666
REMARK  510  A    between atoms: N_1676  and  CA_1677
REMARK  511  A    between atoms: CA_1677  and  C_1678
REMARK  512  A    between atoms: CA_1677  and  CB_1680
REMARK  513  A    between atoms: CB_1680  and  OG_1681
REMARK  514  A    between atoms: N_1687  and  CA_1688
REMARK  515  A    between atoms: CA_1688  and  C_1689
REMARK  516  A    between atoms: CA_1688  and  CB_1691
REMARK  517  A    between atoms: CB_1691  and  CG_1692
REMARK  518  A    between atoms: CG_1692  and  OD2_1694
REMARK  519  A    between atoms: N_1700  and  CA_1701
REMARK  520  A    between atoms: CA_1701  and  C_1702
REMARK  521  A    between atoms: CA_1701  and  CB_1704
REMARK  522  A    between atoms: CB_1704  and  CG_1705
REMARK  523  A    between atoms: CG_1705  and  CD_1706
REMARK  524  A    between atoms: CD_1706  and  OE2_1708
REMARK  525  A    between atoms: N_1716  and  CA_1717
REMARK  526  A    between atoms: CA_1717  and  C_1718
REMARK  527  A    between atoms: CA_1717  and  CB_1720
REMARK                            x       y       z     vdW  Elec       q    Type
REMARK                         _______ _______ _______ _____ _____    ______ ____
ROOT
ATOM      1  CA  LYS B 132     -20.747   1.836  -3.125  0.00  0.00    +0.000 C 
ENDROOT
BRANCH   1   2
ATOM      2  C   LYS B 132     -20.194   1.043  -4.311  0.00  0.00    +0.000 C 
ATOM      3  O   LYS B 132     -19.184   0.352  -4.183  0.00  0.00    +0.000 OA
ATOM      4  N   ARG B 133     -20.880   1.170  -5.438  0.00  0.00    +0.000 N 
ATOM      5  H   ARG B 133     -21.698   1.735  -5.534  0.00  0.00    +0.000 HD
BRANCH   4   6
ATOM      6  CA  ARG B 133     -20.469   0.473  -6.645  0.00  0.00    +0.000 C 
BRANCH   6   7
ATOM      7  C   ARG B 133     -19.213   1.122  -7.231  0.00  0.00    +0.000 C 
ATOM      8  O   ARG B 133     -18.242   0.435  -7.540  0.00  0.00    +0.000 OA
ATOM      9  N   ILE B 134     -19.275   2.439  -7.368  0.00  0.00    +0.000 N 
ATOM     10  H   ILE B 134     -20.070   2.990  -7.115  0.00  0.00    +0.000 HD
BRANCH   9  11
ATOM     11  CA  ILE B 134     -18.156   3.188  -7.913  0.00  0.00    +0.000 C 
BRANCH  11  12
ATOM     12  C   ILE B 134     -16.953   3.050  -6.977  0.00  0.00    +0.000 C 
ATOM     13  O   ILE B 134     -15.817   3.296  -7.380  0.00  0.00    +0.000 OA
ATOM     14  N   LEU B 135     -17.244   2.659  -5.744  0.00  0.00    +0.000 N 
ATOM     15  H   LEU B 135     -18.170   2.461  -5.424  0.00  0.00    +0.000 HD
BRANCH  14  16
ATOM     16  CA  LEU B 135     -16.200   2.486  -4.749  0.00  0.00    +0.000 C 
BRANCH  16  17
ATOM     17  C   LEU B 135     -15.329   1.286  -5.132  0.00  0.00    +0.000 C 
ATOM     18  O   LEU B 135     -14.290   1.049  -4.517  0.00  0.00    +0.000 OA
ATOM     19  N   THR B 136     -15.785   0.565  -6.144  0.00  0.00    +0.000 N 
ATOM     20  H   THR B 136     -16.630   0.765  -6.638  0.00  0.00    +0.000 HD
BRANCH  19  21
ATOM     21  CA  THR B 136     -15.061  -0.603  -6.615  0.00  0.00    +0.000 C 
BRANCH  21  22
ATOM     22  C   THR B 136     -14.409  -0.316  -7.970  0.00  0.00    +0.000 C 
ATOM     23  O   THR B 136     -14.977  -0.629  -9.015  0.00  0.00    +0.000 OA
ATOM     24  N   GLN B 137     -13.226   0.277  -7.907  0.00  0.00    +0.000 N 
ATOM     25  H   GLN B 137     -12.771   0.528  -7.053  0.00  0.00    +0.000 HD
BRANCH  24  26
ATOM     26  CA  GLN B 137     -12.491   0.609  -9.115  0.00  0.00    +0.000 C 
BRANCH  26  27
ATOM     27  C   GLN B 137     -11.192  -0.196  -9.186  0.00  0.00    +0.000 C 
ATOM     28  O   GLN B 137     -10.895  -0.982  -8.286  0.00  0.00    +0.000 OA
ATOM     29  N   PRO B 138     -10.433   0.032 -10.290  0.00  0.00    +0.000 N 
ATOM     30  CA  PRO B 138      -9.173  -0.662 -10.491  0.00  0.00    +0.000 C 
ATOM     31  CB  PRO B 138      -8.861  -0.495 -11.969  0.00  0.00    +0.000 C 
ATOM     32  CG  PRO B 138      -9.710   0.673 -12.445  0.00  0.00    +0.000 C 
ATOM     33  CD  PRO B 138     -10.754   0.956 -11.376  0.00  0.00    +0.000 C 
BRANCH  30  34
ATOM     34  C   PRO B 138      -8.082  -0.092  -9.582  0.00  0.00    +0.000 C 
ATOM     35  O   PRO B 138      -6.944  -0.557  -9.606  0.00  0.00    +0.000 OA
ATOM     36  N   HIS B 139      -8.469   0.905  -8.801  0.00  0.00    +0.000 N 
ATOM     37  H   HIS B 139      -9.398   1.277  -8.786  0.00  0.00    +0.000 HD
BRANCH  36  38
ATOM     38  CA  HIS B 139      -7.539   1.543  -7.885  0.00  0.00    +0.000 C 
BRANCH  38  39
ATOM     39  C   HIS B 139      -7.780   1.027  -6.466  0.00  0.00    +0.000 C 
ATOM     40  O   HIS B 139      -6.862   0.520  -5.822  0.00  0.00    +0.000 OA
ATOM     41  N   PHE B 140      -9.018   1.173  -6.018  0.00  0.00    +0.000 N 
ATOM     42  H   PHE B 140      -9.759   1.587  -6.549  0.00  0.00    +0.000 HD
BRANCH  41  43
ATOM     43  CA  PHE B 140      -9.391   0.728  -4.686  0.00  0.00    +0.000 C 
BRANCH  43  44
ATOM     44  C   PHE B 140      -9.593  -0.788  -4.652  0.00  0.00    +0.000 C 
ATOM     45  O   PHE B 140      -8.772  -1.515  -4.094  0.00  0.00    +0.000 OA
ATOM     46  N   MET B 141     -10.690  -1.221  -5.257  0.00  0.00    +0.000 N 
ATOM     47  H   MET B 141     -11.352  -0.623  -5.709  0.00  0.00    +0.000 HD
BRANCH  46  48
ATOM     48  CA  MET B 141     -11.010  -2.637  -5.302  0.00  0.00    +0.000 C 
BRANCH  48  49
ATOM     49  C   MET B 141      -9.798  -3.460  -5.742  0.00  0.00    +0.000 C 
ATOM     50  O   MET B 141      -9.674  -4.630  -5.383  0.00  0.00    +0.000 OA
ATOM     51  N   ALA B 142      -8.931  -2.816  -6.510  0.00  0.00    +0.000 N 
ATOM     52  H   ALA B 142      -9.040  -1.863  -6.795  0.00  0.00    +0.000 HD
BRANCH  51  53
ATOM     53  CA  ALA B 142      -7.733  -3.472  -7.001  0.00  0.00    +0.000 C 
ATOM     54  CB  ALA B 142      -7.175  -2.693  -8.194  0.00  0.00    +0.000 C 
BRANCH  53  55
ATOM     55  C   ALA B 142      -6.719  -3.596  -5.860  0.00  0.00    +0.000 C 
ATOM     56  O   ALA B 142      -5.973  -4.570  -5.791  0.00  0.00    +0.000 OA
ATOM     57  N   LEU B 143      -6.727  -2.593  -4.994  0.00  0.00    +0.000 N 
ATOM     58  H   LEU B 143      -7.338  -1.802  -5.059  0.00  0.00    +0.000 HD
BRANCH  57  59
ATOM     59  CA  LEU B 143      -5.818  -2.575  -3.861  0.00  0.00    +0.000 C 
BRANCH  59  60
ATOM     60  C   LEU B 143      -6.289  -3.594  -2.820  0.00  0.00    +0.000 C 
ATOM     61  O   LEU B 143      -5.472  -4.228  -2.154  0.00  0.00    +0.000 OA
ATOM     62  N   LEU B 144      -7.603  -3.721  -2.716  0.00  0.00    +0.000 N 
ATOM     63  H   LEU B 144      -8.261  -3.201  -3.262  0.00  0.00    +0.000 HD
BRANCH  62  64
ATOM     64  CA  LEU B 144      -8.192  -4.652  -1.768  0.00  0.00    +0.000 C 
BRANCH  64  65
ATOM     65  C   LEU B 144      -7.744  -6.073  -2.112  0.00  0.00    +0.000 C 
ATOM     66  O   LEU B 144      -7.447  -6.868  -1.221  0.00  0.00    +0.000 OA
ATOM     67  N   GLN B 145      -7.708  -6.352  -3.407  0.00  0.00    +0.000 N 
ATOM     68  H   GLN B 145      -7.950  -5.700  -4.125  0.00  0.00    +0.000 HD
BRANCH  67  69
ATOM     69  CA  GLN B 145      -7.302  -7.664  -3.879  0.00  0.00    +0.000 C 
BRANCH  69  70
ATOM     70  C   GLN B 145      -5.780  -7.809  -3.798  0.00  0.00    +0.000 C 
ATOM     71  O   GLN B 145      -5.252  -8.915  -3.908  0.00  0.00    +0.000 OA
ATOM     72  N   THR B 146      -5.119  -6.678  -3.605  0.00  0.00    +0.000 N 
ATOM     73  H   THR B 146      -5.556  -5.783  -3.517  0.00  0.00    +0.000 HD
BRANCH  72  74
ATOM     74  CA  THR B 146      -3.669  -6.666  -3.508  0.00  0.00    +0.000 C 
BRANCH  74  75
ATOM     75  C   THR B 146      -3.233  -6.701  -2.042  0.00  0.00    +0.000 C 
ATOM     76  O   THR B 146      -2.067  -6.952  -1.744  0.00  0.00    +0.000 OA
ATOM     77  N   HIS B 147      -4.193  -6.445  -1.166  0.00  0.00    +0.000 N 
ATOM     78  H   HIS B 147      -5.140  -6.242  -1.418  0.00  0.00    +0.000 HD
BRANCH  77  79
ATOM     79  CA  HIS B 147      -3.923  -6.444   0.261  0.00  0.00    +0.000 C 
BRANCH  79  80
ATOM     80  C   HIS B 147      -4.594  -7.657   0.912  0.00  0.00    +0.000 C 
ATOM     81  O   HIS B 147      -4.088  -8.198   1.894  0.00  0.00    +0.000 OA
ATOM     82  N   ASP B 148      -5.723  -8.046   0.338  0.00  0.00    +0.000 N 
ATOM     83  H   ASP B 148      -6.128  -7.600  -0.462  0.00  0.00    +0.000 HD
BRANCH  82  84
ATOM     84  CA  ASP B 148      -6.468  -9.185   0.849  0.00  0.00    +0.000 C 
BRANCH  84  85
ATOM     85  C   ASP B 148      -5.643 -10.458   0.652  0.00  0.00    +0.000 C 
ATOM     86  O   ASP B 148      -5.942 -11.493   1.246  0.00  0.00    +0.000 OA
ATOM     87  N   VAL B 149      -4.621 -10.341  -0.183  0.00  0.00    +0.000 N 
ATOM     88  H   VAL B 149      -4.385  -9.497  -0.661  0.00  0.00    +0.000 HD
BRANCH  87  89
ATOM     89  CA  VAL B 149      -3.751 -11.470  -0.465  0.00  0.00    +0.000 C 
BRANCH  89  90
ATOM     90  C   VAL B 149      -3.098 -11.940   0.837  0.00  0.00    +0.000 C 
ATOM     91  O   VAL B 149      -3.096 -13.134   1.139  0.00  0.00    +0.000 OA
ATOM     92  N   VAL B 150      -2.558 -10.980   1.571  0.00  0.00    +0.000 N 
ATOM     93  H   VAL B 150      -2.563 -10.013   1.319  0.00  0.00    +0.000 HD
BRANCH  92  94
ATOM     94  CA  VAL B 150      -1.902 -11.281   2.834  0.00  0.00    +0.000 C 
BRANCH  94  95
ATOM     95  C   VAL B 150      -2.962 -11.504   3.913  0.00  0.00    +0.000 C 
ATOM     96  O   VAL B 150      -2.822 -12.394   4.751  0.00  0.00    +0.000 OA
ATOM     97  N   ALA B 151      -3.998 -10.679   3.860  0.00  0.00    +0.000 N 
ATOM     98  H   ALA B 151      -4.104  -9.958   3.176  0.00  0.00    +0.000 HD
BRANCH  97  99
ATOM     99  CA  ALA B 151      -5.081 -10.775   4.824  0.00  0.00    +0.000 C 
ATOM    100  CB  ALA B 151      -6.168  -9.757   4.474  0.00  0.00    +0.000 C 
BRANCH  99 101
ATOM    101  C   ALA B 151      -5.613 -12.211   4.848  0.00  0.00    +0.000 C 
ATOM    102  O   ALA B 151      -5.885 -12.757   5.915  0.00  0.00    +0.000 OA
ATOM    103  N   HIS B 152      -5.743 -12.778   3.659  0.00  0.00    +0.000 N 
ATOM    104  H   HIS B 152      -5.518 -12.326   2.795  0.00  0.00    +0.000 HD
BRANCH 103 105
ATOM    105  CA  HIS B 152      -6.235 -14.140   3.528  0.00  0.00    +0.000 C 
BRANCH 105 106
ATOM    106  C   HIS B 152      -5.144 -15.123   3.952  0.00  0.00    +0.000 C 
ATOM    107  O   HIS B 152      -5.438 -16.202   4.463  0.00  0.00    +0.000 OA
ATOM    108  N   GLU B 153      -3.903 -14.716   3.721  0.00  0.00    +0.000 N 
ATOM    109  H   GLU B 153      -3.672 -13.837   3.304  0.00  0.00    +0.000 HD
BRANCH 108 110
ATOM    110  CA  GLU B 153      -2.765 -15.549   4.072  0.00  0.00    +0.000 C 
BRANCH 110 111
ATOM    111  C   GLU B 153      -2.505 -15.486   5.578  0.00  0.00    +0.000 C 
ATOM    112  O   GLU B 153      -1.928 -16.408   6.151  0.00  0.00    +0.000 OA
ATOM    113  N   VAL B 154      -2.944 -14.388   6.176  0.00  0.00    +0.000 N 
ATOM    114  H   VAL B 154      -3.411 -13.642   5.704  0.00  0.00    +0.000 HD
BRANCH 113 115
ATOM    115  CA  VAL B 154      -2.765 -14.191   7.606  0.00  0.00    +0.000 C 
BRANCH 115 116
ATOM    116  C   VAL B 154      -3.223 -15.448   8.349  0.00  0.00    +0.000 C 
ATOM    117  O   VAL B 154      -2.671 -15.793   9.393  0.00  0.00    +0.000 OA
ATOM    118  N   TYR B 155      -4.228 -16.100   7.781  0.00  0.00    +0.000 N 
ATOM    119  H   TYR B 155      -4.671 -15.814   6.931  0.00  0.00    +0.000 HD
BRANCH 118 120
ATOM    120  CA  TYR B 155      -4.766 -17.312   8.377  0.00  0.00    +0.000 C 
BRANCH 120 121
ATOM    121  C   TYR B 155      -4.534 -18.520   7.468  0.00  0.00    +0.000 C 
ATOM    122  O   TYR B 155      -5.371 -19.417   7.395  0.00  0.00    +0.000 OA
ATOM    123  N   SER B 156      -3.392 -18.503   6.795  0.00  0.00    +0.000 N 
ATOM    124  H   SER B 156      -2.717 -17.768   6.859  0.00  0.00    +0.000 HD
BRANCH 123 125
ATOM    125  CA  SER B 156      -3.040 -19.586   5.893  0.00  0.00    +0.000 C 
BRANCH 125 126
ATOM    126  C   SER B 156      -3.547 -20.918   6.450  0.00  0.00    +0.000 C 
ATOM    127  O   SER B 156      -3.167 -21.319   7.549  0.00  0.00    +0.000 OA
ATOM    128  N   ASP B 157      -4.396 -21.567   5.667  0.00  0.00    +0.000 N 
ATOM    129  H   ASP B 157      -4.699 -21.233   4.774  0.00  0.00    +0.000 HD
BRANCH 128 130
ATOM    130  CA  ASP B 157      -4.957 -22.844   6.069  0.00  0.00    +0.000 C 
BRANCH 130 131
ATOM    131  C   ASP B 157      -3.831 -23.766   6.540  0.00  0.00    +0.000 C 
ATOM    132  O   ASP B 157      -2.971 -24.154   5.750  0.00  0.00    +0.000 OA
ATOM    133  N   GLU B 158      -3.874 -24.091   7.824  0.00  0.00    +0.000 N 
ATOM    134  H   GLU B 158      -4.577 -23.771   8.458  0.00  0.00    +0.000 HD
BRANCH 133 135
ATOM    135  CA  GLU B 158      -2.868 -24.960   8.409  0.00  0.00    +0.000 C 
BRANCH 135 136
ATOM    136  C   GLU B 158      -2.857 -26.314   7.697  0.00  0.00    +0.000 C 
ATOM    137  O   GLU B 158      -1.943 -27.115   7.893  0.00  0.00    +0.000 OA
ATOM    138  N   ALA B 159      -3.883 -26.529   6.887  0.00  0.00    +0.000 N 
ATOM    139  H   ALA B 159      -4.621 -25.873   6.734  0.00  0.00    +0.000 HD
BRANCH 138 140
ATOM    140  CA  ALA B 159      -4.003 -27.773   6.145  0.00  0.00    +0.000 C 
ATOM    141  CB  ALA B 159      -5.387 -27.848   5.496  0.00  0.00    +0.000 C 
BRANCH 140 142
ATOM    142  C   ALA B 159      -2.873 -27.861   5.119  0.00  0.00    +0.000 C 
ATOM    143  O   ALA B 159      -2.353 -28.943   4.853  0.00  0.00    +0.000 OA
ATOM    144  OXT ALA B 159      -2.845 -26.612   4.822  0.00  0.00    +0.000 OA
ENDBRANCH 140 142
ENDBRANCH 138 140
ENDBRANCH 135 136
BRANCH 135 145
ATOM    145  CB  GLU B 158      -3.098 -25.132   9.913  0.00  0.00    +0.000 C 
BRANCH 145 146
ATOM    146  CG  GLU B 158      -1.769 -25.253  10.661  0.00  0.00    +0.000 C 
BRANCH 146 147
ATOM    147  CD  GLU B 158      -1.656 -24.187  11.753  0.00  0.00    +0.000 C 
ATOM    148  OE1 GLU B 158      -0.769 -23.323  11.687  0.00  0.00    +0.000 OA
BRANCH 147 149
ATOM    149  OE2 GLU B 158      -2.532 -24.278  12.695  0.00  0.00    +0.000 OA
ATOM    150  HE2 GLU B 158      -2.159 -24.801  13.460  0.00  0.00    +0.000 HD
ENDBRANCH 147 149
ENDBRANCH 146 147
ENDBRANCH 145 146
ENDBRANCH 135 145
ENDBRANCH 133 135
ENDBRANCH 130 131
BRANCH 130 151
ATOM    151  CB  ASP B 157      -5.668 -23.526   4.897  0.00  0.00    +0.000 C 
BRANCH 151 152
ATOM    152  CG  ASP B 157      -6.572 -24.699   5.284  0.00  0.00    +0.000 C 
ATOM    153  OD1 ASP B 157      -6.560 -25.163   6.434  0.00  0.00    +0.000 OA
BRANCH 152 154
ATOM    154  OD2 ASP B 157      -7.323 -25.144   4.336  0.00  0.00    +0.000 OA
ATOM    155  HD2 ASP B 157      -8.236 -25.351   4.689  0.00  0.00    +0.000 HD
ENDBRANCH 152 154
ENDBRANCH 151 152
ENDBRANCH 130 151
ENDBRANCH 128 130
ENDBRANCH 125 126
BRANCH 125 156
ATOM    156  CB  SER B 156      -1.527 -19.646   5.668  0.00  0.00    +0.000 C 
BRANCH 156 157
ATOM    157  OG  SER B 156      -1.070 -18.584   4.834  0.00  0.00    +0.000 OA
ATOM    158  HG  SER B 156      -0.433 -18.940   4.148  0.00  0.00    +0.000 HD
ENDBRANCH 156 157
ENDBRANCH 125 156
ENDBRANCH 123 125
ENDBRANCH 120 121
BRANCH 120 159
ATOM    159  CB  TYR B 155      -6.271 -17.077   8.521  0.00  0.00    +0.000 C 
BRANCH 159 160
ATOM    160  CG  TYR B 155      -7.072 -17.392   7.256  0.00  0.00    +0.000 A 
ATOM    161  CD1 TYR B 155      -7.715 -18.608   7.131  0.00  0.00    +0.000 A 
ATOM    162  CD2 TYR B 155      -7.154 -16.462   6.241  0.00  0.00    +0.000 A 
ATOM    163  CE1 TYR B 155      -8.470 -18.904   5.942  0.00  0.00    +0.000 A 
ATOM    164  CE2 TYR B 155      -7.909 -16.758   5.051  0.00  0.00    +0.000 A 
ATOM    165  CZ  TYR B 155      -8.530 -17.966   4.960  0.00  0.00    +0.000 A 
BRANCH 165 166
ATOM    166  OH  TYR B 155      -9.243 -18.245   3.836  0.00  0.00    +0.000 OA
ATOM    167  HH  TYR B 155      -8.725 -18.865   3.247  0.00  0.00    +0.000 HD
ENDBRANCH 165 166
ENDBRANCH 159 160
ENDBRANCH 120 159
ENDBRANCH 118 120
ENDBRANCH 115 116
BRANCH 115 168
ATOM    168  CB  VAL B 154      -3.502 -12.929   8.057  0.00  0.00    +0.000 C 
ATOM    169  CG1 VAL B 154      -4.821 -13.281   8.747  0.00  0.00    +0.000 C 
ATOM    170  CG2 VAL B 154      -2.618 -12.075   8.967  0.00  0.00    +0.000 C 
ENDBRANCH 115 168
ENDBRANCH 113 115
ENDBRANCH 110 111
BRANCH 110 171
ATOM    171  CB  GLU B 153      -1.521 -15.136   3.283  0.00  0.00    +0.000 C 
BRANCH 171 172
ATOM    172  CG  GLU B 153      -0.541 -14.363   4.168  0.00  0.00    +0.000 C 
BRANCH 172 173
ATOM    173  CD  GLU B 153       0.341 -15.321   4.975  0.00  0.00    +0.000 C 
ATOM    174  OE1 GLU B 153       0.195 -16.547   4.856  0.00  0.00    +0.000 OA
BRANCH 173 175
ATOM    175  OE2 GLU B 153       1.204 -14.749   5.745  0.00  0.00    +0.000 OA
ATOM    176  HE2 GLU B 153       0.744 -14.103   6.353  0.00  0.00    +0.000 HD
ENDBRANCH 173 175
ENDBRANCH 172 173
ENDBRANCH 171 172
ENDBRANCH 110 171
ENDBRANCH 108 110
ENDBRANCH 105 106
BRANCH 105 177
ATOM    177  CB  HIS B 152      -6.751 -14.398   2.112  0.00  0.00    +0.000 C 
BRANCH 177 178
ATOM    178  CG  HIS B 152      -5.889 -15.343   1.307  0.00  0.00    +0.000 A 
ATOM    179  ND1 HIS B 152      -4.714 -14.947   0.695  0.00  0.00    +0.000 N 
ATOM    180  CD2 HIS B 152      -6.045 -16.668   1.025  0.00  0.00    +0.000 A 
ATOM    181  CE1 HIS B 152      -4.193 -15.994   0.072  0.00  0.00    +0.000 A 
ATOM    182  NE2 HIS B 152      -5.020 -17.059   0.277  0.00  0.00    +0.000 NA
ATOM    183  HD1 HIS B 152      -4.322 -14.026   0.718  0.00  0.00    +0.000 HD
ENDBRANCH 177 178
ENDBRANCH 105 177
ENDBRANCH 103 105
ENDBRANCH  99 101
ENDBRANCH  97  99
ENDBRANCH  94  95
BRANCH  94 184
ATOM    184  CB  VAL B 150      -0.912 -10.169   3.187  0.00  0.00    +0.000 C 
ATOM    185  CG1 VAL B 150      -0.102  -9.744   1.960  0.00  0.00    +0.000 C 
ATOM    186  CG2 VAL B 150      -1.631  -8.972   3.811  0.00  0.00    +0.000 C 
ENDBRANCH  94 184
ENDBRANCH  92  94
ENDBRANCH  89  90
BRANCH  89 187
ATOM    187  CB  VAL B 149      -2.735 -11.092  -1.541  0.00  0.00    +0.000 C 
ATOM    188  CG1 VAL B 149      -1.668 -12.177  -1.695  0.00  0.00    +0.000 C 
ATOM    189  CG2 VAL B 149      -3.427 -10.811  -2.876  0.00  0.00    +0.000 C 
ENDBRANCH  89 187
ENDBRANCH  87  89
ENDBRANCH  84  85
BRANCH  84 190
ATOM    190  CB  ASP B 148      -7.791  -9.358   0.099  0.00  0.00    +0.000 C 
BRANCH 190 191
ATOM    191  CG  ASP B 148      -8.394 -10.762   0.169  0.00  0.00    +0.000 C 
ATOM    192  OD1 ASP B 148      -8.779 -11.237   1.248  0.00  0.00    +0.000 OA
BRANCH 191 193
ATOM    193  OD2 ASP B 148      -8.464 -11.383  -0.959  0.00  0.00    +0.000 OA
ATOM    194  HD2 ASP B 148      -8.816 -10.771  -1.666  0.00  0.00    +0.000 HD
ENDBRANCH 191 193
ENDBRANCH 190 191
ENDBRANCH  84 190
ENDBRANCH  82  84
ENDBRANCH  79  80
BRANCH  79 195
ATOM    195  CB  HIS B 147      -4.352  -5.119   0.895  0.00  0.00    +0.000 C 
BRANCH 195 196
ATOM    196  CG  HIS B 147      -3.964  -4.980   2.348  0.00  0.00    +0.000 A 
ATOM    197  ND1 HIS B 147      -3.509  -6.043   3.108  0.00  0.00    +0.000 N 
ATOM    198  CD2 HIS B 147      -3.969  -3.892   3.171  0.00  0.00    +0.000 A 
ATOM    199  CE1 HIS B 147      -3.255  -5.604   4.332  0.00  0.00    +0.000 A 
ATOM    200  NE2 HIS B 147      -3.541  -4.270   4.369  0.00  0.00    +0.000 NA
ATOM    201  HD1 HIS B 147      -3.393  -6.984   2.788  0.00  0.00    +0.000 HD
ENDBRANCH 195 196
ENDBRANCH  79 195
ENDBRANCH  77  79
ENDBRANCH  74  75
BRANCH  74 202
ATOM    202  CB  THR B 146      -3.156  -5.440  -4.266  0.00  0.00    +0.000 C 
ATOM    203  CG2 THR B 146      -1.704  -5.101  -3.916  0.00  0.00    +0.000 C 
BRANCH 202 204
ATOM    204  OG1 THR B 146      -3.093  -5.871  -5.623  0.00  0.00    +0.000 OA
ATOM    205  HG1 THR B 146      -3.987  -6.214  -5.914  0.00  0.00    +0.000 HD
ENDBRANCH 202 204
ENDBRANCH  74 202
ENDBRANCH  72  74
ENDBRANCH  69  70
BRANCH  69 206
ATOM    206  CB  GLN B 145      -7.801  -7.912  -5.305  0.00  0.00    +0.000 C 
BRANCH 206 207
ATOM    207  CG  GLN B 145      -6.711  -7.595  -6.331  0.00  0.00    +0.000 C 
BRANCH 207 208
ATOM    208  CD  GLN B 145      -7.321  -7.256  -7.691  0.00  0.00    +0.000 C 
ATOM    209  OE1 GLN B 145      -8.517  -7.057  -7.832  0.00  0.00    +0.000 OA
ATOM    210  NE2 GLN B 145      -6.437  -7.204  -8.683  0.00  0.00    +0.000 N 
ATOM    211 HE21 GLN B 145      -5.469  -7.376  -8.500  0.00  0.00    +0.000 HD
ATOM    212 HE22 GLN B 145      -6.740  -6.990  -9.612  0.00  0.00    +0.000 HD
ENDBRANCH 207 208
ENDBRANCH 206 207
ENDBRANCH  69 206
ENDBRANCH  67  69
ENDBRANCH  64  65
BRANCH  64 213
ATOM    213  CB  LEU B 144      -9.712  -4.480  -1.721  0.00  0.00    +0.000 C 
BRANCH 213 214
ATOM    214  CG  LEU B 144     -10.222  -3.039  -1.647  0.00  0.00    +0.000 C 
ATOM    215  CD1 LEU B 144     -11.751  -3.000  -1.617  0.00  0.00    +0.000 C 
ATOM    216  CD2 LEU B 144      -9.605  -2.300  -0.458  0.00  0.00    +0.000 C 
ENDBRANCH 213 214
ENDBRANCH  64 213
ENDBRANCH  62  64
ENDBRANCH  59  60
BRANCH  59 217
ATOM    217  CB  LEU B 143      -5.675  -1.155  -3.311  0.00  0.00    +0.000 C 
BRANCH 217 218
ATOM    218  CG  LEU B 143      -6.541  -0.817  -2.095  0.00  0.00    +0.000 C 
ATOM    219  CD1 LEU B 143      -6.062  -1.571  -0.853  0.00  0.00    +0.000 C 
ATOM    220  CD2 LEU B 143      -6.596   0.694  -1.862  0.00  0.00    +0.000 C 
ENDBRANCH 217 218
ENDBRANCH  59 217
ENDBRANCH  57  59
ENDBRANCH  53  55
ENDBRANCH  51  53
ENDBRANCH  48  49
BRANCH  48 221
ATOM    221  CB  MET B 141     -12.166  -2.869  -6.280  0.00  0.00    +0.000 C 
BRANCH 221 222
ATOM    222  CG  MET B 141     -12.394  -4.364  -6.514  0.00  0.00    +0.000 C 
BRANCH 222 223
ATOM    223  SD  MET B 141     -13.370  -5.047  -5.185  0.00  0.00    +0.000 S 
ATOM    224  CE  MET B 141     -12.078  -5.415  -4.009  0.00  0.00    +0.000 C 
ENDBRANCH 222 223
ENDBRANCH 221 222
ENDBRANCH  48 221
ENDBRANCH  46  48
ENDBRANCH  43  44
BRANCH  43 225
ATOM    225  CB  PHE B 140     -10.713   1.415  -4.339  0.00  0.00    +0.000 C 
BRANCH 225 226
ATOM    226  CG  PHE B 140     -10.674   2.216  -3.037  0.00  0.00    +0.000 A 
ATOM    227  CD1 PHE B 140     -11.701   2.120  -2.149  0.00  0.00    +0.000 A 
ATOM    228  CD2 PHE B 140      -9.615   3.025  -2.767  0.00  0.00    +0.000 A 
ATOM    229  CE1 PHE B 140     -11.665   2.864  -0.940  0.00  0.00    +0.000 A 
ATOM    230  CE2 PHE B 140      -9.581   3.769  -1.559  0.00  0.00    +0.000 A 
ATOM    231  CZ  PHE B 140     -10.606   3.672  -0.669  0.00  0.00    +0.000 A 
ENDBRANCH 225 226
ENDBRANCH  43 225
ENDBRANCH  41  43
ENDBRANCH  38  39
BRANCH  38 232
ATOM    232  CB  HIS B 139      -7.636   3.067  -7.987  0.00  0.00    +0.000 C 
BRANCH 232 233
ATOM    233  CG  HIS B 139      -8.425   3.554  -9.177  0.00  0.00    +0.000 A 
ATOM    234  ND1 HIS B 139      -9.714   4.051  -9.071  0.00  0.00    +0.000 N 
ATOM    235  CD2 HIS B 139      -8.097   3.617 -10.499  0.00  0.00    +0.000 A 
ATOM    236  CE1 HIS B 139     -10.131   4.393 -10.281  0.00  0.00    +0.000 A 
ATOM    237  NE2 HIS B 139      -9.128   4.123 -11.164  0.00  0.00    +0.000 NA
ATOM    238  HD1 HIS B 139     -10.239   4.136  -8.224  0.00  0.00    +0.000 HD
ENDBRANCH 232 233
ENDBRANCH  38 232
ENDBRANCH  36  38
ENDBRANCH  30  34
ENDBRANCH  26  27
BRANCH  26 239
ATOM    239  CB  GLN B 137     -12.209   2.112  -9.189  0.00  0.00    +0.000 C 
BRANCH 239 240
ATOM    240  CG  GLN B 137     -13.220   2.901  -8.354  0.00  0.00    +0.000 C 
BRANCH 240 241
ATOM    241  CD  GLN B 137     -14.126   3.750  -9.249  0.00  0.00    +0.000 C 
ATOM    242  OE1 GLN B 137     -13.966   4.953  -9.376  0.00  0.00    +0.000 OA
ATOM    243  NE2 GLN B 137     -15.084   3.058  -9.859  0.00  0.00    +0.000 N 
ATOM    244 HE21 GLN B 137     -15.160   2.072  -9.711  0.00  0.00    +0.000 HD
ATOM    245 HE22 GLN B 137     -15.728   3.525 -10.465  0.00  0.00    +0.000 HD
ENDBRANCH 240 241
ENDBRANCH 239 240
ENDBRANCH  26 239
ENDBRANCH  24  26
ENDBRANCH  21  22
BRANCH  21 246
ATOM    246  CB  THR B 136     -16.035  -1.783  -6.647  0.00  0.00    +0.000 C 
ATOM    247  CG2 THR B 136     -17.119  -1.676  -5.574  0.00  0.00    +0.000 C 
BRANCH 246 248
ATOM    248  OG1 THR B 136     -16.742  -1.614  -7.873  0.00  0.00    +0.000 OA
ATOM    249  HG1 THR B 136     -17.348  -0.822  -7.813  0.00  0.00    +0.000 HD
ENDBRANCH 246 248
ENDBRANCH  21 246
ENDBRANCH  19  21
ENDBRANCH  16  17
BRANCH  16 250
ATOM    250  CB  LEU B 135     -16.808   2.382  -3.348  0.00  0.00    +0.000 C 
BRANCH 250 251
ATOM    251  CG  LEU B 135     -16.100   3.177  -2.249  0.00  0.00    +0.000 C 
ATOM    252  CD1 LEU B 135     -14.784   2.508  -1.849  0.00  0.00    +0.000 C 
ATOM    253  CD2 LEU B 135     -15.897   4.634  -2.670  0.00  0.00    +0.000 C 
ENDBRANCH 250 251
ENDBRANCH  16 250
ENDBRANCH  14  16
ENDBRANCH  11  12
BRANCH  11 254
ATOM    254  CB  ILE B 134     -18.561   4.638  -8.183  0.00  0.00    +0.000 C 
ATOM    255  CG2 ILE B 134     -19.699   4.707  -9.204  0.00  0.00    +0.000 C 
BRANCH 254 256
ATOM    256  CG1 ILE B 134     -18.915   5.361  -6.881  0.00  0.00    +0.000 C 
ATOM    257  CD1 ILE B 134     -17.657   5.895  -6.192  0.00  0.00    +0.000 C 
ENDBRANCH 254 256
ENDBRANCH  11 254
ENDBRANCH   9  11
ENDBRANCH   6   7
BRANCH   6 258
ATOM    258  CB  ARG B 133     -21.581   0.490  -7.695  0.00  0.00    +0.000 C 
BRANCH 258 259
ATOM    259  CG  ARG B 133     -21.009   0.315  -9.103  0.00  0.00    +0.000 C 
BRANCH 259 260
ATOM    260  CD  ARG B 133     -22.042  -0.312 -10.041  0.00  0.00    +0.000 C 
BRANCH 260 261
ATOM    261  NE  ARG B 133     -21.372  -1.216 -11.001  0.00  0.00    +0.000 N 
ATOM    262  CZ  ARG B 133     -22.025  -2.049 -11.839  0.00  0.00    +0.000 C 
ATOM    263  NH1 ARG B 133     -23.374  -2.101 -11.842  0.00  0.00    +0.000 N 
ATOM    264  NH2 ARG B 133     -21.325  -2.814 -12.656  0.00  0.00    +0.000 N 
ATOM    265 HH22 ARG B 133     -20.139  -2.851 -12.794  0.00  0.00    +0.000 HD
ATOM    266  HE  ARG B 133     -20.372  -1.210 -11.032  0.00  0.00    +0.000 HD
ATOM    267 HH11 ARG B 133     -23.897  -1.518 -11.219  0.00  0.00    +0.000 HD
ATOM    268 HH12 ARG B 133     -23.850  -2.721 -12.465  0.00  0.00    +0.000 HD
ATOM    269 HH21 ARG B 133     -21.730  -3.457 -13.305  0.00  0.00    +0.000 HD
ENDBRANCH 260 261
ENDBRANCH 259 260
ENDBRANCH 258 259
ENDBRANCH   6 258
ENDBRANCH   4   6
ENDBRANCH   1   2
BRANCH   1 272
ATOM    270  C   LEU B 131     -20.588   4.044  -4.100  0.00  0.00    +0.000 C 
ATOM    271  O   LEU B 131     -19.361   3.999  -4.189  0.00  0.00    +0.000 OA
ATOM    272  N   LYS B 132     -21.340   3.071  -3.609  0.00  0.00    +0.000 N 
ATOM    273  H   LYS B 132     -22.337   3.116  -3.538  0.00  0.00    +0.000 HD
BRANCH 270 274
ATOM    274  CA  LEU B 131     -21.354   5.283  -4.569  0.00  0.00    +0.000 C 
BRANCH 274 277
ATOM    275  C   GLU B 130     -22.465   4.174  -6.409  0.00  0.00    +0.000 C 
ATOM    276  O   GLU B 130     -21.409   3.832  -6.939  0.00  0.00    +0.000 OA
ATOM    277  N   LEU B 131     -22.549   4.865  -5.282  0.00  0.00    +0.000 N 
ATOM    278  H   LEU B 131     -23.412   5.139  -4.857  0.00  0.00    +0.000 HD
BRANCH 275 279
ATOM    279  CA  GLU B 130     -23.807   3.806  -7.044  0.00  0.00    +0.000 C 
BRANCH 279 282
ATOM    280  C   LYS B 129     -24.884   2.724  -5.169  0.00  0.00    +0.000 C 
ATOM    281  O   LYS B 129     -24.082   1.791  -5.150  0.00  0.00    +0.000 OA
ATOM    282  N   GLU B 130     -24.843   3.732  -6.029  0.00  0.00    +0.000 N 
ATOM    283  H   GLU B 130     -25.499   4.486  -6.036  0.00  0.00    +0.000 HD
BRANCH 280 284
ATOM    284  CA  LYS B 129     -26.031   2.783  -4.158  0.00  0.00    +0.000 C 
BRANCH 284 287
ATOM    285  C   ALA B 128     -25.476   5.021  -3.431  0.00  0.00    +0.000 C 
ATOM    286  O   ALA B 128     -24.309   4.730  -3.173  0.00  0.00    +0.000 OA
ATOM    287  N   LYS B 129     -26.375   4.170  -3.902  0.00  0.00    +0.000 N 
ATOM    288  H   LYS B 129     -27.322   4.416  -4.109  0.00  0.00    +0.000 HD
BRANCH 285 289
ATOM    289  CA  ALA B 128     -25.986   6.447  -3.212  0.00  0.00    +0.000 C 
ATOM    290  CB  ALA B 128     -27.019   6.530  -2.087  0.00  0.00    +0.000 C 
BRANCH 289 293
ATOM    291  C   ASP B 127     -25.854   7.024  -5.557  0.00  0.00    +0.000 C 
ATOM    292  O   ASP B 127     -24.669   6.705  -5.647  0.00  0.00    +0.000 OA
ATOM    293  N   ALA B 128     -26.571   6.942  -4.447  0.00  0.00    +0.000 N 
ATOM    294  H   ALA B 128     -27.535   7.203  -4.382  0.00  0.00    +0.000 HD
BRANCH 291 295
ATOM    295  CA  ASP B 127     -26.608   7.564  -6.775  0.00  0.00    +0.000 C 
BRANCH 295 298
ATOM    296  C   ASN B 126     -27.924   5.631  -7.394  0.00  0.00    +0.000 C 
ATOM    297  O   ASN B 126     -26.943   4.988  -7.767  0.00  0.00    +0.000 OA
ATOM    298  N   ASP B 127     -27.873   6.862  -6.906  0.00  0.00    +0.000 N 
ATOM    299  H   ASP B 127     -28.675   7.377  -6.605  0.00  0.00    +0.000 HD
BRANCH 296 300
ATOM    300  CA  ASN B 126     -29.326   5.023  -7.471  0.00  0.00    +0.000 C 
BRANCH 300 303
ATOM    301  C   ASN B 125     -29.791   5.710  -5.199  0.00  0.00    +0.000 C 
ATOM    302  O   ASN B 125     -28.723   5.276  -4.768  0.00  0.00    +0.000 OA
ATOM    303  N   ASN B 126     -30.172   5.641  -6.465  0.00  0.00    +0.000 N 
ATOM    304  H   ASN B 126     -31.043   5.997  -6.807  0.00  0.00    +0.000 HD
BRANCH 301 305
ATOM    305  CA  ASN B 125     -30.788   6.389  -4.258  0.00  0.00    +0.000 C 
BRANCH 305 308
ATOM    306  C   GLU B 124     -31.936   4.343  -3.675  0.00  0.00    +0.000 C 
ATOM    307  O   GLU B 124     -32.200   4.069  -4.844  0.00  0.00    +0.000 OA
ATOM    308  N   ASN B 125     -31.270   5.421  -3.289  0.00  0.00    +0.000 N 
ATOM    309  H   ASN B 125     -31.059   5.636  -2.335  0.00  0.00    +0.000 HD
BRANCH 306 310
ATOM    310  CA  GLU B 124     -32.378   3.415  -2.541  0.00  0.00    +0.000 C 
BRANCH 310 313
ATOM    311  C   PRO B 123     -34.389   2.114  -2.883  0.00  0.00    +0.000 C 
ATOM    312  O   PRO B 123     -35.096   2.902  -2.255  0.00  0.00    +0.000 OA
ATOM    313  N   GLU B 124     -33.088   2.265  -3.078  0.00  0.00    +0.000 N 
ATOM    314  H   GLU B 124     -32.519   1.621  -3.590  0.00  0.00    +0.000 HD
BRANCH 311 318
ATOM    315  C   TYR B 122     -33.974  -0.906  -2.147  0.00  0.00    +0.000 C 
ATOM    316  O   TYR B 122     -32.839  -0.691  -2.568  0.00  0.00    +0.000 OA
ATOM    317  N   PRO B 123     -35.081  -0.219  -2.534  0.00  0.00    +0.000 N 
ATOM    318  CA  PRO B 123     -34.994   0.856  -3.508  0.00  0.00    +0.000 C 
ATOM    319  CB  PRO B 123     -36.418   1.062  -3.996  0.00  0.00    +0.000 C 
ATOM    320  CG  PRO B 123     -37.315   0.422  -2.948  0.00  0.00    +0.000 C 
ATOM    321  CD  PRO B 123     -36.443  -0.446  -2.054  0.00  0.00    +0.000 C 
BRANCH 315 322
ATOM    322  CA  TYR B 122     -34.223  -2.008  -1.115  0.00  0.00    +0.000 C 
BRANCH 322 325
ATOM    323  C   CYS B 121     -34.726  -3.977  -2.427  0.00  0.00    +0.000 C 
ATOM    324  O   CYS B 121     -35.841  -3.569  -2.750  0.00  0.00    +0.000 OA
ATOM    325  N   TYR B 122     -33.880  -3.312  -1.653  0.00  0.00    +0.000 N 
ATOM    326  H   TYR B 122     -32.975  -3.651  -1.395  0.00  0.00    +0.000 HD
BRANCH 323 327
ATOM    327  CA  CYS B 121     -34.224  -5.336  -2.916  0.00  0.00    +0.000 C 
BRANCH 327 330
ATOM    328  C   SER B 120     -32.383  -4.936  -4.433  0.00  0.00    +0.000 C 
ATOM    329  O   SER B 120     -33.121  -4.750  -5.400  0.00  0.00    +0.000 OA
ATOM    330  N   CYS B 121     -32.806  -5.220  -3.210  0.00  0.00    +0.000 N 
ATOM    331  H   CYS B 121     -32.200  -5.370  -2.428  0.00  0.00    +0.000 HD
BRANCH 328 332
ATOM    332  CA  SER B 120     -30.864  -4.847  -4.587  0.00  0.00    +0.000 C 
BRANCH 332 335
ATOM    333  C   ILE B 119     -30.579  -3.334  -2.721  0.00  0.00    +0.000 C 
ATOM    334  O   ILE B 119     -31.390  -2.520  -3.160  0.00  0.00    +0.000 OA
ATOM    335  N   SER B 120     -30.256  -4.471  -3.321  0.00  0.00    +0.000 N 
ATOM    336  H   SER B 120     -29.595  -5.128  -2.957  0.00  0.00    +0.000 HD
BRANCH 333 337
ATOM    337  CA  ILE B 119     -29.858  -3.076  -1.397  0.00  0.00    +0.000 C 
BRANCH 337 340
ATOM    338  C   GLU B 118     -29.902  -5.341  -0.549  0.00  0.00    +0.000 C 
ATOM    339  O   GLU B 118     -31.131  -5.377  -0.494  0.00  0.00    +0.000 OA
ATOM    340  N   ILE B 119     -29.200  -4.296  -0.962  0.00  0.00    +0.000 N 
ATOM    341  H   ILE B 119     -28.201  -4.275  -1.003  0.00  0.00    +0.000 HD
BRANCH 338 342
ATOM    342  CA  GLU B 118     -29.071  -6.551  -0.122  0.00  0.00    +0.000 C 
BRANCH 342 345
ATOM    343  C   GLU B 117     -27.771  -7.103  -2.086  0.00  0.00    +0.000 C 
ATOM    344  O   GLU B 117     -28.736  -7.574  -2.686  0.00  0.00    +0.000 OA
ATOM    345  N   GLU B 118     -27.822  -6.592  -0.865  0.00  0.00    +0.000 N 
ATOM    346  H   GLU B 118     -27.032  -6.210  -0.384  0.00  0.00    +0.000 HD
BRANCH 343 347
ATOM    347  CA  GLU B 117     -26.388  -7.076  -2.741  0.00  0.00    +0.000 C 
BRANCH 347 350
ATOM    348  C   LEU B 116     -26.162  -4.670  -2.627  0.00  0.00    +0.000 C 
ATOM    349  O   LEU B 116     -27.228  -4.468  -3.207  0.00  0.00    +0.000 OA
ATOM    350  N   GLU B 117     -25.671  -5.872  -2.357  0.00  0.00    +0.000 N 
ATOM    351  H   GLU B 117     -24.805  -6.028  -1.885  0.00  0.00    +0.000 HD
BRANCH 348 352
ATOM    352  CA  LEU B 116     -25.296  -3.498  -2.163  0.00  0.00    +0.000 C 
BRANCH 352 355
ATOM    353  C   VAL B 115     -25.199  -4.139   0.168  0.00  0.00    +0.000 C 
ATOM    354  O   VAL B 115     -26.419  -4.074   0.315  0.00  0.00    +0.000 OA
ATOM    355  N   LEU B 116     -24.565  -3.886  -0.967  0.00  0.00    +0.000 N 
ATOM    356  H   LEU B 116     -23.573  -3.942  -1.078  0.00  0.00    +0.000 HD
BRANCH 353 357
ATOM    357  CA  VAL B 115     -24.297  -4.535   1.339  0.00  0.00    +0.000 C 
BRANCH 357 360
ATOM    358  C   GLU B 114     -23.320  -6.404   0.156  0.00  0.00    +0.000 C 
ATOM    359  O   GLU B 114     -24.411  -6.910  -0.101  0.00  0.00    +0.000 OA
ATOM    360  N   VAL B 115     -23.155  -5.278   0.834  0.00  0.00    +0.000 N 
ATOM    361  H   VAL B 115     -22.264  -4.874   1.039  0.00  0.00    +0.000 HD
BRANCH 358 362
ATOM    362  CA  GLU B 114     -22.024  -7.073  -0.310  0.00  0.00    +0.000 C 
BRANCH 362 365
ATOM    363  C   LYS B 113     -21.386  -5.042  -1.458  0.00  0.00    +0.000 C 
ATOM    364  O   LYS B 113     -22.515  -4.848  -1.903  0.00  0.00    +0.000 OA
ATOM    365  N   GLU B 114     -21.047  -6.069  -0.692  0.00  0.00    +0.000 N 
ATOM    366  H   GLU B 114     -20.125  -6.219  -0.333  0.00  0.00    +0.000 HD
BRANCH 363 367
ATOM    367  CA  LYS B 113     -20.249  -4.068  -1.774  0.00  0.00    +0.000 C 
BRANCH 367 370
ATOM    368  C   ALA B 112     -19.308  -3.725   0.427  0.00  0.00    +0.000 C 
ATOM    369  O   ALA B 112     -20.286  -3.094   0.829  0.00  0.00    +0.000 OA
ATOM    370  N   LYS B 113     -19.191  -4.229  -0.792  0.00  0.00    +0.000 N 
ATOM    371  H   LYS B 113     -18.393  -4.741  -1.110  0.00  0.00    +0.000 HD
BRANCH 368 372
ATOM    372  CA  ALA B 112     -18.114  -3.976   1.350  0.00  0.00    +0.000 C 
ATOM    373  CB  ALA B 112     -16.819  -3.369   0.805  0.00  0.00    +0.000 C 
BRANCH 372 376
ATOM    374  C   ARG B 111     -18.880  -6.140   2.111  0.00  0.00    +0.000 C 
ATOM    375  O   ARG B 111     -19.946  -5.698   2.535  0.00  0.00    +0.000 OA
ATOM    376  N   ALA B 112     -17.940  -5.408   1.532  0.00  0.00    +0.000 N 
ATOM    377  H   ALA B 112     -17.075  -5.774   1.190  0.00  0.00    +0.000 HD
BRANCH 374 378
ATOM    378  CA  ARG B 111     -18.553  -7.630   2.231  0.00  0.00    +0.000 C 
BRANCH 378 381
ATOM    379  C   GLN B 110     -17.888  -7.845  -0.084  0.00  0.00    +0.000 C 
ATOM    380  O   GLN B 110     -18.930  -7.348  -0.507  0.00  0.00    +0.000 OA
ATOM    381  N   ARG B 111     -17.610  -8.025   1.199  0.00  0.00    +0.000 N 
ATOM    382  H   ARG B 111     -16.761  -8.432   1.536  0.00  0.00    +0.000 HD
BRANCH 379 383
ATOM    383  CA  GLN B 110     -16.800  -8.311  -1.052  0.00  0.00    +0.000 C 
BRANCH 383 386
ATOM    384  C   VAL B 109     -15.088  -6.929  -0.047  0.00  0.00    +0.000 C 
ATOM    385  O   VAL B 109     -15.766  -5.905  -0.118  0.00  0.00    +0.000 OA
ATOM    386  N   GLN B 110     -15.485  -8.123  -0.462  0.00  0.00    +0.000 N 
ATOM    387  H   GLN B 110     -14.928  -8.951  -0.401  0.00  0.00    +0.000 HD
BRANCH 384 388
ATOM    388  CA  VAL B 109     -13.681  -6.887   0.552  0.00  0.00    +0.000 C 
BRANCH 388 391
ATOM    389  C   ALA B 108     -14.138  -8.261   2.490  0.00  0.00    +0.000 C 
ATOM    390  O   ALA B 108     -14.970  -7.478   2.943  0.00  0.00    +0.000 OA
ATOM    391  N   VAL B 109     -13.468  -8.076   1.361  0.00  0.00    +0.000 N 
ATOM    392  H   VAL B 109     -12.792  -8.718   0.999  0.00  0.00    +0.000 HD
BRANCH 389 393
ATOM    393  CA  ALA B 108     -13.808  -9.558   3.230  0.00  0.00    +0.000 C 
ATOM    394  CB  ALA B 108     -12.505  -9.459   4.028  0.00  0.00    +0.000 C 
BRANCH 393 397
ATOM    395  C   ASP B 107     -14.765 -11.050   1.586  0.00  0.00    +0.000 C 
ATOM    396  O   ASP B 107     -15.889 -10.562   1.686  0.00  0.00    +0.000 OA
ATOM    397  N   ALA B 108     -13.707 -10.648   2.274  0.00  0.00    +0.000 N 
ATOM    398  H   ALA B 108     -12.796 -11.051   2.186  0.00  0.00    +0.000 HD
BRANCH 395 399
ATOM    399  CA  ASP B 107     -14.504 -12.206   0.617  0.00  0.00    +0.000 C 
BRANCH 399 402
ATOM    400  C   SER B 106     -12.746 -11.507  -0.890  0.00  0.00    +0.000 C 
ATOM    401  O   SER B 106     -13.513 -10.875  -1.614  0.00  0.00    +0.000 OA
ATOM    402  N   ASP B 107     -13.115 -12.174   0.194  0.00  0.00    +0.000 N 
ATOM    403  H   ASP B 107     -12.483 -12.685   0.778  0.00  0.00    +0.000 HD
BRANCH 400 404
ATOM    404  CA  SER B 106     -11.250 -11.566  -1.208  0.00  0.00    +0.000 C 
BRANCH 404 405
ATOM    405  N   SER B 106     -10.606 -12.570  -0.379  0.00  0.00    +0.000 N 
ATOM    406  H2  SER B 106     -10.744 -12.469   0.812  0.00  0.00    +0.000 HD
ATOM    407  H3  SER B 106      -9.439 -12.749  -0.082  0.00  0.00    +0.000 HD
ATOM    408  H   SER B 106     -10.470 -13.458  -0.818  0.00  0.00    +0.000 HD
ENDBRANCH 404 405
BRANCH 404 409
ATOM    409  CB  SER B 106     -11.034 -11.857  -2.694  0.00  0.00    +0.000 C 
BRANCH 409 410
ATOM    410  OG  SER B 106     -11.887 -12.898  -3.164  0.00  0.00    +0.000 OA
ATOM    411  HG  SER B 106     -12.218 -13.442  -2.393  0.00  0.00    +0.000 HD
ENDBRANCH 409 410
ENDBRANCH 404 409
ENDBRANCH 400 404
ENDBRANCH 399 402
BRANCH 399 412
ATOM    412  CB  ASP B 107     -14.830 -13.513   1.342  0.00  0.00    +0.000 C 
BRANCH 412 413
ATOM    413  CG  ASP B 107     -13.725 -14.035   2.262  0.00  0.00    +0.000 C 
ATOM    414  OD1 ASP B 107     -13.742 -13.798   3.479  0.00  0.00    +0.000 OA
BRANCH 413 415
ATOM    415  OD2 ASP B 107     -12.806 -14.722   1.673  0.00  0.00    +0.000 OA
ATOM    416  HD2 ASP B 107     -12.005 -14.802   2.268  0.00  0.00    +0.000 HD
ENDBRANCH 413 415
ENDBRANCH 412 413
ENDBRANCH 399 412
ENDBRANCH 395 399
ENDBRANCH 393 397
ENDBRANCH 389 393
ENDBRANCH 388 391
BRANCH 388 417
ATOM    417  CB  VAL B 109     -12.583  -6.773  -0.508  0.00  0.00    +0.000 C 
ATOM    418  CG1 VAL B 109     -11.194  -6.875   0.127  0.00  0.00    +0.000 C 
ATOM    419  CG2 VAL B 109     -12.765  -7.827  -1.602  0.00  0.00    +0.000 C 
ENDBRANCH 388 417
ENDBRANCH 384 388
ENDBRANCH 383 386
BRANCH 383 420
ATOM    420  CB  GLN B 110     -17.014  -9.770  -1.459  0.00  0.00    +0.000 C 
BRANCH 420 421
ATOM    421  CG  GLN B 110     -18.504 -10.119  -1.481  0.00  0.00    +0.000 C 
BRANCH 421 422
ATOM    422  CD  GLN B 110     -18.791 -11.238  -2.487  0.00  0.00    +0.000 C 
ATOM    423  OE1 GLN B 110     -17.965 -11.590  -3.314  0.00  0.00    +0.000 OA
ATOM    424  NE2 GLN B 110     -20.001 -11.772  -2.370  0.00  0.00    +0.000 N 
ATOM    425 HE21 GLN B 110     -20.631 -11.436  -1.669  0.00  0.00    +0.000 HD
ATOM    426 HE22 GLN B 110     -20.284 -12.512  -2.983  0.00  0.00    +0.000 HD
ENDBRANCH 421 422
ENDBRANCH 420 421
ENDBRANCH 383 420
ENDBRANCH 379 383
ENDBRANCH 378 381
BRANCH 378 427
ATOM    427  CB  ARG B 111     -17.991  -7.911   3.627  0.00  0.00    +0.000 C 
BRANCH 427 428
ATOM    428  CG  ARG B 111     -18.148  -6.691   4.536  0.00  0.00    +0.000 C 
BRANCH 428 429
ATOM    429  CD  ARG B 111     -17.143  -5.598   4.166  0.00  0.00    +0.000 C 
BRANCH 429 430
ATOM    430  NE  ARG B 111     -16.382  -5.180   5.364  0.00  0.00    +0.000 N 
ATOM    431  CZ  ARG B 111     -15.394  -5.910   5.924  0.00  0.00    +0.000 C 
ATOM    432  NH1 ARG B 111     -15.037  -7.100   5.398  0.00  0.00    +0.000 N 
ATOM    433  NH2 ARG B 111     -14.781  -5.441   6.995  0.00  0.00    +0.000 N 
ATOM    434 HH22 ARG B 111     -15.560  -5.385   7.904  0.00  0.00    +0.000 HD
ATOM    435  HE  ARG B 111     -16.616  -4.304   5.786  0.00  0.00    +0.000 HD
ATOM    436 HH11 ARG B 111     -15.507  -7.449   4.587  0.00  0.00    +0.000 HD
ATOM    437 HH12 ARG B 111     -14.304  -7.634   5.818  0.00  0.00    +0.000 HD
ATOM    438 HH21 ARG B 111     -14.040  -5.916   7.470  0.00  0.00    +0.000 HD
ENDBRANCH 429 430
ENDBRANCH 428 429
ENDBRANCH 427 428
ENDBRANCH 378 427
ENDBRANCH 374 378
ENDBRANCH 372 376
ENDBRANCH 368 372
ENDBRANCH 367 370
BRANCH 367 439
ATOM    439  CB  LYS B 113     -19.692  -4.213  -3.191  0.00  0.00    +0.000 C 
BRANCH 439 440
ATOM    440  CG  LYS B 113     -19.087  -5.603  -3.403  0.00  0.00    +0.000 C 
BRANCH 440 441
ATOM    441  CD  LYS B 113     -20.166  -6.685  -3.337  0.00  0.00    +0.000 C 
BRANCH 441 442
ATOM    442  CE  LYS B 113     -19.942  -7.750  -4.413  0.00  0.00    +0.000 C 
BRANCH 442 443
ATOM    443  NZ  LYS B 113     -21.053  -7.740  -5.392  0.00  0.00    +0.000 N 
ATOM    444  HZ3 LYS B 113     -22.181  -7.408  -5.117  0.00  0.00    +0.000 HD
ATOM    445  HZ1 LYS B 113     -20.839  -7.171  -6.203  0.00  0.00    +0.000 HD
ATOM    446  HZ2 LYS B 113     -21.267  -8.671  -5.733  0.00  0.00    +0.000 HD
ENDBRANCH 442 443
ENDBRANCH 441 442
ENDBRANCH 440 441
ENDBRANCH 439 440
ENDBRANCH 367 439
ENDBRANCH 363 367
ENDBRANCH 362 365
BRANCH 362 447
ATOM    447  CB  GLU B 114     -21.465  -8.000   0.771  0.00  0.00    +0.000 C 
BRANCH 447 448
ATOM    448  CG  GLU B 114     -22.496  -9.059   1.172  0.00  0.00    +0.000 C 
BRANCH 448 449
ATOM    449  CD  GLU B 114     -21.980  -9.914   2.331  0.00  0.00    +0.000 C 
ATOM    450  OE1 GLU B 114     -20.763 -10.103   2.468  0.00  0.00    +0.000 OA
BRANCH 449 451
ATOM    451  OE2 GLU B 114     -22.894 -10.390   3.107  0.00  0.00    +0.000 OA
ATOM    452  HE2 GLU B 114     -23.359 -11.154   2.660  0.00  0.00    +0.000 HD
ENDBRANCH 449 451
ENDBRANCH 448 449
ENDBRANCH 447 448
ENDBRANCH 362 447
ENDBRANCH 358 362
ENDBRANCH 357 360
BRANCH 357 453
ATOM    453  CB  VAL B 115     -23.819  -3.334   2.158  0.00  0.00    +0.000 C 
ATOM    454  CG1 VAL B 115     -22.752  -2.542   1.399  0.00  0.00    +0.000 C 
ATOM    455  CG2 VAL B 115     -24.993  -2.435   2.548  0.00  0.00    +0.000 C 
ENDBRANCH 357 453
ENDBRANCH 353 357
ENDBRANCH 352 355
BRANCH 352 456
ATOM    456  CB  LEU B 116     -24.336  -2.980  -3.233  0.00  0.00    +0.000 C 
BRANCH 456 457
ATOM    457  CG  LEU B 116     -23.651  -1.645  -2.933  0.00  0.00    +0.000 C 
ATOM    458  CD1 LEU B 116     -24.161  -0.546  -3.867  0.00  0.00    +0.000 C 
ATOM    459  CD2 LEU B 116     -23.814  -1.265  -1.460  0.00  0.00    +0.000 C 
ENDBRANCH 456 457
ENDBRANCH 352 456
ENDBRANCH 348 352
ENDBRANCH 347 350
BRANCH 347 460
ATOM    460  CB  GLU B 117     -25.586  -8.328  -2.381  0.00  0.00    +0.000 C 
BRANCH 460 461
ATOM    461  CG  GLU B 117     -25.982  -8.855  -1.000  0.00  0.00    +0.000 C 
BRANCH 461 462
ATOM    462  CD  GLU B 117     -27.197  -9.780  -1.094  0.00  0.00    +0.000 C 
ATOM    463  OE1 GLU B 117     -27.916  -9.759  -2.103  0.00  0.00    +0.000 OA
BRANCH 462 464
ATOM    464  OE2 GLU B 117     -27.382 -10.541  -0.069  0.00  0.00    +0.000 OA
ATOM    465  HE2 GLU B 117     -26.505 -10.890   0.261  0.00  0.00    +0.000 HD
ENDBRANCH 462 464
ENDBRANCH 461 462
ENDBRANCH 460 461
ENDBRANCH 347 460
ENDBRANCH 343 347
ENDBRANCH 342 345
BRANCH 342 466
ATOM    466  CB  GLU B 118     -28.812  -6.536   1.385  0.00  0.00    +0.000 C 
BRANCH 466 467
ATOM    467  CG  GLU B 118     -29.959  -7.205   2.146  0.00  0.00    +0.000 C 
BRANCH 467 468
ATOM    468  CD  GLU B 118     -30.168  -8.644   1.667  0.00  0.00    +0.000 C 
ATOM    469  OE1 GLU B 118     -31.093  -8.908   0.885  0.00  0.00    +0.000 OA
BRANCH 468 470
ATOM    470  OE2 GLU B 118     -29.327  -9.502   2.136  0.00  0.00    +0.000 OA
ATOM    471  HE2 GLU B 118     -29.430  -9.573   3.130  0.00  0.00    +0.000 HD
ENDBRANCH 468 470
ENDBRANCH 467 468
ENDBRANCH 466 467
ENDBRANCH 342 466
ENDBRANCH 338 342
ENDBRANCH 337 340
BRANCH 337 472
ATOM    472  CB  ILE B 119     -28.858  -1.920  -1.457  0.00  0.00    +0.000 C 
ATOM    473  CG2 ILE B 119     -29.208  -0.950  -2.588  0.00  0.00    +0.000 C 
BRANCH 472 474
ATOM    474  CG1 ILE B 119     -28.757  -1.211  -0.103  0.00  0.00    +0.000 C 
ATOM    475  CD1 ILE B 119     -27.306  -1.145   0.375  0.00  0.00    +0.000 C 
ENDBRANCH 472 474
ENDBRANCH 337 472
ENDBRANCH 333 337
ENDBRANCH 332 335
BRANCH 332 476
ATOM    476  CB  SER B 120     -30.302  -6.178  -5.093  0.00  0.00    +0.000 C 
BRANCH 476 477
ATOM    477  OG  SER B 120     -30.306  -6.252  -6.516  0.00  0.00    +0.000 OA
ATOM    478  HG  SER B 120     -30.701  -7.122  -6.813  0.00  0.00    +0.000 HD
ENDBRANCH 476 477
ENDBRANCH 332 476
ENDBRANCH 328 332
ENDBRANCH 327 330
BRANCH 327 479
ATOM    479  CB  CYS B 121     -34.503  -6.448  -1.903  0.00  0.00    +0.000 C 
BRANCH 479 480
ATOM    480  SG  CYS B 121     -36.217  -7.058  -2.097  0.00  0.00    +0.000 S 
ATOM    481  HG  CYS B 121     -36.287  -7.658  -0.914  0.00  0.00    +0.000 HD
ENDBRANCH 479 480
ENDBRANCH 327 479
ENDBRANCH 323 327
ENDBRANCH 322 325
BRANCH 322 482
ATOM    482  CB  TYR B 122     -33.297  -1.788   0.082  0.00  0.00    +0.000 C 
BRANCH 482 483
ATOM    483  CG  TYR B 122     -32.973  -0.318   0.359  0.00  0.00    +0.000 A 
ATOM    484  CD1 TYR B 122     -31.716   0.042   0.796  0.00  0.00    +0.000 A 
ATOM    485  CD2 TYR B 122     -33.941   0.648   0.169  0.00  0.00    +0.000 A 
ATOM    486  CE1 TYR B 122     -31.412   1.426   1.055  0.00  0.00    +0.000 A 
ATOM    487  CE2 TYR B 122     -33.637   2.032   0.428  0.00  0.00    +0.000 A 
ATOM    488  CZ  TYR B 122     -32.388   2.353   0.859  0.00  0.00    +0.000 A 
BRANCH 488 489
ATOM    489  OH  TYR B 122     -32.101   3.658   1.104  0.00  0.00    +0.000 OA
ATOM    490  HH  TYR B 122     -32.686   4.247   0.546  0.00  0.00    +0.000 HD
ENDBRANCH 488 489
ENDBRANCH 482 483
ENDBRANCH 322 482
ENDBRANCH 315 322
ENDBRANCH 311 318
ENDBRANCH 310 313
BRANCH 310 491
ATOM    491  CB  GLU B 124     -31.184   2.976  -1.693  0.00  0.00    +0.000 C 
BRANCH 491 492
ATOM    492  CG  GLU B 124     -29.922   2.842  -2.551  0.00  0.00    +0.000 C 
BRANCH 492 493
ATOM    493  CD  GLU B 124     -28.670   2.766  -1.676  0.00  0.00    +0.000 C 
ATOM    494  OE1 GLU B 124     -27.742   3.571  -1.848  0.00  0.00    +0.000 OA
BRANCH 493 495
ATOM    495  OE2 GLU B 124     -28.679   1.829  -0.790  0.00  0.00    +0.000 OA
ATOM    496  HE2 GLU B 124     -29.604   1.711  -0.429  0.00  0.00    +0.000 HD
ENDBRANCH 493 495
ENDBRANCH 492 493
ENDBRANCH 491 492
ENDBRANCH 310 491
ENDBRANCH 306 310
ENDBRANCH 305 308
BRANCH 305 497
ATOM    497  CB  ASN B 125     -30.071   7.551  -3.567  0.00  0.00    +0.000 C 
BRANCH 497 498
ATOM    498  CG  ASN B 125     -29.642   8.613  -4.581  0.00  0.00    +0.000 C 
ATOM    499  OD1 ASN B 125     -29.840   8.481  -5.778  0.00  0.00    +0.000 OA
ATOM    500  ND2 ASN B 125     -29.047   9.671  -4.038  0.00  0.00    +0.000 N 
ATOM    501 HD21 ASN B 125     -28.916   9.718  -3.047  0.00  0.00    +0.000 HD
ATOM    502 HD22 ASN B 125     -28.732  10.421  -4.619  0.00  0.00    +0.000 HD
ENDBRANCH 497 498
ENDBRANCH 305 497
ENDBRANCH 301 305
ENDBRANCH 300 303
BRANCH 300 503
ATOM    503  CB  ASN B 126     -29.871   5.269  -8.878  0.00  0.00    +0.000 C 
BRANCH 503 504
ATOM    504  CG  ASN B 126     -29.923   6.766  -9.191  0.00  0.00    +0.000 C 
ATOM    505  OD1 ASN B 126     -30.588   7.542  -8.525  0.00  0.00    +0.000 OA
ATOM    506  ND2 ASN B 126     -29.189   7.126 -10.240  0.00  0.00    +0.000 N 
ATOM    507 HD21 ASN B 126     -28.667   6.437 -10.744  0.00  0.00    +0.000 HD
ATOM    508 HD22 ASN B 126     -29.158   8.084 -10.524  0.00  0.00    +0.000 HD
ENDBRANCH 503 504
ENDBRANCH 300 503
ENDBRANCH 296 300
ENDBRANCH 295 298
BRANCH 295 509
ATOM    509  CB  ASP B 127     -26.827   9.063  -6.569  0.00  0.00    +0.000 C 
BRANCH 509 510
ATOM    510  CG  ASP B 127     -26.758   9.908  -7.843  0.00  0.00    +0.000 C 
ATOM    511  OD1 ASP B 127     -27.775  10.440  -8.313  0.00  0.00    +0.000 OA
BRANCH 510 512
ATOM    512  OD2 ASP B 127     -25.582  10.013  -8.363  0.00  0.00    +0.000 OA
ATOM    513  HD2 ASP B 127     -24.976  10.507  -7.740  0.00  0.00    +0.000 HD
ENDBRANCH 510 512
ENDBRANCH 509 510
ENDBRANCH 295 509
ENDBRANCH 291 295
ENDBRANCH 289 293
ENDBRANCH 285 289
ENDBRANCH 284 287
BRANCH 284 514
ATOM    514  CB  LYS B 129     -27.269   1.993  -4.587  0.00  0.00    +0.000 C 
BRANCH 514 515
ATOM    515  CG  LYS B 129     -27.798   2.491  -5.934  0.00  0.00    +0.000 C 
BRANCH 515 516
ATOM    516  CD  LYS B 129     -29.082   1.758  -6.324  0.00  0.00    +0.000 C 
BRANCH 516 517
ATOM    517  CE  LYS B 129     -30.309   2.436  -5.714  0.00  0.00    +0.000 C 
BRANCH 517 518
ATOM    518  NZ  LYS B 129     -31.276   2.809  -6.771  0.00  0.00    +0.000 N 
ATOM    519  HZ3 LYS B 129     -31.068   3.001  -7.950  0.00  0.00    +0.000 HD
ATOM    520  HZ1 LYS B 129     -31.825   2.015  -7.081  0.00  0.00    +0.000 HD
ATOM    521  HZ2 LYS B 129     -31.931   3.514  -6.455  0.00  0.00    +0.000 HD
ENDBRANCH 517 518
ENDBRANCH 516 517
ENDBRANCH 515 516
ENDBRANCH 514 515
ENDBRANCH 284 514
ENDBRANCH 280 284
ENDBRANCH 279 282
BRANCH 279 522
ATOM    522  CB  GLU B 130     -24.186   4.804  -8.141  0.00  0.00    +0.000 C 
BRANCH 522 523
ATOM    523  CG  GLU B 130     -23.008   5.056  -9.084  0.00  0.00    +0.000 C 
BRANCH 523 524
ATOM    524  CD  GLU B 130     -23.274   6.264  -9.984  0.00  0.00    +0.000 C 
ATOM    525  OE1 GLU B 130     -23.785   7.290  -9.508  0.00  0.00    +0.000 OA
BRANCH 524 526
ATOM    526  OE2 GLU B 130     -22.930   6.112 -11.217  0.00  0.00    +0.000 OA
ATOM    527  HE2 GLU B 130     -21.996   6.441 -11.354  0.00  0.00    +0.000 HD
ENDBRANCH 524 526
ENDBRANCH 523 524
ENDBRANCH 522 523
ENDBRANCH 279 522
ENDBRANCH 275 279
ENDBRANCH 274 277
BRANCH 274 528
ATOM    528  CB  LEU B 131     -21.716   6.247  -3.437  0.00  0.00    +0.000 C 
BRANCH 528 529
ATOM    529  CG  LEU B 131     -20.689   7.341  -3.136  0.00  0.00    +0.000 C 
ATOM    530  CD1 LEU B 131     -19.277   6.885  -3.504  0.00  0.00    +0.000 C 
ATOM    531  CD2 LEU B 131     -21.066   8.654  -3.828  0.00  0.00    +0.000 C 
ENDBRANCH 528 529
ENDBRANCH 274 528
ENDBRANCH 270 274
ENDBRANCH   1 272
BRANCH   1 532
ATOM    532  CB  LYS B 132     -21.753   1.054  -2.278  0.00  0.00    +0.000 C 
BRANCH 532 533
ATOM    533  CG  LYS B 132     -21.200   0.793  -0.874  0.00  0.00    +0.000 C 
BRANCH 533 534
ATOM    534  CD  LYS B 132     -20.688  -0.642  -0.745  0.00  0.00    +0.000 C 
BRANCH 534 535
ATOM    535  CE  LYS B 132     -19.491  -0.882  -1.667  0.00  0.00    +0.000 C 
BRANCH 535 536
ATOM    536  NZ  LYS B 132     -18.430  -1.632  -0.956  0.00  0.00    +0.000 N 
ATOM    537  HZ3 LYS B 132     -19.099  -2.042  -0.081  0.00  0.00    +0.000 HD
ATOM    538  HZ1 LYS B 132     -18.191  -2.493  -1.434  0.00  0.00    +0.000 HD
ATOM    539  HZ2 LYS B 132     -17.576  -1.093  -0.872  0.00  0.00    +0.000 HD
ENDBRANCH 535 536
ENDBRANCH 534 535
ENDBRANCH 533 534
ENDBRANCH 532 533
ENDBRANCH   1 532
TORSDOF 230
