REMARK  Name = /Users/acegid/Desktop/Smoking_Research/Docking/Docking_All_PDB/All_PDB/1ZWV_H.pdb
REMARK  280 active torsions:
REMARK  status: ('A' for Active; 'I' for Inactive)
REMARK    1  A    between atoms: N_1  and  CA_4
REMARK    2  A    between atoms: CA_4  and  C_5
REMARK    3  A    between atoms: N_10  and  CA_11
REMARK    4  A    between atoms: CA_11  and  C_12
REMARK    5  A    between atoms: CA_11  and  CB_14
REMARK    6  A    between atoms: CB_14  and  CG_15
REMARK    7  A    between atoms: CG_15  and  CD_16
REMARK    8  A    between atoms: N_25  and  CA_26
REMARK    9  A    between atoms: CA_26  and  C_27
REMARK   10  A    between atoms: CA_26  and  CB_29
REMARK   11  A    between atoms: CB_29  and  CG1_30
REMARK   12  A    between atoms: CB_29  and  CG2_31
REMARK   13  A    between atoms: CG1_30  and  CD1_32
REMARK   14  A    between atoms: N_44  and  CA_45
REMARK   15  A    between atoms: CA_45  and  C_46
REMARK   16  A    between atoms: CA_45  and  CB_48
REMARK   17  A    between atoms: CB_48  and  CG_49
REMARK   18  A    between atoms: CG_49  and  CD_50
REMARK   19  A    between atoms: CD_50  and  CE_51
REMARK   20  A    between atoms: CE_51  and  NZ_52
REMARK   21  A    between atoms: N_66  and  CA_67
REMARK   22  A    between atoms: CA_67  and  C_68
REMARK   23  A    between atoms: N_73  and  CA_74
REMARK   24  A    between atoms: CA_74  and  C_75
REMARK   25  A    between atoms: CA_74  and  CB_77
REMARK   26  A    between atoms: CB_77  and  CG_78
REMARK   27  A    between atoms: CG_78  and  CD_79
REMARK   28  A    between atoms: CD_79  and  NE_80
REMARK   29  A    between atoms: N_97  and  CA_98
REMARK   30  A    between atoms: CA_98  and  C_99
REMARK   31  A    between atoms: CA_98  and  CB_101
REMARK   32  A    between atoms: CB_101  and  CG_102
REMARK   33  A    between atoms: CG_102  and  CD_103
REMARK   34  A    between atoms: CD_103  and  CE_104
REMARK   35  A    between atoms: CE_104  and  NZ_105
REMARK   36  A    between atoms: N_119  and  CA_120
REMARK   37  A    between atoms: CA_120  and  C_121
REMARK   38  A    between atoms: CA_120  and  CB_123
REMARK   39  A    between atoms: CB_123  and  OG1_124
REMARK   40  A    between atoms: CB_123  and  CG2_125
REMARK   41  A    between atoms: N_133  and  CA_134
REMARK   42  A    between atoms: CA_134  and  C_135
REMARK   43  A    between atoms: CA_134  and  CB_137
REMARK   44  A    between atoms: CB_137  and  CG_138
REMARK   45  A    between atoms: CG_138  and  CD1_139
REMARK   46  A    between atoms: CG_138  and  CD2_140
REMARK   47  A    between atoms: N_152  and  CA_153
REMARK   48  A    between atoms: CA_153  and  C_154
REMARK   49  A    between atoms: CA_153  and  CB_156
REMARK   50  A    between atoms: N_162  and  CA_163
REMARK   51  A    between atoms: CA_163  and  C_164
REMARK   52  A    between atoms: CA_163  and  CB_166
REMARK   53  A    between atoms: CB_166  and  OG1_167
REMARK   54  A    between atoms: CB_166  and  CG2_168
REMARK   55  A    between atoms: CA_177  and  C_178
REMARK   56  A    between atoms: N_190  and  CA_191
REMARK   57  A    between atoms: CA_191  and  C_192
REMARK   58  A    between atoms: CA_191  and  CB_194
REMARK   59  A    between atoms: N_200  and  CA_201
REMARK   60  A    between atoms: CA_201  and  C_202
REMARK   61  A    between atoms: CA_201  and  CB_204
REMARK   62  A    between atoms: CB_204  and  CG1_205
REMARK   63  A    between atoms: CB_204  and  CG2_206
REMARK   64  A    between atoms: N_216  and  CA_217
REMARK   65  A    between atoms: CA_217  and  C_218
REMARK   66  A    between atoms: CA_217  and  CB_220
REMARK   67  A    between atoms: CB_220  and  CG_221
REMARK   68  A    between atoms: CG_221  and  CD_222
REMARK   69  A    between atoms: CD_222  and  NE_223
REMARK   70  A    between atoms: N_240  and  CA_241
REMARK   71  A    between atoms: CA_241  and  C_242
REMARK   72  A    between atoms: CA_241  and  CB_244
REMARK   73  A    between atoms: CB_244  and  CG_245
REMARK   74  A    between atoms: CG_245  and  CD_246
REMARK   75  A    between atoms: CD_246  and  NE_247
REMARK   76  A    between atoms: N_264  and  CA_265
REMARK   77  A    between atoms: CA_265  and  C_266
REMARK   78  A    between atoms: CA_265  and  CB_268
REMARK   79  A    between atoms: CB_268  and  CG_269
REMARK   80  A    between atoms: CG_269  and  CD1_270
REMARK   81  A    between atoms: CG_269  and  CD2_271
REMARK   82  A    between atoms: N_283  and  CA_284
REMARK   83  A    between atoms: CA_284  and  C_285
REMARK   84  A    between atoms: CA_284  and  CB_287
REMARK   85  A    between atoms: N_293  and  CA_294
REMARK   86  A    between atoms: CA_294  and  C_295
REMARK   87  A    between atoms: CA_294  and  CB_297
REMARK   88  A    between atoms: CB_297  and  CG_298
REMARK   89  A    between atoms: CG_298  and  SD_299
REMARK   90  A    between atoms: SD_299  and  CE_300
REMARK   91  A    between atoms: N_310  and  CA_311
REMARK   92  A    between atoms: CA_311  and  C_312
REMARK   93  A    between atoms: CA_311  and  CB_314
REMARK   94  A    between atoms: CB_314  and  CG_315
REMARK   95  A    between atoms: CG_315  and  CD_316
REMARK   96  A    between atoms: N_325  and  CA_326
REMARK   97  A    between atoms: CA_326  and  C_327
REMARK   98  A    between atoms: CA_326  and  CB_329
REMARK   99  A    between atoms: CB_329  and  CG_330
REMARK  100  A    between atoms: N_339  and  CA_340
REMARK  101  A    between atoms: CA_340  and  C_341
REMARK  102  A    between atoms: CA_340  and  CB_343
REMARK  103  A    between atoms: CB_343  and  CG_344
REMARK  104  A    between atoms: N_353  and  CA_354
REMARK  105  A    between atoms: CA_354  and  C_355
REMARK  106  A    between atoms: CA_354  and  CB_357
REMARK  107  A    between atoms: CB_357  and  CG1_358
REMARK  108  A    between atoms: CB_357  and  CG2_359
REMARK  109  A    between atoms: CG1_358  and  CD1_360
REMARK  110  A    between atoms: N_372  and  CA_373
REMARK  111  A    between atoms: CA_373  and  C_374
REMARK  112  A    between atoms: CA_373  and  CB_376
REMARK  113  A    between atoms: CB_376  and  CG_377
REMARK  114  A    between atoms: CG_377  and  CD_378
REMARK  115  A    between atoms: CD_378  and  CE_379
REMARK  116  A    between atoms: CE_379  and  NZ_380
REMARK  117  A    between atoms: N_394  and  CA_395
REMARK  118  A    between atoms: CA_395  and  C_396
REMARK  119  A    between atoms: CA_395  and  CB_398
REMARK  120  A    between atoms: CB_398  and  CG_399
REMARK  121  A    between atoms: CG_399  and  CD1_400
REMARK  122  A    between atoms: CG_399  and  CD2_401
REMARK  123  A    between atoms: N_413  and  CA_414
REMARK  124  A    between atoms: CA_414  and  C_415
REMARK  125  A    between atoms: CA_414  and  CB_417
REMARK  126  A    between atoms: CB_417  and  OG_418
REMARK  127  A    between atoms: N_424  and  CA_425
REMARK  128  A    between atoms: CA_425  and  C_426
REMARK  129  A    between atoms: CA_425  and  CB_428
REMARK  130  A    between atoms: CB_428  and  CG_429
REMARK  131  A    between atoms: CG_429  and  CD_430
REMARK  132  A    between atoms: N_439  and  CA_440
REMARK  133  A    between atoms: CA_440  and  C_441
REMARK  134  A    between atoms: CA_440  and  CB_443
REMARK  135  A    between atoms: CB_443  and  CG1_444
REMARK  136  A    between atoms: CB_443  and  CG2_445
REMARK  137  A    between atoms: N_455  and  CA_456
REMARK  138  A    between atoms: CA_456  and  C_457
REMARK  139  A    between atoms: CA_456  and  CB_459
REMARK  140  A    between atoms: CB_459  and  CG1_460
REMARK  141  A    between atoms: CB_459  and  CG2_461
REMARK  142  A    between atoms: N_471  and  CA_472
REMARK  143  A    between atoms: CA_472  and  C_473
REMARK  144  A    between atoms: N_478  and  CA_479
REMARK  145  A    between atoms: CA_479  and  C_480
REMARK  146  A    between atoms: CA_479  and  CB_482
REMARK  147  A    between atoms: CB_482  and  OG_483
REMARK  148  A    between atoms: N_489  and  CA_490
REMARK  149  A    between atoms: CA_490  and  C_491
REMARK  150  A    between atoms: N_496  and  CA_497
REMARK  151  A    between atoms: CA_497  and  C_498
REMARK  152  A    between atoms: CA_497  and  CB_500
REMARK  153  A    between atoms: CB_500  and  CG_501
REMARK  154  A    between atoms: CG_501  and  CD_502
REMARK  155  A    between atoms: CD_502  and  CE_503
REMARK  156  A    between atoms: CE_503  and  NZ_504
REMARK  157  A    between atoms: N_518  and  CA_519
REMARK  158  A    between atoms: CA_519  and  C_520
REMARK  159  A    between atoms: CA_519  and  CB_522
REMARK  160  A    between atoms: CB_522  and  CG_523
REMARK  161  A    between atoms: N_530  and  CA_531
REMARK  162  A    between atoms: CA_531  and  C_532
REMARK  163  A    between atoms: N_537  and  CA_538
REMARK  164  A    between atoms: CA_538  and  C_539
REMARK  165  A    between atoms: CA_538  and  CB_541
REMARK  166  A    between atoms: CB_541  and  CG_542
REMARK  167  A    between atoms: CG_542  and  CD_543
REMARK  168  A    between atoms: CD_543  and  NE_544
REMARK  169  A    between atoms: N_561  and  CA_562
REMARK  170  A    between atoms: CA_562  and  C_563
REMARK  171  A    between atoms: CA_562  and  CB_565
REMARK  172  A    between atoms: CB_565  and  CG1_566
REMARK  173  A    between atoms: CB_565  and  CG2_567
REMARK  174  A    between atoms: CG1_566  and  CD1_568
REMARK  175  A    between atoms: N_580  and  CA_581
REMARK  176  A    between atoms: CA_581  and  C_582
REMARK  177  A    between atoms: CA_581  and  CB_584
REMARK  178  A    between atoms: CB_584  and  CG_585
REMARK  179  A    between atoms: CG_585  and  CD1_586
REMARK  180  A    between atoms: CG_585  and  CD2_587
REMARK  181  A    between atoms: N_599  and  CA_600
REMARK  182  A    between atoms: CA_600  and  C_601
REMARK  183  A    between atoms: CA_600  and  CB_603
REMARK  184  A    between atoms: CB_603  and  CG_604
REMARK  185  A    between atoms: CG_604  and  CD_605
REMARK  186  A    between atoms: CD_605  and  CE_606
REMARK  187  A    between atoms: CE_606  and  NZ_607
REMARK  188  A    between atoms: N_621  and  CA_622
REMARK  189  A    between atoms: CA_622  and  C_623
REMARK  190  A    between atoms: CA_622  and  CB_625
REMARK  191  A    between atoms: CB_625  and  CG_626
REMARK  192  A    between atoms: CG_626  and  CD_627
REMARK  193  A    between atoms: N_636  and  CA_637
REMARK  194  A    between atoms: CA_637  and  C_638
REMARK  195  A    between atoms: CA_637  and  CB_640
REMARK  196  A    between atoms: CB_640  and  CG_641
REMARK  197  A    between atoms: N_648  and  CA_649
REMARK  198  A    between atoms: CA_649  and  C_650
REMARK  199  A    between atoms: CA_649  and  CB_652
REMARK  200  A    between atoms: CB_652  and  CG1_653
REMARK  201  A    between atoms: CB_652  and  CG2_654
REMARK  202  A    between atoms: CG1_653  and  CD1_655
REMARK  203  A    between atoms: N_667  and  CA_668
REMARK  204  A    between atoms: CA_668  and  C_669
REMARK  205  A    between atoms: CA_668  and  CB_671
REMARK  206  A    between atoms: CB_671  and  CG_672
REMARK  207  A    between atoms: CG_672  and  CD1_673
REMARK  208  A    between atoms: CG_672  and  CD2_674
REMARK  209  A    between atoms: N_686  and  CA_687
REMARK  210  A    between atoms: CA_687  and  C_688
REMARK  211  A    between atoms: CA_687  and  CB_690
REMARK  212  A    between atoms: CB_690  and  CG_691
REMARK  213  A    between atoms: N_700  and  CA_701
REMARK  214  A    between atoms: CA_701  and  C_702
REMARK  215  A    between atoms: CA_701  and  CB_704
REMARK  216  A    between atoms: CB_704  and  CG_705
REMARK  217  A    between atoms: CZ_710  and  OH_711
REMARK  218  A    between atoms: N_721  and  CA_722
REMARK  219  A    between atoms: CA_722  and  C_723
REMARK  220  A    between atoms: CA_722  and  CB_725
REMARK  221  A    between atoms: CB_725  and  CG_726
REMARK  222  A    between atoms: CG_726  and  CD1_727
REMARK  223  A    between atoms: CG_726  and  CD2_728
REMARK  224  A    between atoms: N_740  and  CA_741
REMARK  225  A    between atoms: CA_741  and  C_742
REMARK  226  A    between atoms: CA_741  and  CB_744
REMARK  227  A    between atoms: CB_744  and  CG_745
REMARK  228  A    between atoms: CG_745  and  CD_746
REMARK  229  A    between atoms: N_755  and  CA_756
REMARK  230  A    between atoms: CA_756  and  C_757
REMARK  231  A    between atoms: CA_756  and  CB_759
REMARK  232  A    between atoms: CB_759  and  CG_760
REMARK  233  A    between atoms: CG_760  and  CD_761
REMARK  234  A    between atoms: CD_761  and  CE_762
REMARK  235  A    between atoms: CE_762  and  NZ_763
REMARK  236  A    between atoms: N_777  and  CA_778
REMARK  237  A    between atoms: CA_778  and  C_779
REMARK  238  A    between atoms: CA_778  and  CB_781
REMARK  239  A    between atoms: CB_781  and  CG_782
REMARK  240  A    between atoms: CG_782  and  CD_783
REMARK  241  A    between atoms: N_794  and  CA_795
REMARK  242  A    between atoms: CA_795  and  C_796
REMARK  243  A    between atoms: CA_795  and  CB_798
REMARK  244  A    between atoms: CB_798  and  OG1_799
REMARK  245  A    between atoms: CB_798  and  CG2_800
REMARK  246  A    between atoms: N_808  and  CA_809
REMARK  247  A    between atoms: CA_809  and  C_810
REMARK  248  A    between atoms: CA_809  and  CB_812
REMARK  249  A    between atoms: CB_812  and  CG_813
REMARK  250  A    between atoms: CG_813  and  CD1_814
REMARK  251  A    between atoms: CG_813  and  CD2_815
REMARK  252  A    between atoms: N_827  and  CA_828
REMARK  253  A    between atoms: CA_828  and  C_829
REMARK  254  A    between atoms: CA_828  and  CB_831
REMARK  255  A    between atoms: CB_831  and  CG_832
REMARK  256  A    between atoms: CG_832  and  CD_833
REMARK  257  A    between atoms: N_842  and  CA_844
REMARK  258  A    between atoms: CA_844  and  CB_846
REMARK  259  A    between atoms: CA_844  and  C_857
REMARK  260  A    between atoms: CB_846  and  CG_849
REMARK  261  A    between atoms: N_859  and  CA_861
REMARK  262  A    between atoms: CA_861  and  CB_863
REMARK  263  A    between atoms: CA_861  and  C_874
REMARK  264  A    between atoms: CB_863  and  CG_866
REMARK  265  A    between atoms: N_876  and  CA_878
REMARK  266  A    between atoms: CA_878  and  CB_880
REMARK  267  A    between atoms: CA_878  and  C_891
REMARK  268  A    between atoms: CB_880  and  CG_883
REMARK  269  A    between atoms: N_893  and  CA_895
REMARK  270  A    between atoms: CA_895  and  CB_897
REMARK  271  A    between atoms: CA_895  and  C_908
REMARK  272  A    between atoms: CB_897  and  CG_900
REMARK  273  A    between atoms: N_910  and  CA_912
REMARK  274  A    between atoms: CA_912  and  CB_914
REMARK  275  A    between atoms: CA_912  and  C_925
REMARK  276  A    between atoms: CB_914  and  CG_917
REMARK  277  A    between atoms: N_927  and  CA_929
REMARK  278  A    between atoms: CA_929  and  CB_931
REMARK  279  A    between atoms: CA_929  and  C_942
REMARK  280  A    between atoms: CB_931  and  CG_934
REMARK                            x       y       z     vdW  Elec       q    Type
REMARK                         _______ _______ _______ _____ _____    ______ ____
ROOT
ATOM      1  CA  SER A  31      11.963   2.052 -15.968  0.00  0.00    +0.000 C 
ENDROOT
BRANCH   1   2
ATOM      2  C   SER A  31      11.111   3.179 -16.543  0.00  0.00    +0.000 C 
ATOM      3  O   SER A  31      11.167   4.315 -16.075  0.00  0.00    +0.000 OA
ATOM      4  N   GLY A  32      10.321   2.855 -17.562  0.00  0.00    +0.000 N 
ATOM      5  H   GLY A  32      10.318   1.932 -17.894  0.00  0.00    +0.000 HD
BRANCH   4   6
ATOM      6  CA  GLY A  32       9.468   3.850 -18.185  0.00  0.00    +0.000 C 
BRANCH   6   7
ATOM      7  C   GLY A  32      10.229   5.098 -18.585  0.00  0.00    +0.000 C 
ATOM      8  O   GLY A  32       9.664   6.191 -18.632  0.00  0.00    +0.000 OA
ATOM      9  N   LYS A  33      11.516   4.937 -18.873  0.00  0.00    +0.000 N 
ATOM     10  H   LYS A  33      11.910   4.041 -18.817  0.00  0.00    +0.000 HD
BRANCH   9  11
ATOM     11  CA  LYS A  33      12.358   6.059 -19.270  0.00  0.00    +0.000 C 
BRANCH  11  12
ATOM     12  C   LYS A  33      12.244   6.320 -20.769  0.00  0.00    +0.000 C 
ATOM     13  O   LYS A  33      11.617   7.291 -21.194  0.00  0.00    +0.000 OA
ATOM     14  N   ASP A  34      12.854   5.448 -21.564  0.00  0.00    +0.000 N 
ATOM     15  H   ASP A  34      13.338   4.694 -21.165  0.00  0.00    +0.000 HD
BRANCH  14  16
ATOM     16  CA  ASP A  34      12.819   5.582 -23.016  0.00  0.00    +0.000 C 
BRANCH  16  17
ATOM     17  C   ASP A  34      12.504   4.245 -23.678  0.00  0.00    +0.000 C 
ATOM     18  O   ASP A  34      13.316   3.705 -24.428  0.00  0.00    +0.000 OA
ATOM     19  N   GLY A  35      11.318   3.714 -23.395  0.00  0.00    +0.000 N 
ATOM     20  H   GLY A  35      10.710   4.190 -22.790  0.00  0.00    +0.000 HD
BRANCH  19  21
ATOM     21  CA  GLY A  35      10.917   2.444 -23.970  0.00  0.00    +0.000 C 
BRANCH  21  22
ATOM     22  C   GLY A  35      11.487   1.260 -23.215  0.00  0.00    +0.000 C 
ATOM     23  O   GLY A  35      11.543   0.148 -23.741  0.00  0.00    +0.000 OA
ATOM     24  N   ARG A  36      11.914   1.498 -21.979  0.00  0.00    +0.000 N 
ATOM     25  H   ARG A  36      11.844   2.405 -21.615  0.00  0.00    +0.000 HD
BRANCH  24  26
ATOM     26  CA  ARG A  36      12.486   0.443 -21.152  0.00  0.00    +0.000 C 
BRANCH  26  27
ATOM     27  C   ARG A  36      11.560  -0.769 -21.099  0.00  0.00    +0.000 C 
ATOM     28  O   ARG A  36      12.010  -1.911 -21.195  0.00  0.00    +0.000 OA
ATOM     29  N   ILE A  37      10.266  -0.511 -20.944  0.00  0.00    +0.000 N 
ATOM     30  H   ILE A  37       9.969   0.420 -20.874  0.00  0.00    +0.000 HD
BRANCH  29  31
ATOM     31  CA  ILE A  37       9.277  -1.580 -20.879  0.00  0.00    +0.000 C 
BRANCH  31  32
ATOM     32  C   ILE A  37       9.114  -2.262 -22.234  0.00  0.00    +0.000 C 
ATOM     33  O   ILE A  37       8.266  -1.874 -23.038  0.00  0.00    +0.000 OA
ATOM     34  N   LEU A  38       9.931  -3.280 -22.479  0.00  0.00    +0.000 N 
ATOM     35  H   LEU A  38      10.586  -3.543 -21.800  0.00  0.00    +0.000 HD
BRANCH  34  36
ATOM     36  CA  LEU A  38       9.876  -4.019 -23.736  0.00  0.00    +0.000 C 
BRANCH  36  37
ATOM     37  C   LEU A  38       9.254  -5.396 -23.532  0.00  0.00    +0.000 C 
ATOM     38  O   LEU A  38       8.857  -5.752 -22.422  0.00  0.00    +0.000 OA
ATOM     39  N   LYS A  39       9.174  -6.169 -24.610  0.00  0.00    +0.000 N 
ATOM     40  H   LYS A  39       9.507  -5.829 -25.467  0.00  0.00    +0.000 HD
BRANCH  39  41
ATOM     41  CA  LYS A  39       8.604  -7.510 -24.550  0.00  0.00    +0.000 C 
BRANCH  41  42
ATOM     42  C   LYS A  39       9.297  -8.349 -23.481  0.00  0.00    +0.000 C 
ATOM     43  O   LYS A  39       8.661  -9.155 -22.804  0.00  0.00    +0.000 OA
ATOM     44  N   GLU A  40      10.603  -8.151 -23.335  0.00  0.00    +0.000 N 
ATOM     45  H   GLU A  40      11.054  -7.494 -23.905  0.00  0.00    +0.000 HD
BRANCH  44  46
ATOM     46  CA  GLU A  40      11.381  -8.890 -22.348  0.00  0.00    +0.000 C 
BRANCH  46  47
ATOM     47  C   GLU A  40      10.866  -8.620 -20.937  0.00  0.00    +0.000 C 
ATOM     48  O   GLU A  40      10.938  -9.484 -20.062  0.00  0.00    +0.000 OA
ATOM     49  N   ASP A  41      10.346  -7.416 -20.723  0.00  0.00    +0.000 N 
ATOM     50  H   ASP A  41      10.317  -6.771 -21.460  0.00  0.00    +0.000 HD
BRANCH  49  51
ATOM     51  CA  ASP A  41       9.818  -7.032 -19.419  0.00  0.00    +0.000 C 
BRANCH  51  52
ATOM     52  C   ASP A  41       8.396  -7.552 -19.235  0.00  0.00    +0.000 C 
ATOM     53  O   ASP A  41       8.015  -7.971 -18.141  0.00  0.00    +0.000 OA
ATOM     54  N   ILE A  42       7.616  -7.521 -20.310  0.00  0.00    +0.000 N 
ATOM     55  H   ILE A  42       7.977  -7.176 -21.153  0.00  0.00    +0.000 HD
BRANCH  54  56
ATOM     56  CA  ILE A  42       6.236  -7.989 -20.266  0.00  0.00    +0.000 C 
BRANCH  56  57
ATOM     57  C   ILE A  42       6.174  -9.506 -20.123  0.00  0.00    +0.000 C 
ATOM     58  O   ILE A  42       5.543 -10.029 -19.204  0.00  0.00    +0.000 OA
ATOM     59  N   LEU A  43       6.835 -10.207 -21.038  0.00  0.00    +0.000 N 
ATOM     60  H   LEU A  43       7.319  -9.735 -21.746  0.00  0.00    +0.000 HD
BRANCH  59  61
ATOM     61  CA  LEU A  43       6.857 -11.666 -21.014  0.00  0.00    +0.000 C 
BRANCH  61  62
ATOM     62  C   LEU A  43       7.383 -12.181 -19.677  0.00  0.00    +0.000 C 
ATOM     63  O   LEU A  43       6.925 -13.205 -19.172  0.00  0.00    +0.000 OA
ATOM     64  N   ASN A  44       8.345 -11.461 -19.109  0.00  0.00    +0.000 N 
ATOM     65  H   ASN A  44       8.669 -10.654 -19.561  0.00  0.00    +0.000 HD
BRANCH  64  66
ATOM     66  CA  ASN A  44       8.932 -11.844 -17.830  0.00  0.00    +0.000 C 
BRANCH  66  67
ATOM     67  C   ASN A  44       7.994 -11.500 -16.677  0.00  0.00    +0.000 C 
ATOM     68  O   ASN A  44       8.018 -12.147 -15.629  0.00  0.00    +0.000 OA
ATOM     69  N   TYR A  45       7.170 -10.477 -16.877  0.00  0.00    +0.000 N 
ATOM     70  H   TYR A  45       7.198 -10.001 -17.732  0.00  0.00    +0.000 HD
BRANCH  69  71
ATOM     71  CA  TYR A  45       6.226 -10.045 -15.853  0.00  0.00    +0.000 C 
BRANCH  71  72
ATOM     72  C   TYR A  45       5.009 -10.965 -15.811  0.00  0.00    +0.000 C 
ATOM     73  O   TYR A  45       4.662 -11.507 -14.761  0.00  0.00    +0.000 OA
ATOM     74  N   LEU A  46       4.366 -11.137 -16.961  0.00  0.00    +0.000 N 
ATOM     75  H   LEU A  46       4.690 -10.679 -17.764  0.00  0.00    +0.000 HD
BRANCH  74  76
ATOM     76  CA  LEU A  46       3.188 -11.992 -17.058  0.00  0.00    +0.000 C 
BRANCH  76  77
ATOM     77  C   LEU A  46       3.466 -13.371 -16.468  0.00  0.00    +0.000 C 
ATOM     78  O   LEU A  46       2.569 -14.016 -15.925  0.00  0.00    +0.000 OA
ATOM     79  N   GLU A  47       4.714 -13.815 -16.576  0.00  0.00    +0.000 N 
ATOM     80  H   GLU A  47       5.384 -13.255 -17.020  0.00  0.00    +0.000 HD
BRANCH  79  81
ATOM     81  CA  GLU A  47       5.109 -15.117 -16.052  0.00  0.00    +0.000 C 
BRANCH  81  82
ATOM     82  C   GLU A  47       5.399 -15.036 -14.556  0.00  0.00    +0.000 C 
ATOM     83  O   GLU A  47       5.026 -15.925 -13.790  0.00  0.00    +0.000 OA
ATOM     84  N   LYS A  48       6.066 -13.963 -14.145  0.00  0.00    +0.000 N 
ATOM     85  H   LYS A  48       6.337 -13.288 -14.804  0.00  0.00    +0.000 HD
BRANCH  84  86
ATOM     86  CA  LYS A  48       6.406 -13.763 -12.742  0.00  0.00    +0.000 C 
BRANCH  86  87
ATOM     87  C   LYS A  48       5.157 -13.477 -11.915  0.00  0.00    +0.000 C 
ATOM     88  O   LYS A  48       4.483 -12.468 -12.121  0.00  0.00    +0.000 OA
ATOM     89  N   GLN A  49       4.855 -14.372 -10.979  0.00  0.00    +0.000 N 
ATOM     90  H   GLN A  49       5.430 -15.155 -10.863  0.00  0.00    +0.000 HD
BRANCH  89  91
ATOM     91  CA  GLN A  49       3.686 -14.214 -10.121  0.00  0.00    +0.000 C 
BRANCH  91  92
ATOM     92  C   GLN A  49       4.021 -13.372  -8.894  0.00  0.00    +0.000 C 
ATOM     93  O   GLN A  49       4.738 -13.818  -7.998  0.00  0.00    +0.000 OA
ATOM     94  N   THR A  50       3.499 -12.150  -8.861  0.00  0.00    +0.000 N 
ATOM     95  H   THR A  50       2.936 -11.851  -9.605  0.00  0.00    +0.000 HD
BRANCH  94  96
ATOM     96  CA  THR A  50       3.744 -11.244  -7.745  0.00  0.00    +0.000 C 
BRANCH  96  97
ATOM     97  C   THR A  50       2.559 -11.220  -6.787  0.00  0.00    +0.000 C 
ATOM     98  O   THR A  50       1.907 -10.189  -6.615  0.00  0.00    +0.000 OA
ATOM     99  N   LEU A  51       2.284 -12.360  -6.164  0.00  0.00    +0.000 N 
ATOM    100  H   LEU A  51       2.839 -13.148  -6.341  0.00  0.00    +0.000 HD
BRANCH  99 101
ATOM    101  CA  LEU A  51       1.177 -12.470  -5.220  0.00  0.00    +0.000 C 
BRANCH 101 102
ATOM    102  C   LEU A  51       1.433 -13.579  -4.206  0.00  0.00    +0.000 C 
ATOM    103  O   LEU A  51       1.389 -14.762  -4.541  0.00  0.00    +0.000 OA
ATOM    104  N   GLU A  52       1.700 -13.188  -2.963  0.00  0.00    +0.000 N 
ATOM    105  H   GLU A  52       1.721 -12.230  -2.758  0.00  0.00    +0.000 HD
BRANCH 104 106
ATOM    106  CA  GLU A  52       1.962 -14.151  -1.900  0.00  0.00    +0.000 C 
BRANCH 106 107
ATOM    107  C   GLU A  52       2.021 -13.458  -0.541  0.00  0.00    +0.000 C 
ATOM    108  O   GLU A  52       2.181 -12.240  -0.461  0.00  0.00    +0.000 OA
ATOM    109  N   HIS A  53       2.476 -14.374   0.714  0.00  0.00    +0.000 N 
ATOM    110  H   HIS A  53       1.528 -15.091   0.699  0.00  0.00    +0.000 HD
BRANCH 109 111
ATOM    111  CA  HIS A  53       3.153 -14.873   2.249  0.00  0.00    +0.000 C 
BRANCH 111 112
ATOM    112  C   HIS A  53       3.418 -14.936   3.969  0.00  0.00    +0.000 C 
ATOM    113  O   HIS A  53       3.279 -13.923   4.704  0.00  0.00    +0.000 OA
ATOM    114  N   HIS A  54       3.891 -16.075   4.852  0.00  0.00    +0.000 N 
ATOM    115  H   HIS A  54       2.974 -16.799   4.625  0.00  0.00    +0.000 HD
BRANCH 114 116
ATOM    116  CA  HIS A  54       4.661 -16.609   6.194  0.00  0.00    +0.000 C 
BRANCH 116 117
ATOM    117  C   HIS A  54       4.864 -16.621   7.840  0.00  0.00    +0.000 C 
ATOM    118  O   HIS A  54       4.742 -15.538   8.449  0.00  0.00    +0.000 OA
ATOM    119  N   HIS A  55       5.348 -17.742   8.636  0.00  0.00    +0.000 N 
ATOM    120  H   HIS A  55       4.449 -18.488   8.405  0.00  0.00    +0.000 HD
BRANCH 119 121
ATOM    121  CA  HIS A  55       6.140 -18.272   9.909  0.00  0.00    +0.000 C 
BRANCH 121 122
ATOM    122  C   HIS A  55       6.314 -18.261  11.536  0.00  0.00    +0.000 C 
ATOM    123  O   HIS A  55       6.196 -17.174  12.129  0.00  0.00    +0.000 OA
ATOM    124  N   HIS A  56       6.799 -19.375  12.328  0.00  0.00    +0.000 N 
ATOM    125  H   HIS A  56       5.913 -20.143  12.122  0.00  0.00    +0.000 HD
BRANCH 124 126
ATOM    126  CA  HIS A  56       7.596 -19.901  13.598  0.00  0.00    +0.000 C 
BRANCH 126 127
ATOM    127  C   HIS A  56       7.781 -19.893  15.223  0.00  0.00    +0.000 C 
ATOM    128  O   HIS A  56       7.651 -18.800  15.822  0.00  0.00    +0.000 OA
ATOM    129  N   HIS A  57       8.255 -21.027  16.009  0.00  0.00    +0.000 N 
ATOM    130  H   HIS A  57       7.289 -21.705  15.860  0.00  0.00    +0.000 HD
BRANCH 129 131
ATOM    131  CA  HIS A  57       9.067 -21.554  17.275  0.00  0.00    +0.000 C 
BRANCH 131 132
ATOM    132  C   HIS A  57       9.258 -21.536  18.896  0.00  0.00    +0.000 C 
ATOM    133  O   HIS A  57       9.100 -20.447  19.464  0.00  0.00    +0.000 OA
ATOM    134  N   HIS A  58       9.676 -22.505  19.881  0.00  0.00    +0.000 N 
ATOM    135  H   HIS A  58       8.731 -23.158  20.190  0.00  0.00    +0.000 HD
BRANCH 134 136
ATOM    136  CA  HIS A  58      10.680 -22.816  21.038  0.00  0.00    +0.000 C 
BRANCH 136 137
ATOM    137  C   HIS A  58      10.883 -22.267  22.533  0.00  0.00    +0.000 C 
ATOM    138  O   HIS A  58       9.914 -22.207  23.334  0.00  0.00    +0.000 OA
ATOM    139  OXT HIS A  58      11.905 -22.499  23.231  0.00  0.00    +0.000 OA
ENDBRANCH 136 137
BRANCH 136 140
ATOM    140  CB  HIS A  58      11.947 -23.652  20.990  0.00  0.00    +0.000 C 
BRANCH 140 141
ATOM    141  CG  HIS A  58      12.761 -23.984  19.791  0.00  0.00    +0.000 A 
ATOM    142  ND1 HIS A  58      12.697 -25.165  19.090  0.00  0.00    +0.000 N 
ATOM    143  HD1 HIS A  58      12.296 -26.259  19.319  0.00  0.00    +0.000 HD
ATOM    144  CE1 HIS A  58      13.463 -24.942  18.012  0.00  0.00    +0.000 A 
ATOM    145  NE2 HIS A  58      14.067 -23.744  18.081  0.00  0.00    +0.000 NA
ATOM    146  CD2 HIS A  58      13.690 -23.135  19.272  0.00  0.00    +0.000 A 
ENDBRANCH 140 141
ENDBRANCH 136 140
ENDBRANCH 134 136
ENDBRANCH 131 132
BRANCH 131 147
ATOM    147  CB  HIS A  57      10.537 -21.872  17.248  0.00  0.00    +0.000 C 
BRANCH 147 148
ATOM    148  CG  HIS A  57      11.313 -22.335  16.080  0.00  0.00    +0.000 A 
ATOM    149  ND1 HIS A  57      11.238 -23.530  15.402  0.00  0.00    +0.000 N 
ATOM    150  HD1 HIS A  57      10.625 -24.546  15.458  0.00  0.00    +0.000 HD
ATOM    151  CE1 HIS A  57      12.004 -23.311  14.321  0.00  0.00    +0.000 A 
ATOM    152  NE2 HIS A  57      12.615 -22.114  14.379  0.00  0.00    +0.000 NA
ATOM    153  CD2 HIS A  57      12.251 -21.498  15.566  0.00  0.00    +0.000 A 
ENDBRANCH 147 148
ENDBRANCH 131 147
ENDBRANCH 129 131
ENDBRANCH 126 127
BRANCH 126 154
ATOM    154  CB  HIS A  56       9.073 -20.219  13.559  0.00  0.00    +0.000 C 
BRANCH 154 155
ATOM    155  CG  HIS A  56       9.852 -20.698  12.398  0.00  0.00    +0.000 A 
ATOM    156  ND1 HIS A  56       9.783 -21.894  11.719  0.00  0.00    +0.000 N 
ATOM    157  HD1 HIS A  56       9.148 -22.897  11.781  0.00  0.00    +0.000 HD
ATOM    158  CE1 HIS A  56      10.549 -21.679  10.636  0.00  0.00    +0.000 A 
ATOM    159  NE2 HIS A  56      11.160 -20.483  10.693  0.00  0.00    +0.000 NA
ATOM    160  CD2 HIS A  56      10.795 -19.868  11.881  0.00  0.00    +0.000 A 
ENDBRANCH 154 155
ENDBRANCH 126 154
ENDBRANCH 124 126
ENDBRANCH 121 122
BRANCH 121 161
ATOM    161  CB  HIS A  55       7.619 -18.588   9.872  0.00  0.00    +0.000 C 
BRANCH 161 162
ATOM    162  CG  HIS A  55       8.398 -19.066   8.711  0.00  0.00    +0.000 A 
ATOM    163  ND1 HIS A  55       8.328 -20.262   8.033  0.00  0.00    +0.000 N 
ATOM    164  HD1 HIS A  55       7.668 -21.249   8.080  0.00  0.00    +0.000 HD
ATOM    165  CE1 HIS A  55       9.095 -20.047   6.949  0.00  0.00    +0.000 A 
ATOM    166  NE2 HIS A  55       9.706 -18.851   7.006  0.00  0.00    +0.000 NA
ATOM    167  CD2 HIS A  55       9.341 -18.237   8.195  0.00  0.00    +0.000 A 
ENDBRANCH 161 162
ENDBRANCH 121 161
ENDBRANCH 119 121
ENDBRANCH 116 117
BRANCH 116 168
ATOM    168  CB  HIS A  54       6.147 -16.958   6.185  0.00  0.00    +0.000 C 
BRANCH 168 169
ATOM    169  CG  HIS A  54       6.942 -17.433   5.027  0.00  0.00    +0.000 A 
ATOM    170  ND1 HIS A  54       6.874 -18.630   4.346  0.00  0.00    +0.000 N 
ATOM    171  HD1 HIS A  54       6.244 -19.635   4.417  0.00  0.00    +0.000 HD
ATOM    172  CE1 HIS A  54       7.641 -18.416   3.263  0.00  0.00    +0.000 A 
ATOM    173  NE2 HIS A  54       8.252 -17.220   3.320  0.00  0.00    +0.000 NA
ATOM    174  CD2 HIS A  54       7.887 -16.605   4.509  0.00  0.00    +0.000 A 
ENDBRANCH 168 169
ENDBRANCH 116 168
ENDBRANCH 114 116
ENDBRANCH 111 112
BRANCH 111 175
ATOM    175  CB  HIS A  53       4.602 -15.360   2.446  0.00  0.00    +0.000 C 
BRANCH 175 176
ATOM    176  CG  HIS A  53       5.478 -15.812   1.343  0.00  0.00    +0.000 C 
ATOM    177  ND1 HIS A  53       5.430 -17.008   0.661  0.00  0.00    +0.000 NA
ATOM    178  HD1 HIS A  53       4.804 -18.018   0.696  0.00  0.00    +0.000 HD
ATOM    179  CE1 HIS A  53       6.187 -16.788  -0.430  0.00  0.00    +0.000 C 
ATOM    180  NE2 HIS A  53       6.803 -15.596  -0.362  0.00  0.00    +0.000 NA
ATOM    181  CD2 HIS A  53       6.446 -14.996   0.843  0.00  0.00    +0.000 C 
ENDBRANCH 175 176
ENDBRANCH 111 175
ENDBRANCH 109 111
ENDBRANCH 106 107
BRANCH 106 182
ATOM    182  CB  GLU A  52       3.274 -14.891  -2.164  0.00  0.00    +0.000 C 
BRANCH 182 183
ATOM    183  CG  GLU A  52       4.412 -13.980  -2.592  0.00  0.00    +0.000 C 
BRANCH 183 184
ATOM    184  CD  GLU A  52       4.833 -13.019  -1.497  0.00  0.00    +0.000 C 
ATOM    185  OE1 GLU A  52       5.053 -13.477  -0.356  0.00  0.00    +0.000 OA
ATOM    186  OE2 GLU A  52       4.944 -11.808  -1.782  0.00  0.00    +0.000 OA
ENDBRANCH 183 184
ENDBRANCH 182 183
ENDBRANCH 106 182
ENDBRANCH 104 106
ENDBRANCH 101 102
BRANCH 101 187
ATOM    187  CB  LEU A  51      -0.131 -12.739  -5.967  0.00  0.00    +0.000 C 
BRANCH 187 188
ATOM    188  CG  LEU A  51      -1.406 -12.235  -5.291  0.00  0.00    +0.000 C 
ATOM    189  CD1 LEU A  51      -1.572 -12.873  -3.921  0.00  0.00    +0.000 C 
ATOM    190  CD2 LEU A  51      -1.385 -10.718  -5.176  0.00  0.00    +0.000 C 
ENDBRANCH 187 188
ENDBRANCH 101 187
ENDBRANCH  99 101
ENDBRANCH  96  97
BRANCH  96 191
ATOM    191  CB  THR A  50       4.022  -9.811  -8.236  0.00  0.00    +0.000 C 
ATOM    192  CG2 THR A  50       2.928  -9.341  -9.182  0.00  0.00    +0.000 C 
BRANCH 191 193
ATOM    193  OG1 THR A  50       4.110  -8.919  -7.119  0.00  0.00    +0.000 OA
ATOM    194  HG1 THR A  50       4.980  -8.990  -6.720  0.00  0.00    +0.000 HD
ENDBRANCH 191 193
ENDBRANCH  96 191
ENDBRANCH  94  96
ENDBRANCH  91  92
BRANCH  91 195
ATOM    195  CB  GLN A  49       3.158 -15.582  -9.686  0.00  0.00    +0.000 C 
BRANCH 195 196
ATOM    196  CG  GLN A  49       2.845 -16.510 -10.848  0.00  0.00    +0.000 C 
BRANCH 196 197
ATOM    197  CD  GLN A  49       2.201 -17.808 -10.402  0.00  0.00    +0.000 C 
ATOM    198  OE1 GLN A  49       2.829 -18.627  -9.730  0.00  0.00    +0.000 OA
ATOM    199  NE2 GLN A  49       0.941 -18.003 -10.772  0.00  0.00    +0.000 N 
ATOM    200 HE21 GLN A  49       0.504 -17.307 -11.307  0.00  0.00    +0.000 HD
ATOM    201 HE22 GLN A  49       0.500 -18.833 -10.498  0.00  0.00    +0.000 HD
ENDBRANCH 196 197
ENDBRANCH 195 196
ENDBRANCH  91 195
ENDBRANCH  89  91
ENDBRANCH  86  87
BRANCH  86 202
ATOM    202  CB  LYS A  48       7.402 -12.610 -12.596  0.00  0.00    +0.000 C 
BRANCH 202 203
ATOM    203  CG  LYS A  48       7.818 -12.344 -11.160  0.00  0.00    +0.000 C 
BRANCH 203 204
ATOM    204  CD  LYS A  48       8.885 -13.322 -10.698  0.00  0.00    +0.000 C 
BRANCH 204 205
ATOM    205  CE  LYS A  48       9.237 -13.113  -9.233  0.00  0.00    +0.000 C 
BRANCH 205 206
ATOM    206  NZ  LYS A  48      10.138 -11.943  -9.041  0.00  0.00    +0.000 N 
ATOM    207  HZ1 LYS A  48      10.923 -12.197  -8.408  0.00  0.00    +0.000 HD
ATOM    208  HZ2 LYS A  48       9.611 -11.152  -8.619  0.00  0.00    +0.000 HD
ATOM    209  HZ3 LYS A  48      10.528 -11.638  -9.955  0.00  0.00    +0.000 HD
ENDBRANCH 205 206
ENDBRANCH 204 205
ENDBRANCH 203 204
ENDBRANCH 202 203
ENDBRANCH  86 202
ENDBRANCH  84  86
ENDBRANCH  81  82
BRANCH  81 210
ATOM    210  CB  GLU A  47       6.343 -15.637 -16.793  0.00  0.00    +0.000 C 
BRANCH 210 211
ATOM    211  CG  GLU A  47       6.020 -16.301 -18.121  0.00  0.00    +0.000 C 
BRANCH 211 212
ATOM    212  CD  GLU A  47       7.112 -17.246 -18.582  0.00  0.00    +0.000 C 
ATOM    213  OE1 GLU A  47       8.301 -16.918 -18.390  0.00  0.00    +0.000 OA
ATOM    214  OE2 GLU A  47       6.777 -18.315 -19.135  0.00  0.00    +0.000 OA
ENDBRANCH 211 212
ENDBRANCH 210 211
ENDBRANCH  81 210
ENDBRANCH  79  81
ENDBRANCH  76  77
BRANCH  76 215
ATOM    215  CB  LEU A  46       2.751 -12.128 -18.517  0.00  0.00    +0.000 C 
BRANCH 215 216
ATOM    216  CG  LEU A  46       1.817 -11.038 -19.043  0.00  0.00    +0.000 C 
ATOM    217  CD1 LEU A  46       2.429  -9.662 -18.830  0.00  0.00    +0.000 C 
ATOM    218  CD2 LEU A  46       1.507 -11.265 -20.515  0.00  0.00    +0.000 C 
ENDBRANCH 215 216
ENDBRANCH  76 215
ENDBRANCH  74  76
ENDBRANCH  71  72
BRANCH  71 219
ATOM    219  CB  TYR A  45       5.781  -8.605 -16.115  0.00  0.00    +0.000 C 
BRANCH 219 220
ATOM    220  CG  TYR A  45       4.967  -8.009 -14.989  0.00  0.00    +0.000 A 
ATOM    221  CD1 TYR A  45       5.585  -7.478 -13.864  0.00  0.00    +0.000 A 
ATOM    222  CD2 TYR A  45       3.579  -7.975 -15.052  0.00  0.00    +0.000 A 
ATOM    223  CE1 TYR A  45       4.845  -6.933 -12.833  0.00  0.00    +0.000 A 
ATOM    224  CE2 TYR A  45       2.831  -7.430 -14.026  0.00  0.00    +0.000 A 
ATOM    225  CZ  TYR A  45       3.469  -6.911 -12.918  0.00  0.00    +0.000 A 
BRANCH 225 226
ATOM    226  OH  TYR A  45       2.728  -6.367 -11.894  0.00  0.00    +0.000 OA
ATOM    227  HH  TYR A  45       3.285  -6.258 -11.120  0.00  0.00    +0.000 HD
ENDBRANCH 225 226
ENDBRANCH 219 220
ENDBRANCH  71 219
ENDBRANCH  69  71
ENDBRANCH  66  67
BRANCH  66 228
ATOM    228  CB  ASN A  44      10.279 -11.146 -17.633  0.00  0.00    +0.000 C 
BRANCH 228 229
ATOM    229  CG  ASN A  44      10.831 -11.338 -16.234  0.00  0.00    +0.000 C 
ATOM    230  OD1 ASN A  44      10.545 -10.556 -15.328  0.00  0.00    +0.000 OA
ATOM    231  ND2 ASN A  44      11.628 -12.385 -16.052  0.00  0.00    +0.000 N 
ATOM    232 HD21 ASN A  44      11.812 -12.966 -16.820  0.00  0.00    +0.000 HD
ATOM    233 HD22 ASN A  44      11.999 -12.534 -15.157  0.00  0.00    +0.000 HD
ENDBRANCH 228 229
ENDBRANCH  66 228
ENDBRANCH  64  66
ENDBRANCH  61  62
BRANCH  61 234
ATOM    234  CB  LEU A  43       7.723 -12.201 -22.155  0.00  0.00    +0.000 C 
BRANCH 234 235
ATOM    235  CG  LEU A  43       7.215 -13.466 -22.848  0.00  0.00    +0.000 C 
ATOM    236  CD1 LEU A  43       7.602 -13.462 -24.318  0.00  0.00    +0.000 C 
ATOM    237  CD2 LEU A  43       7.757 -14.708 -22.155  0.00  0.00    +0.000 C 
ENDBRANCH 234 235
ENDBRANCH  61 234
ENDBRANCH  59  61
ENDBRANCH  56  57
BRANCH  56 238
ATOM    238  CB  ILE A  42       5.459  -7.571 -21.528  0.00  0.00    +0.000 C 
ATOM    239  CG2 ILE A  42       4.035  -8.104 -21.475  0.00  0.00    +0.000 C 
BRANCH 238 240
ATOM    240  CG1 ILE A  42       5.458  -6.048 -21.672  0.00  0.00    +0.000 C 
ATOM    241  CD1 ILE A  42       4.716  -5.336 -20.562  0.00  0.00    +0.000 C 
ENDBRANCH 238 240
ENDBRANCH  56 238
ENDBRANCH  54  56
ENDBRANCH  51  52
BRANCH  51 242
ATOM    242  CB  ASP A  41       9.842  -5.511 -19.264  0.00  0.00    +0.000 C 
BRANCH 242 243
ATOM    243  CG  ASP A  41      11.152  -5.009 -18.689  0.00  0.00    +0.000 C 
ATOM    244  OD1 ASP A  41      11.622  -5.589 -17.687  0.00  0.00    +0.000 OA
ATOM    245  OD2 ASP A  41      11.708  -4.036 -19.241  0.00  0.00    +0.000 OA
ENDBRANCH 242 243
ENDBRANCH  51 242
ENDBRANCH  49  51
ENDBRANCH  46  47
BRANCH  46 246
ATOM    246  CB  GLU A  40      12.860  -8.510 -22.443  0.00  0.00    +0.000 C 
BRANCH 246 247
ATOM    247  CG  GLU A  40      13.146  -7.070 -22.050  0.00  0.00    +0.000 C 
BRANCH 247 248
ATOM    248  CD  GLU A  40      14.461  -6.563 -22.609  0.00  0.00    +0.000 C 
ATOM    249  OE1 GLU A  40      14.471  -6.085 -23.763  0.00  0.00    +0.000 OA
ATOM    250  OE2 GLU A  40      15.480  -6.643 -21.892  0.00  0.00    +0.000 OA
ENDBRANCH 247 248
ENDBRANCH 246 247
ENDBRANCH  46 246
ENDBRANCH  44  46
ENDBRANCH  41  42
BRANCH  41 251
ATOM    251  CB  LYS A  39       8.724  -8.198 -25.912  0.00  0.00    +0.000 C 
BRANCH 251 252
ATOM    252  CG  LYS A  39       7.920  -9.483 -26.016  0.00  0.00    +0.000 C 
BRANCH 252 253
ATOM    253  CD  LYS A  39       7.641  -9.850 -27.464  0.00  0.00    +0.000 C 
BRANCH 253 254
ATOM    254  CE  LYS A  39       6.421  -9.116 -28.000  0.00  0.00    +0.000 C 
BRANCH 254 255
ATOM    255  NZ  LYS A  39       6.489  -8.930 -29.476  0.00  0.00    +0.000 N 
ATOM    256  HZ1 LYS A  39       5.796  -9.546 -29.946  0.00  0.00    +0.000 HD
ATOM    257  HZ2 LYS A  39       7.440  -9.169 -29.822  0.00  0.00    +0.000 HD
ATOM    258  HZ3 LYS A  39       6.281  -7.941 -29.722  0.00  0.00    +0.000 HD
ENDBRANCH 254 255
ENDBRANCH 253 254
ENDBRANCH 252 253
ENDBRANCH 251 252
ENDBRANCH  41 251
ENDBRANCH  39  41
ENDBRANCH  36  37
BRANCH  36 259
ATOM    259  CB  LEU A  38      11.280  -4.163 -24.327  0.00  0.00    +0.000 C 
BRANCH 259 260
ATOM    260  CG  LEU A  38      11.862  -2.912 -24.986  0.00  0.00    +0.000 C 
ATOM    261  CD1 LEU A  38      13.377  -2.891 -24.847  0.00  0.00    +0.000 C 
ATOM    262  CD2 LEU A  38      11.459  -2.845 -26.452  0.00  0.00    +0.000 C 
ENDBRANCH 259 260
ENDBRANCH  36 259
ENDBRANCH  34  36
ENDBRANCH  31  32
BRANCH  31 263
ATOM    263  CB  ILE A  37       7.907  -1.052 -20.415  0.00  0.00    +0.000 C 
ATOM    264  CG2 ILE A  37       6.959  -2.210 -20.140  0.00  0.00    +0.000 C 
BRANCH 263 265
ATOM    265  CG1 ILE A  37       8.068  -0.181 -19.167  0.00  0.00    +0.000 C 
ATOM    266  CD1 ILE A  37       6.763   0.385 -18.653  0.00  0.00    +0.000 C 
ENDBRANCH 263 265
ENDBRANCH  31 263
ENDBRANCH  29  31
ENDBRANCH  26  27
BRANCH  26 267
ATOM    267  CB  ARG A  36      12.748   0.960 -19.736  0.00  0.00    +0.000 C 
BRANCH 267 268
ATOM    268  CG  ARG A  36      13.648   0.054 -18.913  0.00  0.00    +0.000 C 
BRANCH 268 269
ATOM    269  CD  ARG A  36      15.109   0.460 -19.035  0.00  0.00    +0.000 C 
BRANCH 269 270
ATOM    270  NE  ARG A  36      15.871   0.130 -17.834  0.00  0.00    +0.000 N 
ATOM    271  CZ  ARG A  36      16.149  -1.113 -17.458  0.00  0.00    +0.000 C 
ATOM    272  NH1 ARG A  36      15.732  -2.138 -18.187  0.00  0.00    +0.000 N 
ATOM    273  NH2 ARG A  36      16.848  -1.332 -16.352  0.00  0.00    +0.000 N 
ATOM    274  HE  ARG A  36      16.189   0.873 -17.280  0.00  0.00    +0.000 HD
ATOM    275 HH11 ARG A  36      15.206  -1.976 -19.022  0.00  0.00    +0.000 HD
ATOM    276 HH12 ARG A  36      15.944  -3.074 -17.903  0.00  0.00    +0.000 HD
ATOM    277 HH21 ARG A  36      17.165  -0.562 -15.800  0.00  0.00    +0.000 HD
ATOM    278 HH22 ARG A  36      17.058  -2.268 -16.070  0.00  0.00    +0.000 HD
ENDBRANCH 269 270
ENDBRANCH 268 269
ENDBRANCH 267 268
ENDBRANCH  26 267
ENDBRANCH  24  26
ENDBRANCH  21  22
ENDBRANCH  19  21
ENDBRANCH  16  17
BRANCH  16 279
ATOM    279  CB  ASP A  34      14.155   6.119 -23.532  0.00  0.00    +0.000 C 
BRANCH 279 280
ATOM    280  CG  ASP A  34      15.318   5.211 -23.181  0.00  0.00    +0.000 C 
ATOM    281  OD1 ASP A  34      15.708   5.178 -21.995  0.00  0.00    +0.000 OA
ATOM    282  OD2 ASP A  34      15.837   4.534 -24.092  0.00  0.00    +0.000 OA
ENDBRANCH 279 280
ENDBRANCH  16 279
ENDBRANCH  14  16
ENDBRANCH  11  12
BRANCH  11 283
ATOM    283  CB  LYS A  33      13.817   5.786 -18.898  0.00  0.00    +0.000 C 
BRANCH 283 284
ATOM    284  CG  LYS A  33      14.181   6.238 -17.494  0.00  0.00    +0.000 C 
BRANCH 284 285
ATOM    285  CD  LYS A  33      14.113   7.750 -17.360  0.00  0.00    +0.000 C 
BRANCH 285 286
ATOM    286  CE  LYS A  33      14.981   8.247 -16.214  0.00  0.00    +0.000 C 
BRANCH 286 287
ATOM    287  NZ  LYS A  33      16.370   8.544 -16.659  0.00  0.00    +0.000 N 
ATOM    288  HZ1 LYS A  33      17.024   7.822 -16.295  0.00  0.00    +0.000 HD
ATOM    289  HZ2 LYS A  33      16.668   9.475 -16.303  0.00  0.00    +0.000 HD
ATOM    290  HZ3 LYS A  33      16.420   8.550 -17.697  0.00  0.00    +0.000 HD
ENDBRANCH 286 287
ENDBRANCH 285 286
ENDBRANCH 284 285
ENDBRANCH 283 284
ENDBRANCH  11 283
ENDBRANCH   9  11
ENDBRANCH   6   7
ENDBRANCH   4   6
ENDBRANCH   1   2
BRANCH   1 293
ATOM    291  C   GLY A  30      10.978  -0.137 -15.561  0.00  0.00    +0.000 C 
ATOM    292  O   GLY A  30      10.892   0.072 -14.351  0.00  0.00    +0.000 OA
ATOM    293  N   SER A  31      11.476   0.752 -16.415  0.00  0.00    +0.000 N 
ATOM    294  H   SER A  31      11.518   0.527 -17.368  0.00  0.00    +0.000 HD
BRANCH 291 295
ATOM    295  CA  GLY A  30      10.511  -1.451 -16.154  0.00  0.00    +0.000 C 
BRANCH 295 298
ATOM    296  C   VAL A  29       9.371  -3.488 -15.523  0.00  0.00    +0.000 C 
ATOM    297  O   VAL A  29       9.414  -3.917 -16.675  0.00  0.00    +0.000 OA
ATOM    298  N   GLY A  30       9.873  -2.308 -15.172  0.00  0.00    +0.000 N 
ATOM    299  H   GLY A  30       9.810  -2.017 -14.238  0.00  0.00    +0.000 HD
BRANCH 296 300
ATOM    300  CA  VAL A  29       8.725  -4.302 -14.408  0.00  0.00    +0.000 C 
BRANCH 300 303
ATOM    301  C   VAL A  28       6.397  -3.669 -14.736  0.00  0.00    +0.000 C 
ATOM    302  O   VAL A  28       6.633  -2.486 -14.490  0.00  0.00    +0.000 OA
ATOM    303  N   VAL A  29       7.334  -4.611 -14.720  0.00  0.00    +0.000 N 
ATOM    304  H   VAL A  29       7.085  -5.537 -14.925  0.00  0.00    +0.000 HD
BRANCH 301 305
ATOM    305  CA  VAL A  28       4.985  -4.130 -15.081  0.00  0.00    +0.000 C 
BRANCH 305 308
ATOM    306  C   GLU A  27       3.894  -3.165 -13.131  0.00  0.00    +0.000 C 
ATOM    307  O   GLU A  27       4.636  -3.768 -12.355  0.00  0.00    +0.000 OA
ATOM    308  N   VAL A  28       3.985  -3.275 -14.452  0.00  0.00    +0.000 N 
ATOM    309  H   VAL A  28       3.366  -2.769 -15.018  0.00  0.00    +0.000 HD
BRANCH 306 310
ATOM    310  CA  GLU A  27       2.803  -2.235 -12.607  0.00  0.00    +0.000 C 
BRANCH 310 313
ATOM    311  C   SER A  26       3.256  -0.164 -13.801  0.00  0.00    +0.000 C 
ATOM    312  O   SER A  26       4.304   0.021 -13.184  0.00  0.00    +0.000 OA
ATOM    313  N   GLU A  27       2.470  -1.216 -13.595  0.00  0.00    +0.000 N 
ATOM    314  H   GLU A  27       1.647  -1.308 -14.119  0.00  0.00    +0.000 HD
BRANCH 311 315
ATOM    315  CA  SER A  26       2.789   0.826 -14.864  0.00  0.00    +0.000 C 
BRANCH 315 318
ATOM    316  C   LEU A  25       2.492  -0.557 -16.845  0.00  0.00    +0.000 C 
ATOM    317  O   LEU A  25       3.705  -0.715 -16.977  0.00  0.00    +0.000 OA
ATOM    318  N   SER A  26       1.959   0.163 -15.863  0.00  0.00    +0.000 N 
ATOM    319  H   SER A  26       0.984   0.252 -15.811  0.00  0.00    +0.000 HD
BRANCH 316 320
ATOM    320  CA  LEU A  25       1.509  -1.195 -17.821  0.00  0.00    +0.000 C 
BRANCH 320 323
ATOM    321  C   LYS A  24      -0.234  -2.694 -17.022  0.00  0.00    +0.000 C 
ATOM    322  O   LYS A  24       0.376  -3.691 -17.411  0.00  0.00    +0.000 OA
ATOM    323  N   LEU A  25       0.229  -1.458 -17.175  0.00  0.00    +0.000 N 
ATOM    324  H   LEU A  25      -0.303  -0.704 -16.845  0.00  0.00    +0.000 HD
BRANCH 321 325
ATOM    325  CA  LYS A  24      -1.585  -2.827 -16.327  0.00  0.00    +0.000 C 
BRANCH 325 328
ATOM    326  C   ILE A  23      -2.078  -5.127 -16.953  0.00  0.00    +0.000 C 
ATOM    327  O   ILE A  23      -2.048  -4.859 -18.154  0.00  0.00    +0.000 OA
ATOM    328  N   LYS A  24      -1.869  -4.220 -16.005  0.00  0.00    +0.000 N 
ATOM    329  H   LYS A  24      -1.907  -4.495 -15.064  0.00  0.00    +0.000 HD
BRANCH 326 330
ATOM    330  CA  ILE A  23      -2.361  -6.547 -16.474  0.00  0.00    +0.000 C 
BRANCH 330 333
ATOM    331  C   ASN A  22      -4.382  -7.898 -16.564  0.00  0.00    +0.000 C 
ATOM    332  O   ASN A  22      -4.307  -8.181 -15.368  0.00  0.00    +0.000 OA
ATOM    333  N   ILE A  23      -3.497  -7.124 -17.182  0.00  0.00    +0.000 N 
ATOM    334  H   ILE A  23      -3.611  -6.935 -18.137  0.00  0.00    +0.000 HD
BRANCH 331 335
ATOM    335  CA  ASN A  22      -5.523  -8.434 -17.423  0.00  0.00    +0.000 C 
BRANCH 335 338
ATOM    336  C   ASN A  21      -4.196 -10.209 -18.430  0.00  0.00    +0.000 C 
ATOM    337  O   ASN A  21      -3.827 -10.623 -17.332  0.00  0.00    +0.000 OA
ATOM    338  N   ASN A  22      -5.008  -9.167 -18.574  0.00  0.00    +0.000 N 
ATOM    339  H   ASN A  22      -5.267  -8.884 -19.476  0.00  0.00    +0.000 HD
BRANCH 336 340
ATOM    340  CA  ASN A  21      -3.732 -10.884 -19.717  0.00  0.00    +0.000 C 
BRANCH 340 343
ATOM    341  C   GLU A  20      -4.903 -10.331 -21.778  0.00  0.00    +0.000 C 
ATOM    342  O   GLU A  20      -5.604 -11.340 -21.709  0.00  0.00    +0.000 OA
ATOM    343  N   ASN A  21      -3.979 -10.028 -20.871  0.00  0.00    +0.000 N 
ATOM    344  H   ASN A  21      -3.451  -9.210 -20.981  0.00  0.00    +0.000 HD
BRANCH 341 345
ATOM    345  CA  GLU A  20      -5.056  -9.349 -22.936  0.00  0.00    +0.000 C 
BRANCH 345 348
ATOM    346  C   MET A  19      -5.176  -7.325 -21.590  0.00  0.00    +0.000 C 
ATOM    347  O   MET A  19      -6.143  -7.744 -20.955  0.00  0.00    +0.000 OA
ATOM    348  N   GLU A  20      -4.587  -8.021 -22.557  0.00  0.00    +0.000 N 
ATOM    349  H   GLU A  20      -3.820  -7.633 -23.027  0.00  0.00    +0.000 HD
BRANCH 346 350
ATOM    350  CA  MET A  19      -4.586  -5.949 -21.295  0.00  0.00    +0.000 C 
BRANCH 350 353
ATOM    351  C   ALA A  18      -2.305  -6.612 -20.764  0.00  0.00    +0.000 C 
ATOM    352  O   ALA A  18      -2.672  -7.284 -19.801  0.00  0.00    +0.000 OA
ATOM    353  N   MET A  19      -3.148  -5.937 -21.539  0.00  0.00    +0.000 N 
ATOM    354  H   MET A  19      -2.796  -5.419 -22.292  0.00  0.00    +0.000 HD
BRANCH 351 355
ATOM    355  CA  ALA A  18      -0.828  -6.514 -21.131  0.00  0.00    +0.000 C 
ATOM    356  CB  ALA A  18      -0.157  -5.405 -20.335  0.00  0.00    +0.000 C 
BRANCH 355 359
ATOM    357  C   LEU A  17      -1.215  -7.083 -23.465  0.00  0.00    +0.000 C 
ATOM    358  O   LEU A  17      -1.906  -8.057 -23.164  0.00  0.00    +0.000 OA
ATOM    359  N   ALA A  18      -0.656  -6.287 -22.560  0.00  0.00    +0.000 N 
ATOM    360  H   ALA A  18      -0.116  -5.527 -22.861  0.00  0.00    +0.000 HD
BRANCH 357 361
ATOM    361  CA  LEU A  17      -0.958  -6.728 -24.925  0.00  0.00    +0.000 C 
BRANCH 361 364
ATOM    362  C   ARG A  16      -2.595  -4.926 -24.897  0.00  0.00    +0.000 C 
ATOM    363  O   ARG A  16      -3.440  -5.637 -24.351  0.00  0.00    +0.000 OA
ATOM    364  N   LEU A  17      -1.379  -5.361 -25.211  0.00  0.00    +0.000 N 
ATOM    365  H   LEU A  17      -0.749  -4.749 -25.644  0.00  0.00    +0.000 HD
BRANCH 362 366
ATOM    366  CA  ARG A  16      -2.903  -3.475 -25.252  0.00  0.00    +0.000 C 
BRANCH 366 369
ATOM    367  C   ARG A  15      -1.079  -2.551 -23.932  0.00  0.00    +0.000 C 
ATOM    368  O   ARG A  15      -1.433  -3.162 -22.924  0.00  0.00    +0.000 OA
ATOM    369  N   ARG A  16      -1.720  -2.638 -25.093  0.00  0.00    +0.000 N 
ATOM    370  H   ARG A  16      -1.390  -2.127 -25.862  0.00  0.00    +0.000 HD
BRANCH 367 371
ATOM    371  CA  ARG A  15       0.143  -1.638 -23.905  0.00  0.00    +0.000 C 
BRANCH 371 374
ATOM    372  C   VAL A  14       1.773  -3.234 -24.753  0.00  0.00    +0.000 C 
ATOM    373  O   VAL A  14       1.567  -4.014 -23.823  0.00  0.00    +0.000 OA
ATOM    374  N   ARG A  15       1.139  -2.073 -24.877  0.00  0.00    +0.000 N 
ATOM    375  H   ARG A  15       1.345  -1.494 -25.641  0.00  0.00    +0.000 HD
BRANCH 372 376
ATOM    376  CA  VAL A  14       2.789  -3.565 -25.840  0.00  0.00    +0.000 C 
BRANCH 376 379
ATOM    377  C   ALA A  13       1.437  -3.507 -27.864  0.00  0.00    +0.000 C 
ATOM    378  O   ALA A  13       0.812  -4.515 -27.534  0.00  0.00    +0.000 OA
ATOM    379  N   VAL A  14       2.402  -2.979 -27.118  0.00  0.00    +0.000 N 
ATOM    380  H   VAL A  14       2.864  -2.174 -27.434  0.00  0.00    +0.000 HD
BRANCH 377 381
ATOM    381  CA  ALA A  13       1.133  -2.794 -29.177  0.00  0.00    +0.000 C 
ATOM    382  CB  ALA A  13       1.876  -3.459 -30.326  0.00  0.00    +0.000 C 
BRANCH 381 385
ATOM    383  C   PRO A  12       0.645  -0.483 -28.589  0.00  0.00    +0.000 C 
ATOM    384  O   PRO A  12      -0.468  -0.776 -28.155  0.00  0.00    +0.000 OA
ATOM    385  N   ALA A  13       1.482  -1.381 -29.099  0.00  0.00    +0.000 N 
ATOM    386  H   ALA A  13       2.356  -1.086 -29.429  0.00  0.00    +0.000 HD
BRANCH 383 390
ATOM    387  C   THR A  11       3.476   0.649 -27.855  0.00  0.00    +0.000 C 
ATOM    388  O   THR A  11       3.133   0.162 -26.778  0.00  0.00    +0.000 OA
ATOM    389  N   PRO A  12       2.586   1.058 -28.771  0.00  0.00    +0.000 N 
ATOM    390  CA  PRO A  12       1.138   0.960 -28.566  0.00  0.00    +0.000 C 
ATOM    391  CB  PRO A  12       0.558   1.742 -29.747  0.00  0.00    +0.000 C 
ATOM    392  CG  PRO A  12       1.607   1.666 -30.802  0.00  0.00    +0.000 C 
ATOM    393  CD  PRO A  12       2.924   1.648 -30.077  0.00  0.00    +0.000 C 
BRANCH 387 394
ATOM    394  CA  THR A  11       4.946   0.819 -28.222  0.00  0.00    +0.000 C 
BRANCH 394 397
ATOM    395  C   ALA A  10       5.607   1.662 -26.037  0.00  0.00    +0.000 C 
ATOM    396  O   ALA A  10       4.723   2.520 -26.047  0.00  0.00    +0.000 OA
ATOM    397  N   THR A  11       5.790   0.802 -27.034  0.00  0.00    +0.000 N 
ATOM    398  H   THR A  11       6.511   0.142 -26.968  0.00  0.00    +0.000 HD
BRANCH 395 399
ATOM    399  CA  ALA A  10       6.562   1.537 -24.855  0.00  0.00    +0.000 C 
ATOM    400  CB  ALA A  10       6.297   0.245 -24.095  0.00  0.00    +0.000 C 
BRANCH 399 403
ATOM    401  C   LEU A   9       7.206   2.801 -22.879  0.00  0.00    +0.000 C 
ATOM    402  O   LEU A   9       8.050   1.966 -22.557  0.00  0.00    +0.000 OA
ATOM    403  N   ALA A  10       6.444   2.682 -23.961  0.00  0.00    +0.000 N 
ATOM    404  H   ALA A  10       5.789   3.382 -24.165  0.00  0.00    +0.000 HD
BRANCH 401 405
ATOM    405  CA  LEU A   9       6.983   4.052 -22.033  0.00  0.00    +0.000 C 
BRANCH 405 408
ATOM    406  C   THR A   8       5.011   4.452 -20.663  0.00  0.00    +0.000 C 
ATOM    407  O   THR A   8       4.634   5.374 -21.388  0.00  0.00    +0.000 OA
ATOM    408  N   LEU A   9       6.123   3.761 -20.891  0.00  0.00    +0.000 N 
ATOM    409  H   LEU A   9       6.372   3.039 -20.278  0.00  0.00    +0.000 HD
BRANCH 406 410
ATOM    410  CA  THR A   8       4.205   4.044 -19.435  0.00  0.00    +0.000 C 
BRANCH 410 413
ATOM    411  C   LYS A   7       3.175   5.166 -17.537  0.00  0.00    +0.000 C 
ATOM    412  O   LYS A   7       3.270   4.163 -16.829  0.00  0.00    +0.000 OA
ATOM    413  N   THR A   8       3.595   5.204 -18.797  0.00  0.00    +0.000 N 
ATOM    414  H   THR A   8       3.492   6.033 -19.310  0.00  0.00    +0.000 HD
BRANCH 411 415
ATOM    415  CA  LYS A   7       2.556   6.450 -16.994  0.00  0.00    +0.000 C 
BRANCH 415 418
ATOM    416  C   ARG A   6       0.358   6.716 -15.981  0.00  0.00    +0.000 C 
ATOM    417  O   ARG A   6       0.000   7.513 -16.848  0.00  0.00    +0.000 OA
ATOM    418  N   LYS A   7       1.563   6.156 -15.967  0.00  0.00    +0.000 N 
ATOM    419  H   LYS A   7       1.790   5.527 -15.249  0.00  0.00    +0.000 HD
BRANCH 416 420
ATOM    420  CA  ARG A   6      -0.582   6.317 -14.847  0.00  0.00    +0.000 C 
BRANCH 420 423
ATOM    421  C   GLY A   5       0.549   6.542 -12.704  0.00  0.00    +0.000 C 
ATOM    422  O   GLY A   5       1.082   5.438 -12.813  0.00  0.00    +0.000 OA
ATOM    423  N   ARG A   6      -0.263   7.048 -13.626  0.00  0.00    +0.000 N 
ATOM    424  H   ARG A   6      -0.657   7.934 -13.483  0.00  0.00    +0.000 HD
BRANCH 421 425
ATOM    425  CA  GLY A   5       0.796   7.402 -11.480  0.00  0.00    +0.000 C 
BRANCH 425 428
ATOM    426  C   LYS A   4       0.244   7.513  -9.129  0.00  0.00    +0.000 C 
ATOM    427  O   LYS A   4       0.918   8.530  -8.976  0.00  0.00    +0.000 OA
ATOM    428  N   GLY A   5       0.123   6.894 -10.300  0.00  0.00    +0.000 N 
ATOM    429  H   GLY A   5      -0.428   6.086 -10.362  0.00  0.00    +0.000 HD
BRANCH 426 430
ATOM    430  CA  LYS A   4      -0.508   6.891  -7.957  0.00  0.00    +0.000 C 
BRANCH 430 433
ATOM    431  C   ILE A   3      -0.255   4.607  -7.152  0.00  0.00    +0.000 C 
ATOM    432  O   ILE A   3      -1.414   4.320  -7.454  0.00  0.00    +0.000 OA
ATOM    433  N   LYS A   4       0.266   5.813  -7.354  0.00  0.00    +0.000 N 
ATOM    434  H   LYS A   4       1.196   5.981  -7.093  0.00  0.00    +0.000 HD
BRANCH 431 435
ATOM    435  CA  ILE A   3       0.667   3.573  -6.517  0.00  0.00    +0.000 C 
BRANCH 435 438
ATOM    436  C   GLU A   2       0.361   2.878  -4.206  0.00  0.00    +0.000 C 
ATOM    437  O   GLU A   2       1.314   3.558  -3.823  0.00  0.00    +0.000 OA
ATOM    438  N   ILE A   3      -0.023   2.821  -5.476  0.00  0.00    +0.000 N 
ATOM    439  H   ILE A   3      -0.789   2.261  -5.720  0.00  0.00    +0.000 HD
BRANCH 436 440
ATOM    440  CA  GLU A   2      -0.450   2.042  -3.220  0.00  0.00    +0.000 C 
BRANCH 440 443
ATOM    441  C   GLY A   1       1.237   0.481  -2.418  0.00  0.00    +0.000 C 
ATOM    442  O   GLY A   1       1.339  -0.053  -3.521  0.00  0.00    +0.000 OA
ATOM    443  N   GLU A   2       0.408   1.492  -2.176  0.00  0.00    +0.000 N 
ATOM    444  H   GLU A   2       0.372   1.877  -1.276  0.00  0.00    +0.000 HD
BRANCH 441 445
ATOM    445  CA  GLY A   1       2.071   0.001  -1.247  0.00  0.00    +0.000 C 
BRANCH 445 446
ATOM    446  N   GLY A   1       1.330   0.000   0.000  0.00  0.00    +0.000 N 
ATOM    447  H2  GLY A   1       0.825  -1.102  -0.004  0.00  0.00    +0.000 HD
ATOM    448  H3  GLY A   1       0.312   0.557   0.326  0.00  0.00    +0.000 HD
ATOM    449  H   GLY A   1       1.811  -0.001   0.854  0.00  0.00    +0.000 HD
ENDBRANCH 445 446
ENDBRANCH 441 445
ENDBRANCH 440 443
BRANCH 440 450
ATOM    450  CB  GLU A   2      -1.559   2.896  -2.602  0.00  0.00    +0.000 C 
BRANCH 450 451
ATOM    451  CG  GLU A   2      -1.048   4.147  -1.907  0.00  0.00    +0.000 C 
BRANCH 451 452
ATOM    452  CD  GLU A   2      -2.124   4.845  -1.097  0.00  0.00    +0.000 C 
ATOM    453  OE1 GLU A   2      -2.883   5.644  -1.684  0.00  0.00    +0.000 OA
ATOM    454  OE2 GLU A   2      -2.206   4.591   0.123  0.00  0.00    +0.000 OA
ENDBRANCH 451 452
ENDBRANCH 450 451
ENDBRANCH 440 450
ENDBRANCH 436 440
ENDBRANCH 435 438
BRANCH 435 455
ATOM    455  CB  ILE A   3       1.211   2.642  -7.617  0.00  0.00    +0.000 C 
ATOM    456  CG2 ILE A   3       2.421   1.872  -7.110  0.00  0.00    +0.000 C 
BRANCH 455 457
ATOM    457  CG1 ILE A   3       0.118   1.679  -8.087  0.00  0.00    +0.000 C 
ATOM    458  CD1 ILE A   3       0.544   0.798  -9.240  0.00  0.00    +0.000 C 
ENDBRANCH 455 457
ENDBRANCH 435 455
ENDBRANCH 431 435
ENDBRANCH 430 433
BRANCH 430 459
ATOM    459  CB  LYS A   4      -0.824   7.964  -6.913  0.00  0.00    +0.000 C 
BRANCH 459 460
ATOM    460  CG  LYS A   4       0.380   8.384  -6.088  0.00  0.00    +0.000 C 
BRANCH 460 461
ATOM    461  CD  LYS A   4       0.530   7.524  -4.844  0.00  0.00    +0.000 C 
BRANCH 461 462
ATOM    462  CE  LYS A   4       1.424   8.192  -3.810  0.00  0.00    +0.000 C 
BRANCH 462 463
ATOM    463  NZ  LYS A   4       2.867   7.935  -4.076  0.00  0.00    +0.000 N 
ATOM    464  HZ1 LYS A   4       3.363   7.731  -3.185  0.00  0.00    +0.000 HD
ATOM    465  HZ2 LYS A   4       3.302   8.770  -4.518  0.00  0.00    +0.000 HD
ATOM    466  HZ3 LYS A   4       2.974   7.122  -4.715  0.00  0.00    +0.000 HD
ENDBRANCH 462 463
ENDBRANCH 461 462
ENDBRANCH 460 461
ENDBRANCH 459 460
ENDBRANCH 430 459
ENDBRANCH 426 430
ENDBRANCH 425 428
ENDBRANCH 421 425
ENDBRANCH 420 423
BRANCH 420 467
ATOM    467  CB  ARG A   6      -2.033   6.578 -15.258  0.00  0.00    +0.000 C 
BRANCH 467 468
ATOM    468  CG  ARG A   6      -3.049   5.823 -14.417  0.00  0.00    +0.000 C 
BRANCH 468 469
ATOM    469  CD  ARG A   6      -3.483   6.634 -13.206  0.00  0.00    +0.000 C 
BRANCH 469 470
ATOM    470  NE  ARG A   6      -3.886   5.780 -12.091  0.00  0.00    +0.000 N 
ATOM    471  CZ  ARG A   6      -3.962   6.201 -10.834  0.00  0.00    +0.000 C 
ATOM    472  NH1 ARG A   6      -3.664   7.457 -10.532  0.00  0.00    +0.000 N 
ATOM    473  NH2 ARG A   6      -4.337   5.364  -9.874  0.00  0.00    +0.000 N 
ATOM    474  HE  ARG A   6      -4.111   4.848 -12.292  0.00  0.00    +0.000 HD
ATOM    475 HH11 ARG A   6      -3.382   8.090 -11.253  0.00  0.00    +0.000 HD
ATOM    476 HH12 ARG A   6      -3.723   7.772  -9.585  0.00  0.00    +0.000 HD
ATOM    477 HH21 ARG A   6      -4.563   4.417 -10.098  0.00  0.00    +0.000 HD
ATOM    478 HH22 ARG A   6      -4.394   5.682  -8.928  0.00  0.00    +0.000 HD
ENDBRANCH 469 470
ENDBRANCH 468 469
ENDBRANCH 467 468
ENDBRANCH 420 467
ENDBRANCH 416 420
ENDBRANCH 415 418
BRANCH 415 479
ATOM    479  CB  LYS A   7       3.651   7.357 -16.428  0.00  0.00    +0.000 C 
BRANCH 479 480
ATOM    480  CG  LYS A   7       4.299   8.252 -17.470  0.00  0.00    +0.000 C 
BRANCH 480 481
ATOM    481  CD  LYS A   7       3.341   9.325 -17.957  0.00  0.00    +0.000 C 
BRANCH 481 482
ATOM    482  CE  LYS A   7       3.613   9.700 -19.406  0.00  0.00    +0.000 C 
BRANCH 482 483
ATOM    483  NZ  LYS A   7       3.234   8.607 -20.343  0.00  0.00    +0.000 N 
ATOM    484  HZ1 LYS A   7       2.547   8.957 -21.041  0.00  0.00    +0.000 HD
ATOM    485  HZ2 LYS A   7       2.805   7.819 -19.817  0.00  0.00    +0.000 HD
ATOM    486  HZ3 LYS A   7       4.075   8.258 -20.844  0.00  0.00    +0.000 HD
ENDBRANCH 482 483
ENDBRANCH 481 482
ENDBRANCH 480 481
ENDBRANCH 479 480
ENDBRANCH 415 479
ENDBRANCH 411 415
ENDBRANCH 410 413
BRANCH 410 487
ATOM    487  CB  THR A   8       3.144   3.010 -19.852  0.00  0.00    +0.000 C 
ATOM    488  CG2 THR A   8       3.789   1.828 -20.561  0.00  0.00    +0.000 C 
BRANCH 487 489
ATOM    489  OG1 THR A   8       2.429   2.549 -18.700  0.00  0.00    +0.000 OA
ATOM    490  HG1 THR A   8       1.699   3.146 -18.517  0.00  0.00    +0.000 HD
ENDBRANCH 487 489
ENDBRANCH 410 487
ENDBRANCH 406 410
ENDBRANCH 405 408
BRANCH 405 491
ATOM    491  CB  LEU A   9       8.327   4.606 -21.557  0.00  0.00    +0.000 C 
BRANCH 491 492
ATOM    492  CG  LEU A   9       8.840   5.844 -22.292  0.00  0.00    +0.000 C 
ATOM    493  CD1 LEU A   9       8.837   5.613 -23.795  0.00  0.00    +0.000 C 
ATOM    494  CD2 LEU A   9       8.000   7.062 -21.935  0.00  0.00    +0.000 C 
ENDBRANCH 491 492
ENDBRANCH 405 491
ENDBRANCH 401 405
ENDBRANCH 399 403
ENDBRANCH 395 399
ENDBRANCH 394 397
BRANCH 394 495
ATOM    495  CB  THR A  11       5.348  -0.291 -29.212  0.00  0.00    +0.000 C 
ATOM    496  CG2 THR A  11       6.372   0.221 -30.213  0.00  0.00    +0.000 C 
BRANCH 495 497
ATOM    497  OG1 THR A  11       5.887  -1.411 -28.500  0.00  0.00    +0.000 OA
ATOM    498  HG1 THR A  11       5.812  -2.201 -29.041  0.00  0.00    +0.000 HD
ENDBRANCH 495 497
ENDBRANCH 394 495
ENDBRANCH 387 394
ENDBRANCH 383 390
ENDBRANCH 381 385
ENDBRANCH 377 381
ENDBRANCH 376 379
BRANCH 376 499
ATOM    499  CB  VAL A  14       4.179  -3.073 -25.395  0.00  0.00    +0.000 C 
ATOM    500  CG1 VAL A  14       4.544  -3.660 -24.040  0.00  0.00    +0.000 C 
ATOM    501  CG2 VAL A  14       5.228  -3.426 -26.439  0.00  0.00    +0.000 C 
ENDBRANCH 376 499
ENDBRANCH 372 376
ENDBRANCH 371 374
BRANCH 371 502
ATOM    502  CB  ARG A  15      -0.279  -0.195 -24.186  0.00  0.00    +0.000 C 
BRANCH 502 503
ATOM    503  CG  ARG A  15      -1.082   0.435 -23.059  0.00  0.00    +0.000 C 
BRANCH 503 504
ATOM    504  CD  ARG A  15      -2.044   1.489 -23.583  0.00  0.00    +0.000 C 
BRANCH 504 505
ATOM    505  NE  ARG A  15      -2.782   2.142 -22.505  0.00  0.00    +0.000 N 
ATOM    506  CZ  ARG A  15      -3.395   3.312 -22.637  0.00  0.00    +0.000 C 
ATOM    507  NH1 ARG A  15      -3.360   3.955 -23.796  0.00  0.00    +0.000 N 
ATOM    508  NH2 ARG A  15      -4.046   3.842 -21.609  0.00  0.00    +0.000 N 
ATOM    509  HE  ARG A  15      -2.820   1.684 -21.640  0.00  0.00    +0.000 HD
ATOM    510 HH11 ARG A  15      -2.871   3.558 -24.573  0.00  0.00    +0.000 HD
ATOM    511 HH12 ARG A  15      -3.824   4.836 -23.894  0.00  0.00    +0.000 HD
ATOM    512 HH21 ARG A  15      -4.075   3.360 -20.734  0.00  0.00    +0.000 HD
ATOM    513 HH22 ARG A  15      -4.508   4.723 -21.710  0.00  0.00    +0.000 HD
ENDBRANCH 504 505
ENDBRANCH 503 504
ENDBRANCH 502 503
ENDBRANCH 371 502
ENDBRANCH 367 371
ENDBRANCH 366 369
BRANCH 366 514
ATOM    514  CB  ARG A  16      -3.426  -3.390 -26.687  0.00  0.00    +0.000 C 
BRANCH 514 515
ATOM    515  CG  ARG A  16      -2.389  -3.759 -27.736  0.00  0.00    +0.000 C 
BRANCH 515 516
ATOM    516  CD  ARG A  16      -2.533  -5.207 -28.177  0.00  0.00    +0.000 C 
BRANCH 516 517
ATOM    517  NE  ARG A  16      -3.427  -5.343 -29.324  0.00  0.00    +0.000 N 
ATOM    518  CZ  ARG A  16      -3.085  -5.014 -30.565  0.00  0.00    +0.000 C 
ATOM    519  NH1 ARG A  16      -1.876  -4.532 -30.817  0.00  0.00    +0.000 N 
ATOM    520  NH2 ARG A  16      -3.953  -5.167 -31.556  0.00  0.00    +0.000 N 
ATOM    521  HE  ARG A  16      -4.325  -5.697 -29.160  0.00  0.00    +0.000 HD
ATOM    522 HH11 ARG A  16      -1.219  -4.417 -30.072  0.00  0.00    +0.000 HD
ATOM    523 HH12 ARG A  16      -1.620  -4.287 -31.753  0.00  0.00    +0.000 HD
ATOM    524 HH21 ARG A  16      -4.866  -5.529 -31.370  0.00  0.00    +0.000 HD
ATOM    525 HH22 ARG A  16      -3.695  -4.919 -32.489  0.00  0.00    +0.000 HD
ENDBRANCH 516 517
ENDBRANCH 515 516
ENDBRANCH 514 515
ENDBRANCH 366 514
ENDBRANCH 362 366
ENDBRANCH 361 364
BRANCH 361 526
ATOM    526  CB  LEU A  17       0.526  -6.904 -25.252  0.00  0.00    +0.000 C 
BRANCH 526 527
ATOM    527  CG  LEU A  17       1.002  -8.343 -25.456  0.00  0.00    +0.000 C 
ATOM    528  CD1 LEU A  17       0.343  -8.954 -26.682  0.00  0.00    +0.000 C 
ATOM    529  CD2 LEU A  17       2.518  -8.390 -25.583  0.00  0.00    +0.000 C 
ENDBRANCH 526 527
ENDBRANCH 361 526
ENDBRANCH 357 361
ENDBRANCH 355 359
ENDBRANCH 351 355
ENDBRANCH 350 353
BRANCH 350 530
ATOM    530  CB  MET A  19      -5.279  -4.890 -22.153  0.00  0.00    +0.000 C 
BRANCH 530 531
ATOM    531  CG  MET A  19      -6.609  -4.422 -21.585  0.00  0.00    +0.000 C 
BRANCH 531 532
ATOM    532  SD  MET A  19      -7.981  -5.492 -22.058  0.00  0.00    +0.000 S 
ATOM    533  CE  MET A  19      -8.600  -4.631 -23.501  0.00  0.00    +0.000 C 
ENDBRANCH 531 532
ENDBRANCH 530 531
ENDBRANCH 350 530
ENDBRANCH 346 350
ENDBRANCH 345 348
BRANCH 345 534
ATOM    534  CB  GLU A  20      -4.286  -9.858 -24.156  0.00  0.00    +0.000 C 
BRANCH 534 535
ATOM    535  CG  GLU A  20      -4.171  -8.834 -25.273  0.00  0.00    +0.000 C 
BRANCH 535 536
ATOM    536  CD  GLU A  20      -3.704  -9.446 -26.579  0.00  0.00    +0.000 C 
ATOM    537  OE1 GLU A  20      -3.193 -10.586 -26.551  0.00  0.00    +0.000 OA
ATOM    538  OE2 GLU A  20      -3.847  -8.786 -27.630  0.00  0.00    +0.000 OA
ENDBRANCH 535 536
ENDBRANCH 534 535
ENDBRANCH 345 534
ENDBRANCH 341 345
ENDBRANCH 340 343
BRANCH 340 539
ATOM    539  CB  ASN A  21      -2.243 -11.226 -19.619  0.00  0.00    +0.000 C 
BRANCH 539 540
ATOM    540  CG  ASN A  21      -1.357 -10.080 -20.066  0.00  0.00    +0.000 C 
ATOM    541  OD1 ASN A  21      -0.887  -9.287 -19.249  0.00  0.00    +0.000 OA
ATOM    542  ND2 ASN A  21      -1.123  -9.987 -21.370  0.00  0.00    +0.000 N 
ATOM    543 HD21 ASN A  21      -1.530 -10.653 -21.962  0.00  0.00    +0.000 HD
ATOM    544 HD22 ASN A  21      -0.552  -9.256 -21.687  0.00  0.00    +0.000 HD
ENDBRANCH 539 540
ENDBRANCH 340 539
ENDBRANCH 336 340
ENDBRANCH 335 338
BRANCH 335 545
ATOM    545  CB  ASN A  22      -6.430  -9.336 -16.582  0.00  0.00    +0.000 C 
BRANCH 545 546
ATOM    546  CG  ASN A  22      -7.814  -9.485 -17.183  0.00  0.00    +0.000 C 
ATOM    547  OD1 ASN A  22      -8.822  -9.344 -16.489  0.00  0.00    +0.000 OA
ATOM    548  ND2 ASN A  22      -7.870  -9.772 -18.478  0.00  0.00    +0.000 N 
ATOM    549 HD21 ASN A  22      -7.026  -9.871 -18.967  0.00  0.00    +0.000 HD
ATOM    550 HD22 ASN A  22      -8.752  -9.873 -18.892  0.00  0.00    +0.000 HD
ENDBRANCH 545 546
ENDBRANCH 335 545
ENDBRANCH 331 335
ENDBRANCH 330 333
BRANCH 330 551
ATOM    551  CB  ILE A  23      -1.092  -7.401 -16.656  0.00  0.00    +0.000 C 
ATOM    552  CG2 ILE A  23       0.096  -6.736 -15.977  0.00  0.00    +0.000 C 
BRANCH 551 553
ATOM    553  CG1 ILE A  23      -1.312  -8.808 -16.098  0.00  0.00    +0.000 C 
ATOM    554  CD1 ILE A  23      -0.221  -9.785 -16.473  0.00  0.00    +0.000 C 
ENDBRANCH 551 553
ENDBRANCH 330 551
ENDBRANCH 326 330
ENDBRANCH 325 328
BRANCH 325 555
ATOM    555  CB  LYS A  24      -1.604  -1.974 -15.057  0.00  0.00    +0.000 C 
BRANCH 555 556
ATOM    556  CG  LYS A  24      -2.783  -2.266 -14.145  0.00  0.00    +0.000 C 
BRANCH 556 557
ATOM    557  CD  LYS A  24      -2.850  -1.283 -12.988  0.00  0.00    +0.000 C 
BRANCH 557 558
ATOM    558  CE  LYS A  24      -3.703  -0.073 -13.334  0.00  0.00    +0.000 C 
BRANCH 558 559
ATOM    559  NZ  LYS A  24      -2.943   0.935 -14.124  0.00  0.00    +0.000 N 
ATOM    560  HZ1 LYS A  24      -3.184   0.853 -15.133  0.00  0.00    +0.000 HD
ATOM    561  HZ2 LYS A  24      -1.921   0.781 -14.011  0.00  0.00    +0.000 HD
ATOM    562  HZ3 LYS A  24      -3.177   1.894 -13.799  0.00  0.00    +0.000 HD
ENDBRANCH 558 559
ENDBRANCH 557 558
ENDBRANCH 556 557
ENDBRANCH 555 556
ENDBRANCH 325 555
ENDBRANCH 321 325
ENDBRANCH 320 323
BRANCH 320 563
ATOM    563  CB  LEU A  25       1.313  -0.283 -19.034  0.00  0.00    +0.000 C 
BRANCH 563 564
ATOM    564  CG  LEU A  25       0.921  -0.976 -20.339  0.00  0.00    +0.000 C 
ATOM    565  CD1 LEU A  25       1.984  -1.984 -20.748  0.00  0.00    +0.000 C 
ATOM    566  CD2 LEU A  25      -0.434  -1.655 -20.196  0.00  0.00    +0.000 C 
ENDBRANCH 563 564
ENDBRANCH 320 563
ENDBRANCH 316 320
ENDBRANCH 315 318
BRANCH 315 567
ATOM    567  CB  SER A  26       2.015   1.970 -14.205  0.00  0.00    +0.000 C 
BRANCH 567 568
ATOM    568  OG  SER A  26       2.885   2.826 -13.485  0.00  0.00    +0.000 OA
ATOM    569  HG  SER A  26       2.598   2.878 -12.570  0.00  0.00    +0.000 HD
ENDBRANCH 567 568
ENDBRANCH 315 567
ENDBRANCH 311 315
ENDBRANCH 310 313
BRANCH 310 570
ATOM    570  CB  GLU A  27       1.559  -3.047 -12.241  0.00  0.00    +0.000 C 
BRANCH 570 571
ATOM    571  CG  GLU A  27       1.692  -3.809 -10.933  0.00  0.00    +0.000 C 
BRANCH 571 572
ATOM    572  CD  GLU A  27       0.619  -4.866 -10.761  0.00  0.00    +0.000 C 
ATOM    573  OE1 GLU A  27      -0.494  -4.673 -11.293  0.00  0.00    +0.000 OA
ATOM    574  OE2 GLU A  27       0.892  -5.886 -10.095  0.00  0.00    +0.000 OA
ENDBRANCH 571 572
ENDBRANCH 570 571
ENDBRANCH 310 570
ENDBRANCH 306 310
ENDBRANCH 305 308
BRANCH 305 575
ATOM    575  CB  VAL A  28       4.823  -4.151 -16.612  0.00  0.00    +0.000 C 
ATOM    576  CG1 VAL A  28       5.720  -5.214 -17.229  0.00  0.00    +0.000 C 
ATOM    577  CG2 VAL A  28       3.368  -4.384 -16.990  0.00  0.00    +0.000 C 
ENDBRANCH 305 575
ENDBRANCH 301 305
ENDBRANCH 300 303
BRANCH 300 578
ATOM    578  CB  VAL A  29       9.547  -5.584 -14.180  0.00  0.00    +0.000 C 
ATOM    579  CG1 VAL A  29       9.437  -6.510 -15.382  0.00  0.00    +0.000 C 
ATOM    580  CG2 VAL A  29      11.001  -5.240 -13.894  0.00  0.00    +0.000 C 
ENDBRANCH 300 578
ENDBRANCH 296 300
ENDBRANCH 295 298
ENDBRANCH 291 295
ENDBRANCH   1 293
BRANCH   1 581
ATOM    581  CB  SER A  31      13.425   2.241 -16.380  0.00  0.00    +0.000 C 
BRANCH 581 582
ATOM    582  OG  SER A  31      14.077   3.170 -15.532  0.00  0.00    +0.000 OA
ATOM    583  HG  SER A  31      13.757   4.056 -15.721  0.00  0.00    +0.000 HD
ENDBRANCH 581 582
ENDBRANCH   1 581
TORSDOF 245
