REMARK  Name = /Users/acegid/Desktop/Smoking_Research/Docking/Docking_All_PDB/All_PDB/2CKA_H.pdb
REMARK  434 active torsions:
REMARK  status: ('A' for Active; 'I' for Inactive)
REMARK    1  A    between atoms: N_1  and  CA_5
REMARK    2  A    between atoms: CA_5  and  CB_7
REMARK    3  A    between atoms: CA_5  and  C_18
REMARK    4  A    between atoms: CB_7  and  CG_10
REMARK    5  A    between atoms: CG_10  and  SD_13
REMARK    6  A    between atoms: SD_13  and  CE_14
REMARK    7  A    between atoms: N_20  and  CA_22
REMARK    8  A    between atoms: CA_22  and  C_25
REMARK    9  A    between atoms: N_27  and  CA_29
REMARK   10  A    between atoms: CA_29  and  CB_31
REMARK   11  A    between atoms: CA_29  and  C_36
REMARK   12  A    between atoms: CB_31  and  OG_34
REMARK   13  A    between atoms: N_38  and  CA_40
REMARK   14  A    between atoms: CA_40  and  CB_42
REMARK   15  A    between atoms: CA_40  and  C_47
REMARK   16  A    between atoms: CB_42  and  OG_45
REMARK   17  A    between atoms: N_49  and  CA_51
REMARK   18  A    between atoms: CA_51  and  CB_53
REMARK   19  A    between atoms: CA_51  and  C_64
REMARK   20  A    between atoms: CB_53  and  CG_56
REMARK   21  A    between atoms: N_66  and  CA_68
REMARK   22  A    between atoms: CA_68  and  CB_70
REMARK   23  A    between atoms: CA_68  and  C_81
REMARK   24  A    between atoms: CB_70  and  CG_73
REMARK   25  A    between atoms: N_83  and  CA_85
REMARK   26  A    between atoms: CA_85  and  CB_87
REMARK   27  A    between atoms: CA_85  and  C_98
REMARK   28  A    between atoms: CB_87  and  CG_90
REMARK   29  A    between atoms: N_100  and  CA_102
REMARK   30  A    between atoms: CA_102  and  CB_104
REMARK   31  A    between atoms: CA_102  and  C_115
REMARK   32  A    between atoms: CB_104  and  CG_107
REMARK   33  A    between atoms: N_117  and  CA_119
REMARK   34  A    between atoms: CA_119  and  CB_121
REMARK   35  A    between atoms: CA_119  and  C_132
REMARK   36  A    between atoms: CB_121  and  CG_124
REMARK   37  A    between atoms: N_134  and  CA_136
REMARK   38  A    between atoms: CA_136  and  CB_138
REMARK   39  A    between atoms: CA_136  and  C_149
REMARK   40  A    between atoms: CB_138  and  CG_141
REMARK   41  A    between atoms: N_151  and  CA_153
REMARK   42  A    between atoms: CA_153  and  CB_155
REMARK   43  A    between atoms: CA_153  and  C_160
REMARK   44  A    between atoms: CB_155  and  OG_158
REMARK   45  A    between atoms: N_162  and  CA_164
REMARK   46  A    between atoms: CA_164  and  CB_166
REMARK   47  A    between atoms: CA_164  and  C_171
REMARK   48  A    between atoms: CB_166  and  OG_169
REMARK   49  A    between atoms: N_173  and  CA_175
REMARK   50  A    between atoms: CA_175  and  CB_177
REMARK   51  A    between atoms: CA_175  and  C_188
REMARK   52  A    between atoms: CB_177  and  CG_180
REMARK   53  A    between atoms: N_190  and  CA_192
REMARK   54  A    between atoms: CA_192  and  CB_194
REMARK   55  A    between atoms: CA_192  and  C_205
REMARK   56  A    between atoms: CB_194  and  CG_197
REMARK   57  A    between atoms: CG_197  and  SD_200
REMARK   58  A    between atoms: SD_200  and  CE_201
REMARK   59  A    between atoms: N_207  and  CA_209
REMARK   60  A    between atoms: CA_209  and  CB_211
REMARK   61  A    between atoms: CA_209  and  C_224
REMARK   62  A    between atoms: CB_211  and  CG_214
REMARK   63  A    between atoms: CG_214  and  CD1_216
REMARK   64  A    between atoms: CG_214  and  CD2_220
REMARK   65  A    between atoms: N_226  and  CA_228
REMARK   66  A    between atoms: CA_228  and  CB_230
REMARK   67  A    between atoms: CA_228  and  C_240
REMARK   68  A    between atoms: CB_230  and  CG1_232
REMARK   69  A    between atoms: CB_230  and  CG2_236
REMARK   70  A    between atoms: CA_252  and  C_254
REMARK   71  A    between atoms: N_256  and  CA_258
REMARK   72  A    between atoms: CA_258  and  CB_260
REMARK   73  A    between atoms: CA_258  and  C_278
REMARK   74  A    between atoms: CB_260  and  CG_263
REMARK   75  A    between atoms: CG_263  and  CD_266
REMARK   76  A    between atoms: CD_266  and  NE_269
REMARK   77  A    between atoms: N_280  and  CA_282
REMARK   78  A    between atoms: CA_282  and  C_285
REMARK   79  A    between atoms: N_287  and  CA_289
REMARK   80  A    between atoms: CA_289  and  CB_291
REMARK   81  A    between atoms: CA_289  and  C_296
REMARK   82  A    between atoms: CB_291  and  OG_294
REMARK   83  A    between atoms: N_298  and  CA_300
REMARK   84  A    between atoms: CA_300  and  CB_302
REMARK   85  A    between atoms: CA_300  and  C_315
REMARK   86  A    between atoms: CB_302  and  CG_305
REMARK   87  A    between atoms: CG_305  and  CD1_307
REMARK   88  A    between atoms: CG_305  and  CD2_311
REMARK   89  A    between atoms: N_317  and  CA_319
REMARK   90  A    between atoms: CA_319  and  CB_321
REMARK   91  A    between atoms: CA_319  and  C_337
REMARK   92  A    between atoms: CB_321  and  CG_324
REMARK   93  A    between atoms: CG_324  and  CD_327
REMARK   94  A    between atoms: CD_327  and  CE_330
REMARK   95  A    between atoms: CE_330  and  NZ_333
REMARK   96  A    between atoms: N_339  and  CA_341
REMARK   97  A    between atoms: CA_341  and  CB_343
REMARK   98  A    between atoms: CA_341  and  C_359
REMARK   99  A    between atoms: CB_343  and  CG_346
REMARK  100  A    between atoms: CG_346  and  CD_349
REMARK  101  A    between atoms: CD_349  and  CE_352
REMARK  102  A    between atoms: CE_352  and  NZ_355
REMARK  103  A    between atoms: N_361  and  CA_363
REMARK  104  A    between atoms: CA_363  and  CB_365
REMARK  105  A    between atoms: CA_363  and  C_378
REMARK  106  A    between atoms: CB_365  and  CG_368
REMARK  107  A    between atoms: CG_368  and  CD1_370
REMARK  108  A    between atoms: CG_368  and  CD2_374
REMARK  109  A    between atoms: N_380  and  CA_382
REMARK  110  A    between atoms: CA_382  and  CB_384
REMARK  111  A    between atoms: CA_382  and  C_394
REMARK  112  A    between atoms: CB_384  and  CG1_386
REMARK  113  A    between atoms: CB_384  and  CG2_390
REMARK  114  A    between atoms: N_396  and  CA_398
REMARK  115  A    between atoms: CA_398  and  CB_400
REMARK  116  A    between atoms: CA_398  and  C_409
REMARK  117  A    between atoms: CB_400  and  CG_403
REMARK  118  A    between atoms: CG_403  and  CD_406
REMARK  119  A    between atoms: N_411  and  CA_413
REMARK  120  A    between atoms: CA_413  and  CB_415
REMARK  121  A    between atoms: CA_413  and  C_428
REMARK  122  A    between atoms: CB_415  and  CG_418
REMARK  123  A    between atoms: CG_418  and  CD1_420
REMARK  124  A    between atoms: CG_418  and  CD2_424
REMARK  125  A    between atoms: N_430  and  CA_432
REMARK  126  A    between atoms: CA_432  and  CB_434
REMARK  127  A    between atoms: CA_432  and  C_443
REMARK  128  A    between atoms: CB_434  and  CG_437
REMARK  129  A    between atoms: CG_437  and  CD_440
REMARK  130  A    between atoms: N_445  and  CA_447
REMARK  131  A    between atoms: CA_447  and  CB_449
REMARK  132  A    between atoms: CA_447  and  C_459
REMARK  133  A    between atoms: CB_449  and  CG1_451
REMARK  134  A    between atoms: CB_449  and  CG2_455
REMARK  135  A    between atoms: N_461  and  CA_463
REMARK  136  A    between atoms: CA_463  and  CB_465
REMARK  137  A    between atoms: CA_463  and  C_474
REMARK  138  A    between atoms: CB_465  and  CG_468
REMARK  139  A    between atoms: CG_468  and  CD_471
REMARK  140  A    between atoms: N_476  and  CA_478
REMARK  141  A    between atoms: CA_478  and  CB_480
REMARK  142  A    between atoms: CA_478  and  C_485
REMARK  143  A    between atoms: CB_480  and  SG_483
REMARK  144  A    between atoms: N_487  and  CA_489
REMARK  145  A    between atoms: CA_489  and  CB_491
REMARK  146  A    between atoms: CA_489  and  C_502
REMARK  147  A    between atoms: CB_491  and  CG_494
REMARK  148  A    between atoms: CG_494  and  SD_497
REMARK  149  A    between atoms: SD_497  and  CE_498
REMARK  150  A    between atoms: N_504  and  CA_506
REMARK  151  A    between atoms: CA_506  and  CB_508
REMARK  152  A    between atoms: CA_506  and  C_517
REMARK  153  A    between atoms: CB_508  and  CG_511
REMARK  154  A    between atoms: CG_511  and  CD_514
REMARK  155  A    between atoms: N_519  and  CA_521
REMARK  156  A    between atoms: CA_521  and  CB_523
REMARK  157  A    between atoms: CA_521  and  C_532
REMARK  158  A    between atoms: CB_523  and  CG_526
REMARK  159  A    between atoms: CG_526  and  CD_529
REMARK  160  A    between atoms: CA_544  and  C_546
REMARK  161  A    between atoms: N_548  and  CA_550
REMARK  162  A    between atoms: CA_550  and  CB_552
REMARK  163  A    between atoms: CA_550  and  C_560
REMARK  164  A    between atoms: CB_552  and  CG_555
REMARK  165  A    between atoms: N_562  and  CA_564
REMARK  166  A    between atoms: CB_566  and  CG_569
REMARK  167  A    between atoms: CA_580  and  C_581
REMARK  168  A    between atoms: CA_580  and  CB_583
REMARK  169  A    between atoms: CB_583  and  CG_584
REMARK  170  A    between atoms: CG_584  and  CD1_585
REMARK  171  A    between atoms: CG_584  and  CD2_586
REMARK  172  A    between atoms: N_598  and  CA_599
REMARK  173  A    between atoms: CA_599  and  C_600
REMARK  174  A    between atoms: CA_599  and  CB_602
REMARK  175  A    between atoms: CB_602  and  CG_603
REMARK  176  A    between atoms: N_610  and  CA_611
REMARK  177  A    between atoms: CA_611  and  C_612
REMARK  178  A    between atoms: CA_611  and  CB_614
REMARK  179  A    between atoms: CB_614  and  CG1_615
REMARK  180  A    between atoms: CB_614  and  CG2_616
REMARK  181  A    between atoms: N_626  and  CA_627
REMARK  182  A    between atoms: CA_627  and  C_628
REMARK  183  A    between atoms: CA_627  and  CB_630
REMARK  184  A    between atoms: CB_630  and  CG_631
REMARK  185  A    between atoms: N_638  and  CA_639
REMARK  186  A    between atoms: CA_639  and  C_640
REMARK  187  A    between atoms: CA_639  and  CB_642
REMARK  188  A    between atoms: CB_642  and  CG_643
REMARK  189  A    between atoms: CG_643  and  CD1_644
REMARK  190  A    between atoms: CG_643  and  CD2_645
REMARK  191  A    between atoms: N_657  and  CA_658
REMARK  192  A    between atoms: CA_658  and  C_659
REMARK  193  A    between atoms: CA_658  and  CB_661
REMARK  194  A    between atoms: CB_661  and  CG_662
REMARK  195  A    between atoms: CG_662  and  CD_663
REMARK  196  A    between atoms: N_672  and  CA_673
REMARK  197  A    between atoms: CA_673  and  C_674
REMARK  198  A    between atoms: CA_673  and  CB_676
REMARK  199  A    between atoms: CB_676  and  OG1_677
REMARK  200  A    between atoms: CB_676  and  CG2_678
REMARK  201  A    between atoms: N_686  and  CA_687
REMARK  202  A    between atoms: CA_687  and  C_688
REMARK  203  A    between atoms: CA_687  and  CB_690
REMARK  204  A    between atoms: CB_690  and  CG_691
REMARK  205  A    between atoms: CG_691  and  CD_692
REMARK  206  A    between atoms: CD_692  and  NE_693
REMARK  207  A    between atoms: N_710  and  CA_711
REMARK  208  A    between atoms: CA_711  and  C_712
REMARK  209  A    between atoms: CA_711  and  CB_714
REMARK  210  A    between atoms: CB_714  and  CG1_715
REMARK  211  A    between atoms: CB_714  and  CG2_716
REMARK  212  A    between atoms: CG1_715  and  CD1_717
REMARK  213  A    between atoms: CA_730  and  C_731
REMARK  214  A    between atoms: N_743  and  CA_744
REMARK  215  A    between atoms: CA_744  and  C_745
REMARK  216  A    between atoms: CA_744  and  CB_747
REMARK  217  A    between atoms: CB_747  and  CG1_748
REMARK  218  A    between atoms: CB_747  and  CG2_749
REMARK  219  A    between atoms: N_759  and  CA_760
REMARK  220  A    between atoms: CA_760  and  C_761
REMARK  221  A    between atoms: CA_760  and  CB_763
REMARK  222  A    between atoms: CB_763  and  CG1_764
REMARK  223  A    between atoms: CB_763  and  CG2_765
REMARK  224  A    between atoms: CG1_764  and  CD1_766
REMARK  225  A    between atoms: N_778  and  CA_779
REMARK  226  A    between atoms: CA_779  and  C_780
REMARK  227  A    between atoms: CA_779  and  CB_782
REMARK  228  A    between atoms: CB_782  and  CG_783
REMARK  229  A    between atoms: N_792  and  CA_793
REMARK  230  A    between atoms: CA_793  and  C_794
REMARK  231  A    between atoms: CA_793  and  CB_796
REMARK  232  A    between atoms: CB_796  and  CG_797
REMARK  233  A    between atoms: CG_797  and  CD_798
REMARK  234  A    between atoms: CD_798  and  CE_799
REMARK  235  A    between atoms: CE_799  and  NZ_800
REMARK  236  A    between atoms: N_814  and  CA_815
REMARK  237  A    between atoms: CA_815  and  C_816
REMARK  238  A    between atoms: CA_815  and  CB_818
REMARK  239  A    between atoms: CB_818  and  CG1_819
REMARK  240  A    between atoms: CB_818  and  CG2_820
REMARK  241  A    between atoms: N_830  and  CA_831
REMARK  242  A    between atoms: CA_831  and  C_832
REMARK  243  A    between atoms: CA_831  and  CB_834
REMARK  244  A    between atoms: CB_834  and  CG_835
REMARK  245  A    between atoms: N_842  and  CA_843
REMARK  246  A    between atoms: CA_843  and  C_844
REMARK  247  A    between atoms: N_849  and  CA_850
REMARK  248  A    between atoms: CA_850  and  C_851
REMARK  249  A    between atoms: CA_850  and  CB_853
REMARK  250  A    between atoms: CB_853  and  OG1_854
REMARK  251  A    between atoms: CB_853  and  CG2_855
REMARK  252  A    between atoms: N_863  and  CA_864
REMARK  253  A    between atoms: CA_864  and  C_865
REMARK  254  A    between atoms: CA_864  and  CB_867
REMARK  255  A    between atoms: CB_867  and  CG_868
REMARK  256  A    between atoms: CG_868  and  CD1_869
REMARK  257  A    between atoms: CG_868  and  CD2_870
REMARK  258  A    between atoms: N_882  and  CA_883
REMARK  259  A    between atoms: CA_883  and  C_884
REMARK  260  A    between atoms: CA_883  and  CB_886
REMARK  261  A    between atoms: CB_886  and  CG_887
REMARK  262  A    between atoms: CG_887  and  CD1_888
REMARK  263  A    between atoms: CG_887  and  CD2_889
REMARK  264  A    between atoms: N_901  and  CA_902
REMARK  265  A    between atoms: CA_902  and  C_903
REMARK  266  A    between atoms: CA_902  and  CB_905
REMARK  267  A    between atoms: CB_905  and  CG1_906
REMARK  268  A    between atoms: CB_905  and  CG2_907
REMARK  269  A    between atoms: N_917  and  CA_918
REMARK  270  A    between atoms: CA_918  and  C_919
REMARK  271  A    between atoms: N_924  and  CA_925
REMARK  272  A    between atoms: CA_925  and  C_926
REMARK  273  A    between atoms: CA_925  and  CB_928
REMARK  274  A    between atoms: CB_928  and  CG_929
REMARK  275  A    between atoms: CG_929  and  CD_930
REMARK  276  A    between atoms: N_939  and  CA_940
REMARK  277  A    between atoms: CA_940  and  C_941
REMARK  278  A    between atoms: CA_940  and  CB_943
REMARK  279  A    between atoms: CB_943  and  CG_944
REMARK  280  A    between atoms: N_951  and  CA_952
REMARK  281  A    between atoms: CA_952  and  C_953
REMARK  282  A    between atoms: CA_952  and  CB_955
REMARK  283  A    between atoms: CA_962  and  C_963
REMARK  284  A    between atoms: N_975  and  CA_976
REMARK  285  A    between atoms: CA_976  and  C_977
REMARK  286  A    between atoms: CA_976  and  CB_979
REMARK  287  A    between atoms: CB_979  and  CG_980
REMARK  288  A    between atoms: CG_980  and  CD_981
REMARK  289  A    between atoms: CD_981  and  NE_982
REMARK  290  A    between atoms: N_999  and  CA_1000
REMARK  291  A    between atoms: CA_1000  and  C_1001
REMARK  292  A    between atoms: CA_1000  and  CB_1003
REMARK  293  A    between atoms: CB_1003  and  CG_1004
REMARK  294  A    between atoms: CG_1004  and  CD_1005
REMARK  295  A    between atoms: CD_1005  and  NE_1006
REMARK  296  A    between atoms: N_1023  and  CA_1024
REMARK  297  A    between atoms: CA_1024  and  C_1025
REMARK  298  A    between atoms: CA_1024  and  CB_1027
REMARK  299  A    between atoms: N_1033  and  CA_1034
REMARK  300  A    between atoms: CA_1034  and  C_1035
REMARK  301  A    between atoms: CA_1034  and  CB_1037
REMARK  302  A    between atoms: CB_1037  and  CG_1038
REMARK  303  A    between atoms: CG_1038  and  CD_1039
REMARK  304  A    between atoms: N_1048  and  CA_1049
REMARK  305  A    between atoms: CA_1049  and  C_1050
REMARK  306  A    between atoms: CA_1049  and  CB_1052
REMARK  307  A    between atoms: CB_1052  and  CG_1053
REMARK  308  A    between atoms: CG_1053  and  CD1_1054
REMARK  309  A    between atoms: CG_1053  and  CD2_1055
REMARK  310  A    between atoms: N_1067  and  CA_1068
REMARK  311  A    between atoms: CA_1068  and  C_1069
REMARK  312  A    between atoms: CA_1068  and  CB_1071
REMARK  313  A    between atoms: CB_1071  and  CG_1072
REMARK  314  A    between atoms: CG_1072  and  CD_1073
REMARK  315  A    between atoms: N_1082  and  CA_1083
REMARK  316  A    between atoms: CA_1083  and  C_1084
REMARK  317  A    between atoms: CA_1083  and  CB_1086
REMARK  318  A    between atoms: CB_1086  and  CG_1087
REMARK  319  A    between atoms: CG_1087  and  SD_1088
REMARK  320  A    between atoms: SD_1088  and  CE_1089
REMARK  321  A    between atoms: N_1099  and  CA_1100
REMARK  322  A    between atoms: CA_1100  and  C_1101
REMARK  323  A    between atoms: CA_1100  and  CB_1103
REMARK  324  A    between atoms: CB_1103  and  CG_1104
REMARK  325  A    between atoms: N_1123  and  CA_1124
REMARK  326  A    between atoms: CA_1124  and  C_1125
REMARK  327  A    between atoms: CA_1124  and  CB_1127
REMARK  328  A    between atoms: CB_1127  and  CG_1128
REMARK  329  A    between atoms: CG_1128  and  CD1_1129
REMARK  330  A    between atoms: CG_1128  and  CD2_1130
REMARK  331  A    between atoms: N_1142  and  CA_1143
REMARK  332  A    between atoms: CA_1143  and  C_1144
REMARK  333  A    between atoms: CA_1143  and  CB_1146
REMARK  334  A    between atoms: CB_1146  and  CG_1147
REMARK  335  A    between atoms: CG_1147  and  CD_1148
REMARK  336  A    between atoms: N_1159  and  CA_1160
REMARK  337  A    between atoms: CA_1160  and  C_1161
REMARK  338  A    between atoms: N_1166  and  CA_1167
REMARK  339  A    between atoms: CA_1167  and  C_1168
REMARK  340  A    between atoms: CA_1167  and  CB_1170
REMARK  341  A    between atoms: CB_1170  and  CG_1171
REMARK  342  A    between atoms: CA_1184  and  C_1185
REMARK  343  A    between atoms: N_1197  and  CA_1198
REMARK  344  A    between atoms: CA_1198  and  C_1199
REMARK  345  A    between atoms: CA_1198  and  CB_1201
REMARK  346  A    between atoms: CB_1201  and  CG_1202
REMARK  347  A    between atoms: CG_1202  and  CD_1203
REMARK  348  A    between atoms: N_1212  and  CA_1213
REMARK  349  A    between atoms: CA_1213  and  C_1214
REMARK  350  A    between atoms: CA_1213  and  CB_1216
REMARK  351  A    between atoms: CB_1216  and  CG_1217
REMARK  352  A    between atoms: N_1232  and  CA_1233
REMARK  353  A    between atoms: CA_1233  and  C_1234
REMARK  354  A    between atoms: CA_1233  and  CB_1236
REMARK  355  A    between atoms: N_1242  and  CA_1243
REMARK  356  A    between atoms: CA_1243  and  C_1244
REMARK  357  A    between atoms: CA_1243  and  CB_1246
REMARK  358  A    between atoms: CB_1246  and  CG1_1247
REMARK  359  A    between atoms: CB_1246  and  CG2_1248
REMARK  360  A    between atoms: N_1258  and  CA_1259
REMARK  361  A    between atoms: CA_1259  and  C_1260
REMARK  362  A    between atoms: CA_1259  and  CB_1262
REMARK  363  A    between atoms: CB_1262  and  CG_1263
REMARK  364  A    between atoms: CA_1271  and  C_1272
REMARK  365  A    between atoms: N_1284  and  CA_1285
REMARK  366  A    between atoms: CA_1285  and  C_1286
REMARK  367  A    between atoms: CA_1285  and  CB_1288
REMARK  368  A    between atoms: CB_1288  and  CG_1289
REMARK  369  A    between atoms: CG_1289  and  CD_1290
REMARK  370  A    between atoms: CD_1290  and  NE_1291
REMARK  371  A    between atoms: N_1308  and  CA_1309
REMARK  372  A    between atoms: CA_1309  and  C_1310
REMARK  373  A    between atoms: CA_1309  and  CB_1312
REMARK  374  A    between atoms: CB_1312  and  CG_1313
REMARK  375  A    between atoms: N_1328  and  CA_1329
REMARK  376  A    between atoms: CA_1329  and  C_1330
REMARK  377  A    between atoms: CA_1329  and  CB_1332
REMARK  378  A    between atoms: CB_1332  and  CG_1333
REMARK  379  A    between atoms: CG_1333  and  CD1_1334
REMARK  380  A    between atoms: CG_1333  and  CD2_1335
REMARK  381  A    between atoms: N_1347  and  CA_1348
REMARK  382  A    between atoms: CA_1348  and  C_1349
REMARK  383  A    between atoms: CA_1348  and  CB_1351
REMARK  384  A    between atoms: N_1357  and  CA_1358
REMARK  385  A    between atoms: CA_1358  and  C_1359
REMARK  386  A    between atoms: CA_1358  and  CB_1361
REMARK  387  A    between atoms: CB_1361  and  CG_1362
REMARK  388  A    between atoms: CZ_1367  and  OH_1368
REMARK  389  A    between atoms: N_1378  and  CA_1379
REMARK  390  A    between atoms: CA_1379  and  C_1380
REMARK  391  A    between atoms: CA_1379  and  CB_1382
REMARK  392  A    between atoms: CB_1382  and  CG_1383
REMARK  393  A    between atoms: CG_1383  and  SD_1384
REMARK  394  A    between atoms: SD_1384  and  CE_1385
REMARK  395  A    between atoms: N_1395  and  CA_1396
REMARK  396  A    between atoms: CA_1396  and  C_1397
REMARK  397  A    between atoms: CA_1396  and  CB_1399
REMARK  398  A    between atoms: CB_1399  and  CG_1400
REMARK  399  A    between atoms: CG_1400  and  CD_1401
REMARK  400  A    between atoms: N_1410  and  CA_1411
REMARK  401  A    between atoms: CA_1411  and  C_1412
REMARK  402  A    between atoms: CA_1411  and  CB_1414
REMARK  403  A    between atoms: CB_1414  and  CG_1415
REMARK  404  A    between atoms: N_1422  and  CA_1423
REMARK  405  A    between atoms: CA_1423  and  C_1424
REMARK  406  A    between atoms: CA_1423  and  CB_1426
REMARK  407  A    between atoms: CB_1426  and  CG_1427
REMARK  408  A    between atoms: CG_1427  and  CD_1428
REMARK  409  A    between atoms: CD_1428  and  NE_1429
REMARK  410  A    between atoms: N_1446  and  CA_1447
REMARK  411  A    between atoms: CA_1447  and  C_1448
REMARK  412  A    between atoms: CA_1447  and  CB_1450
REMARK  413  A    between atoms: CB_1450  and  CG_1451
REMARK  414  A    between atoms: CG_1451  and  CD_1452
REMARK  415  A    between atoms: CD_1452  and  NE_1453
REMARK  416  A    between atoms: N_1470  and  CA_1471
REMARK  417  A    between atoms: CA_1471  and  C_1472
REMARK  418  A    between atoms: CA_1471  and  CB_1474
REMARK  419  A    between atoms: CB_1474  and  CG_1475
REMARK  420  A    between atoms: CG_1475  and  CD_1476
REMARK  421  A    between atoms: CD_1476  and  CE_1477
REMARK  422  A    between atoms: CE_1477  and  NZ_1478
REMARK  423  A    between atoms: N_1492  and  CA_1493
REMARK  424  A    between atoms: CA_1493  and  C_1494
REMARK  425  A    between atoms: CA_1493  and  CB_1496
REMARK  426  A    between atoms: CB_1496  and  CG_1497
REMARK  427  A    between atoms: CG_1497  and  CD_1498
REMARK  428  A    between atoms: N_1509  and  CA_1510
REMARK  429  A    between atoms: CA_1510  and  C_1511
REMARK  430  A    between atoms: CA_1510  and  CB_1513
REMARK  431  A    between atoms: CB_1513  and  CG_1514
REMARK  432  A    between atoms: CG_1514  and  CD_1515
REMARK  433  A    between atoms: CD_1515  and  CE_1516
REMARK  434  A    between atoms: CE_1516  and  NZ_1517
REMARK                            x       y       z     vdW  Elec       q    Type
REMARK                         _______ _______ _______ _____ _____    ______ ____
ROOT
ATOM      1  CA  ARG A  18      22.379-110.789  12.062  0.00  0.00    +0.000 C 
ENDROOT
BRANCH   1   2
ATOM      2  C   ARG A  18      22.435-109.040  12.359  0.00  0.00    +0.000 C 
ATOM      3  O   ARG A  18      22.907-108.835  13.476  0.00  0.00    +0.000 OA
ATOM      4  N   GLY A  19      22.168-107.631  11.707  0.00  0.00    +0.000 N 
ATOM      5  H   GLY A  19      23.168-107.621  11.067  0.00  0.00    +0.000 HD
BRANCH   4   6
ATOM      6  CA  GLY A  19      21.626-106.047  11.450  0.00  0.00    +0.000 C 
BRANCH   6   7
ATOM      7  C   GLY A  19      21.605-104.324  11.795  0.00  0.00    +0.000 C 
ATOM      8  O   GLY A  19      21.741-104.220  13.015  0.00  0.00    +0.000 OA
ATOM      9  N   SER A  20      21.256-102.907  11.215  0.00  0.00    +0.000 N 
ATOM     10  H   SER A  20      21.814-102.943  10.166  0.00  0.00    +0.000 HD
BRANCH   9  11
ATOM     11  CA  SER A  20      21.010-101.278  11.556  0.00  0.00    +0.000 C 
BRANCH  11  12
ATOM     12  C   SER A  20      20.681 -99.539  11.483  0.00  0.00    +0.000 C 
ATOM     13  O   SER A  20      21.230 -99.200  12.533  0.00  0.00    +0.000 OA
ATOM     14  N   LEU A  21      20.305 -98.164  10.817  0.00  0.00    +0.000 N 
ATOM     15  H   LEU A  21      20.631 -98.335   9.687  0.00  0.00    +0.000 HD
BRANCH  14  16
ATOM     16  CA  LEU A  21      20.217 -96.490  11.078  0.00  0.00    +0.000 C 
BRANCH  16  17
ATOM     17  C   LEU A  21      19.934 -94.741  10.988  0.00  0.00    +0.000 C 
ATOM     18  O   LEU A  21      20.593 -94.347  11.940  0.00  0.00    +0.000 OA
ATOM     19  N   LYS A  22      19.389 -93.407  10.370  0.00  0.00    +0.000 N 
ATOM     20  H   LYS A  22      19.656 -93.754   9.262  0.00  0.00    +0.000 HD
BRANCH  19  21
ATOM     21  CA  LYS A  22      19.252 -91.742  10.017  0.00  0.00    +0.000 C 
BRANCH  21  22
ATOM     22  C   LYS A  22      19.202 -90.003  10.357  0.00  0.00    +0.000 C 
ATOM     23  O   LYS A  22      20.213 -89.766  11.016  0.00  0.00    +0.000 OA
ATOM     24  N   LYS A  23      18.555 -88.633   9.912  0.00  0.00    +0.000 N 
ATOM     25  H   LYS A  23      18.738 -88.904   8.766  0.00  0.00    +0.000 HD
BRANCH  24  26
ATOM     26  CA  LYS A  23      18.304 -86.973   9.642  0.00  0.00    +0.000 C 
BRANCH  26  27
ATOM     27  C   LYS A  23      17.988 -85.256   9.957  0.00  0.00    +0.000 C 
ATOM     28  O   LYS A  23      18.519 -85.103  11.059  0.00  0.00    +0.000 OA
ATOM     29  N   LEU A  24      17.790 -83.792   9.362  0.00  0.00    +0.000 N 
ATOM     30  H   LEU A  24      18.301 -83.830   8.290  0.00  0.00    +0.000 HD
BRANCH  29  31
ATOM     31  CA  LEU A  24      17.640 -82.137   9.739  0.00  0.00    +0.000 C 
BRANCH  31  32
ATOM     32  C   LEU A  24      17.312 -80.381   9.611  0.00  0.00    +0.000 C 
ATOM     33  O   LEU A  24      17.897 -79.964  10.624  0.00  0.00    +0.000 OA
ATOM     34  N   VAL A  25      16.814 -79.084   8.847  0.00  0.00    +0.000 N 
ATOM     35  H   VAL A  25      17.469 -79.291   7.876  0.00  0.00    +0.000 HD
BRANCH  34  36
ATOM     36  CA  VAL A  25      16.241 -77.478   8.765  0.00  0.00    +0.000 C 
BRANCH  36  37
ATOM     37  C   VAL A  25      16.066 -75.713   8.761  0.00  0.00    +0.000 C 
ATOM     38  O   VAL A  25      16.263 -75.732  10.003  0.00  0.00    +0.000 OA
ATOM     39  N   GLU A  26      16.114 -74.132   8.790  0.00  0.00    +0.000 N 
ATOM     40  H   GLU A  26      17.280 -73.918   8.696  0.00  0.00    +0.000 HD
BRANCH  39  41
ATOM     41  CA  GLU A  26      15.420 -72.668   8.298  0.00  0.00    +0.000 C 
BRANCH  41  42
ATOM     42  C   GLU A  26      15.679 -70.923   8.212  0.00  0.00    +0.000 C 
ATOM     43  O   GLU A  26      16.761 -70.811   8.828  0.00  0.00    +0.000 OA
ATOM     44  N   LEU A  27      15.240 -69.443   7.791  0.00  0.00    +0.000 N 
ATOM     45  H   LEU A  27      15.616 -69.470   6.664  0.00  0.00    +0.000 HD
BRANCH  44  46
ATOM     46  CA  LEU A  27      14.970 -67.775   8.072  0.00  0.00    +0.000 C 
BRANCH  46  47
ATOM     47  C   LEU A  27      14.565 -66.035   7.918  0.00  0.00    +0.000 C 
ATOM     48  O   LEU A  27      15.146 -65.606   8.932  0.00  0.00    +0.000 OA
ATOM     49  N   GLU A  28      14.065 -64.749   7.178  0.00  0.00    +0.000 N 
ATOM     50  H   GLU A  28      14.490 -65.079   6.118  0.00  0.00    +0.000 HD
BRANCH  49  51
ATOM     51  CA  GLU A  28      13.498 -63.153   7.085  0.00  0.00    +0.000 C 
BRANCH  51  52
ATOM     52  C   GLU A  28      13.573 -61.396   7.322  0.00  0.00    +0.000 C 
ATOM     53  O   GLU A  28      14.490 -61.163   8.080  0.00  0.00    +0.000 OA
ATOM     54  N   VAL A  29      12.973 -60.060   6.743  0.00  0.00    +0.000 N 
ATOM     55  H   VAL A  29      13.563 -60.178   5.716  0.00  0.00    +0.000 HD
BRANCH  54  56
ATOM     56  CA  VAL A  29      12.393 -58.451   6.697  0.00  0.00    +0.000 C 
BRANCH  56  57
ATOM     57  C   VAL A  29      12.235 -56.672   6.676  0.00  0.00    +0.000 C 
ATOM     58  O   VAL A  29      12.681 -56.714   7.838  0.00  0.00    +0.000 OA
ATOM     59  N   GLU A  30      12.303 -55.078   6.662  0.00  0.00    +0.000 N 
ATOM     60  H   GLU A  30      13.464 -54.869   6.516  0.00  0.00    +0.000 HD
BRANCH  59  61
ATOM     61  CA  GLU A  30      11.688 -53.560   6.183  0.00  0.00    +0.000 C 
BRANCH  61  62
ATOM     62  C   GLU A  30      11.990 -51.813   6.061  0.00  0.00    +0.000 C 
ATOM     63  O   GLU A  30      13.098 -51.726   6.618  0.00  0.00    +0.000 OA
ATOM     64  N   CYS A  31      11.565 -50.315   5.675  0.00  0.00    +0.000 N 
ATOM     65  H   CYS A  31      11.902 -50.308   4.536  0.00  0.00    +0.000 HD
BRANCH  64  66
ATOM     66  CA  CYS A  31      11.253 -48.644   5.983  0.00  0.00    +0.000 C 
BRANCH  66  67
ATOM     67  C   CYS A  31      10.844 -46.875   5.878  0.00  0.00    +0.000 C 
ATOM     68  O   CYS A  31      11.287 -46.532   6.987  0.00  0.00    +0.000 OA
ATOM     69  N   MET A  32      10.387 -45.482   5.194  0.00  0.00    +0.000 N 
ATOM     70  H   MET A  32      10.797 -45.648   4.091  0.00  0.00    +0.000 HD
BRANCH  69  71
ATOM     71  CA  MET A  32      10.246 -43.765   5.354  0.00  0.00    +0.000 C 
BRANCH  71  72
ATOM     72  C   MET A  32       9.955 -41.972   5.233  0.00  0.00    +0.000 C 
ATOM     73  O   MET A  32      10.739 -41.615   6.133  0.00  0.00    +0.000 OA
ATOM     74  N   GLU A  33       9.427 -40.587   4.573  0.00  0.00    +0.000 N 
ATOM     75  H   GLU A  33       9.770 -40.923   3.486  0.00  0.00    +0.000 HD
BRANCH  74  76
ATOM     76  CA  GLU A  33       8.866 -38.929   4.419  0.00  0.00    +0.000 C 
BRANCH  76  77
ATOM     77  C   GLU A  33       8.946 -37.110   4.613  0.00  0.00    +0.000 C 
ATOM     78  O   GLU A  33       9.796 -36.919   5.495  0.00  0.00    +0.000 OA
ATOM     79  N   GLU A  34       8.443 -35.661   4.029  0.00  0.00    +0.000 N 
ATOM     80  H   GLU A  34       8.702 -35.980   2.914  0.00  0.00    +0.000 HD
BRANCH  79  81
ATOM     81  CA  GLU A  34       7.914 -33.990   3.857  0.00  0.00    +0.000 C 
BRANCH  81  82
ATOM     82  C   GLU A  34       8.043 -32.162   4.008  0.00  0.00    +0.000 C 
ATOM     83  O   GLU A  34       8.667 -31.997   5.047  0.00  0.00    +0.000 OA
ATOM     84  N   PRO A  35       7.636 -30.665   3.418  0.00  0.00    +0.000 N 
ATOM     85  CD  PRO A  35       6.585 -30.779   2.442  0.00  0.00    +0.000 C 
ATOM     86  CG  PRO A  35       5.492 -30.343   3.406  0.00  0.00    +0.000 C 
ATOM     87  CB  PRO A  35       6.168 -29.127   4.068  0.00  0.00    +0.000 C 
ATOM     88  CA  PRO A  35       7.623 -28.889   3.563  0.00  0.00    +0.000 C 
BRANCH  88  89
ATOM     89  C   PRO A  35       7.420 -27.037   3.363  0.00  0.00    +0.000 C 
ATOM     90  O   PRO A  35       7.944 -26.728   4.438  0.00  0.00    +0.000 OA
ATOM     91  N   ASN A  36       6.981 -25.542   2.726  0.00  0.00    +0.000 N 
ATOM     92  H   ASN A  36       7.207 -25.772   1.584  0.00  0.00    +0.000 HD
BRANCH  91  93
ATOM     93  CA  ASN A  36       6.937 -23.739   2.807  0.00  0.00    +0.000 C 
BRANCH  93  94
ATOM     94  C   ASN A  36       6.701 -21.875   2.590  0.00  0.00    +0.000 C 
ATOM     95  O   ASN A  36       7.220 -21.537   3.650  0.00  0.00    +0.000 OA
ATOM     96  N   HIS A  37       6.214 -20.378   1.978  0.00  0.00    +0.000 N 
ATOM     97  H   HIS A  37       6.492 -20.632   0.851  0.00  0.00    +0.000 HD
ATOM     98  CA  HIS A  37       6.161 -18.571   2.062  0.00  0.00    +0.000 C 
ENDBRANCH  93  94
BRANCH  93  99
ATOM     99  CB  ASN A  36       5.464 -23.857   3.288  0.00  0.00    +0.000 C 
BRANCH  99 100
ATOM    100  CG  ASN A  36       4.859 -25.212   3.690  0.00  0.00    +0.000 C 
ATOM    101  OD1 ASN A  36       4.634 -25.329   4.909  0.00  0.00    +0.000 OA
ATOM    102  ND2 ASN A  36       3.930 -25.679   2.828  0.00  0.00    +0.000 N 
ATOM    103 HD21 ASN A  36       4.060 -26.413   1.901  0.00  0.00    +0.000 HD
ATOM    104 HD22 ASN A  36       2.767 -25.537   3.044  0.00  0.00    +0.000 HD
ENDBRANCH  99 100
ENDBRANCH  93  99
ENDBRANCH  91  93
ENDBRANCH  88  89
ENDBRANCH  81  82
BRANCH  81 105
ATOM    105  CB  GLU A  34       6.431 -34.382   3.938  0.00  0.00    +0.000 C 
BRANCH 105 106
ATOM    106  CG  GLU A  34       5.908 -34.710   5.333  0.00  0.00    +0.000 C 
BRANCH 106 107
ATOM    107  CD  GLU A  34       5.452 -36.131   5.666  0.00  0.00    +0.000 C 
ATOM    108  OE1 GLU A  34       5.621 -36.462   6.877  0.00  0.00    +0.000 OA
ATOM    109  OE2 GLU A  34       4.743 -36.775   4.838  0.00  0.00    +0.000 OA
ENDBRANCH 106 107
ENDBRANCH 105 106
ENDBRANCH  81 105
ENDBRANCH  79  81
ENDBRANCH  76  77
BRANCH  76 110
ATOM    110  CB  GLU A  33       7.381 -39.343   4.530  0.00  0.00    +0.000 C 
BRANCH 110 111
ATOM    111  CG  GLU A  33       6.950 -39.729   5.945  0.00  0.00    +0.000 C 
BRANCH 111 112
ATOM    112  CD  GLU A  33       6.336 -41.107   6.284  0.00  0.00    +0.000 C 
ATOM    113  OE1 GLU A  33       6.536 -41.482   7.464  0.00  0.00    +0.000 OA
ATOM    114  OE2 GLU A  33       5.856 -41.835   5.380  0.00  0.00    +0.000 OA
ENDBRANCH 111 112
ENDBRANCH 110 111
ENDBRANCH  76 110
ENDBRANCH  74  76
ENDBRANCH  71  72
BRANCH  71 115
ATOM    115  CB  MET A  32       8.771 -43.979   5.726  0.00  0.00    +0.000 C 
BRANCH 115 116
ATOM    116  CG  MET A  32       8.107 -45.339   5.476  0.00  0.00    +0.000 C 
BRANCH 116 117
ATOM    117  SD  MET A  32       7.028 -45.926   6.817  0.00  0.00    +0.000 S 
ATOM    118  CE  MET A  32       5.424 -46.002   5.971  0.00  0.00    +0.000 C 
ENDBRANCH 116 117
ENDBRANCH 115 116
ENDBRANCH  71 115
ENDBRANCH  69  71
ENDBRANCH  66  67
BRANCH  66 119
ATOM    119  CB  CYS A  31       9.758 -48.997   5.933  0.00  0.00    +0.000 C 
BRANCH 119 120
ATOM    120  SG  CYS A  31       9.193 -50.276   7.085  0.00  0.00    +0.000 S 
ATOM    121  HG  CYS A  31       8.604 -50.322   8.110  0.00  0.00    +0.000 HD
ENDBRANCH 119 120
ENDBRANCH  66 119
ENDBRANCH  64  66
ENDBRANCH  61  62
BRANCH  61 122
ATOM    122  CB  GLU A  30      10.776 -53.501   7.411  0.00  0.00    +0.000 C 
BRANCH 122 123
ATOM    123  CG  GLU A  30       9.397 -54.070   7.018  0.00  0.00    +0.000 C 
BRANCH 123 124
ATOM    124  CD  GLU A  30       9.014 -55.310   7.831  0.00  0.00    +0.000 C 
ATOM    125  OE1 GLU A  30       9.073 -55.161   9.072  0.00  0.00    +0.000 OA
ATOM    126  OE2 GLU A  30       8.330 -56.156   7.216  0.00  0.00    +0.000 OA
ENDBRANCH 123 124
ENDBRANCH 122 123
ENDBRANCH  61 122
ENDBRANCH  59  61
ENDBRANCH  56  57
BRANCH  56 127
ATOM    127  CB  VAL A  29      10.875 -58.747   6.810  0.00  0.00    +0.000 C 
ATOM    128  CG1 VAL A  29      10.407 -58.655   8.273  0.00  0.00    +0.000 C 
ATOM    129  CG2 VAL A  29      10.442 -60.098   6.200  0.00  0.00    +0.000 C 
ENDBRANCH  56 127
ENDBRANCH  54  56
ENDBRANCH  51  52
BRANCH  51 130
ATOM    130  CB  GLU A  28      12.012 -63.535   7.156  0.00  0.00    +0.000 C 
BRANCH 130 131
ATOM    131  CG  GLU A  28      11.526 -63.563   8.600  0.00  0.00    +0.000 C 
BRANCH 131 132
ATOM    132  CD  GLU A  28      10.769 -64.811   9.027  0.00  0.00    +0.000 C 
ATOM    133  OE1 GLU A  28      11.016 -65.201  10.195  0.00  0.00    +0.000 OA
ATOM    134  OE2 GLU A  28      10.202 -65.487   8.134  0.00  0.00    +0.000 OA
ENDBRANCH 131 132
ENDBRANCH 130 131
ENDBRANCH  51 130
ENDBRANCH  49  51
ENDBRANCH  46  47
BRANCH  46 135
ATOM    135  CB  LEU A  27      13.445 -67.954   8.157  0.00  0.00    +0.000 C 
BRANCH 135 136
ATOM    136  CG  LEU A  27      12.666 -69.246   8.397  0.00  0.00    +0.000 C 
ATOM    137  CD1 LEU A  27      11.158 -69.011   8.377  0.00  0.00    +0.000 C 
ATOM    138  CD2 LEU A  27      13.101 -70.027   9.630  0.00  0.00    +0.000 C 
ENDBRANCH 135 136
ENDBRANCH  46 135
ENDBRANCH  44  46
ENDBRANCH  41  42
BRANCH  41 139
ATOM    139  CB  GLU A  26      14.467 -72.564   9.484  0.00  0.00    +0.000 C 
BRANCH 139 140
ATOM    140  CG  GLU A  26      13.074 -73.092   9.145  0.00  0.00    +0.000 C 
BRANCH 140 141
ATOM    141  CD  GLU A  26      12.669 -74.335   9.928  0.00  0.00    +0.000 C 
ATOM    142  OE1 GLU A  26      12.747 -74.227  11.172  0.00  0.00    +0.000 OA
ATOM    143  OE2 GLU A  26      11.977 -75.207   9.340  0.00  0.00    +0.000 OA
ENDBRANCH 140 141
ENDBRANCH 139 140
ENDBRANCH  41 139
ENDBRANCH  39  41
ENDBRANCH  36  37
BRANCH  36 144
ATOM    144  CB  VAL A  25      14.727 -77.731   8.665  0.00  0.00    +0.000 C 
ATOM    145  CG1 VAL A  25      14.065 -77.562  10.032  0.00  0.00    +0.000 C 
ATOM    146  CG2 VAL A  25      14.351 -79.032   7.959  0.00  0.00    +0.000 C 
ENDBRANCH  36 144
ENDBRANCH  34  36
ENDBRANCH  31  32
BRANCH  31 147
ATOM    147  CB  LEU A  24      16.113 -82.195   9.719  0.00  0.00    +0.000 C 
BRANCH 147 148
ATOM    148  CG  LEU A  24      15.302 -83.471   9.913  0.00  0.00    +0.000 C 
ATOM    149  CD1 LEU A  24      13.820 -83.137   9.851  0.00  0.00    +0.000 C 
ATOM    150  CD2 LEU A  24      15.699 -84.310  11.123  0.00  0.00    +0.000 C 
ENDBRANCH 147 148
ENDBRANCH  31 147
ENDBRANCH  29  31
ENDBRANCH  26  27
BRANCH  26 151
ATOM    151  CB  LYS A  23      17.626 -87.256  10.988  0.00  0.00    +0.000 C 
BRANCH 151 152
ATOM    152  CG  LYS A  23      16.381 -88.097  10.693  0.00  0.00    +0.000 C 
BRANCH 152 153
ATOM    153  CD  LYS A  23      15.563 -88.506  11.921  0.00  0.00    +0.000 C 
BRANCH 153 154
ATOM    154  CE  LYS A  23      14.356 -89.277  11.402  0.00  0.00    +0.000 C 
BRANCH 154 155
ATOM    155  NZ  LYS A  23      13.552 -89.830  12.504  0.00  0.00    +0.000 N 
ATOM    156  HZ1 LYS A  23      12.605 -89.138  12.770  0.00  0.00    +0.000 HD
ATOM    157  HZ2 LYS A  23      12.950 -90.823  12.205  0.00  0.00    +0.000 HD
ATOM    158  HZ3 LYS A  23      13.960 -90.048  13.610  0.00  0.00    +0.000 HD
ENDBRANCH 154 155
ENDBRANCH 153 154
ENDBRANCH 152 153
ENDBRANCH 151 152
ENDBRANCH  26 151
ENDBRANCH  24  26
ENDBRANCH  21  22
BRANCH  21 159
ATOM    159  CB  LYS A  22      17.962 -91.686  10.864  0.00  0.00    +0.000 C 
BRANCH 159 160
ATOM    160  CG  LYS A  22      17.303 -93.055  11.084  0.00  0.00    +0.000 C 
BRANCH 160 161
ATOM    161  CD  LYS A  22      16.032 -92.974  11.936  0.00  0.00    +0.000 C 
BRANCH 161 162
ATOM    162  CE  LYS A  22      15.410 -94.361  12.078  0.00  0.00    +0.000 C 
BRANCH 162 163
ATOM    163  NZ  LYS A  22      14.299 -94.429  13.037  0.00  0.00    +0.000 N 
ATOM    164  HZ1 LYS A  22      13.515 -95.310  12.804  0.00  0.00    +0.000 HD
ATOM    165  HZ2 LYS A  22      14.454 -94.633  14.211  0.00  0.00    +0.000 HD
ATOM    166  HZ3 LYS A  22      13.516 -93.532  13.164  0.00  0.00    +0.000 HD
ENDBRANCH 162 163
ENDBRANCH 161 162
ENDBRANCH 160 161
ENDBRANCH 159 160
ENDBRANCH  21 159
ENDBRANCH  19  21
ENDBRANCH  16  17
BRANCH  16 167
ATOM    167  CB  LEU A  21      18.696 -96.507  11.341  0.00  0.00    +0.000 C 
BRANCH 167 168
ATOM    168  CG  LEU A  21      17.873 -97.767  11.612  0.00  0.00    +0.000 C 
ATOM    169  CD1 LEU A  21      16.414 -97.383  11.835  0.00  0.00    +0.000 C 
ATOM    170  CD2 LEU A  21      18.396 -98.680  12.719  0.00  0.00    +0.000 C 
ENDBRANCH 167 168
ENDBRANCH  16 167
ENDBRANCH  14  16
ENDBRANCH  11  12
BRANCH  11 171
ATOM    171  CB  SER A  20      19.520-101.642  11.451  0.00  0.00    +0.000 C 
BRANCH 171 172
ATOM    172  OG  SER A  20      18.910-102.141  12.617  0.00  0.00    +0.000 OA
ATOM    173  HG  SER A  20      19.690-102.184  13.506  0.00  0.00    +0.000 HD
ENDBRANCH 171 172
ENDBRANCH  11 171
ENDBRANCH   9  11
ENDBRANCH   6   7
ENDBRANCH   4   6
ENDBRANCH   1   2
BRANCH   1 176
ATOM    174  C   PRO A  17      23.487-113.689  13.009  0.00  0.00    +0.000 C 
ATOM    175  O   PRO A  17      24.410-113.291  13.738  0.00  0.00    +0.000 OA
ATOM    176  N   ARG A  18      23.012-112.361  12.300  0.00  0.00    +0.000 N 
ATOM    177  H   ARG A  18      23.429-112.711  11.243  0.00  0.00    +0.000 HD
BRANCH 174 184
ATOM    178  C   VAL A  16      24.187-118.471  13.649  0.00  0.00    +0.000 C 
ATOM    179  O   VAL A  16      25.075-118.273  14.492  0.00  0.00    +0.000 OA
ATOM    180  N   PRO A  17      23.711-117.113  13.011  0.00  0.00    +0.000 N 
ATOM    181  CD  PRO A  17      22.652-117.229  12.055  0.00  0.00    +0.000 C 
ATOM    182  CG  PRO A  17      21.572-116.791  13.024  0.00  0.00    +0.000 C 
ATOM    183  CB  PRO A  17      22.237-115.585  13.711  0.00  0.00    +0.000 C 
ATOM    184  CA  PRO A  17      23.703-115.443  13.207  0.00  0.00    +0.000 C 
BRANCH 178 185
ATOM    185  CA  VAL A  16      23.977-120.205  13.522  0.00  0.00    +0.000 C 
BRANCH 185 188
ATOM    186  C   LEU A  15      25.082-123.081  14.435  0.00  0.00    +0.000 C 
ATOM    187  O   LEU A  15      25.576-122.636  15.456  0.00  0.00    +0.000 OA
ATOM    188  N   VAL A  16      24.537-121.801  13.711  0.00  0.00    +0.000 N 
ATOM    189  H   VAL A  16      25.028-122.141  12.683  0.00  0.00    +0.000 HD
BRANCH 186 190
ATOM    190  CA  LEU A  15      25.474-124.808  14.565  0.00  0.00    +0.000 C 
BRANCH 190 193
ATOM    191  C   MET A  14      26.215-127.803  14.973  0.00  0.00    +0.000 C 
ATOM    192  O   MET A  14      26.970-127.391  15.853  0.00  0.00    +0.000 OA
ATOM    193  N   LEU A  15      25.710-126.463  14.302  0.00  0.00    +0.000 N 
ATOM    194  H   LEU A  15      26.117-126.568  13.189  0.00  0.00    +0.000 HD
BRANCH 191 195
ATOM    195  CA  MET A  14      26.498-129.547  15.149  0.00  0.00    +0.000 C 
BRANCH 195 198
ATOM    196  C   HIS A  13      27.103-132.554  15.576  0.00  0.00    +0.000 C 
ATOM    197  O   HIS A  13      27.878-132.153  16.444  0.00  0.00    +0.000 OA
ATOM    198  N   MET A  14      26.574-131.222  14.922  0.00  0.00    +0.000 N 
ATOM    199  H   MET A  14      26.930-131.375  13.797  0.00  0.00    +0.000 HD
BRANCH 196 200
ATOM    200  CA  HIS A  13      27.420-134.291  15.722  0.00  0.00    +0.000 C 
BRANCH 200 203
ATOM    201  C   SER A  12      28.083-137.245  16.234  0.00  0.00    +0.000 C 
ATOM    202  O   SER A  12      28.635-136.825  17.251  0.00  0.00    +0.000 OA
ATOM    203  N   HIS A  13      27.558-135.952  15.523  0.00  0.00    +0.000 N 
ATOM    204  H   HIS A  13      27.811-136.169  14.382  0.00  0.00    +0.000 HD
BRANCH 201 205
ATOM    205  CA  SER A  12      28.376-138.970  16.421  0.00  0.00    +0.000 C 
BRANCH 205 208
ATOM    206  C   SER A  11      28.957-141.950  16.877  0.00  0.00    +0.000 C 
ATOM    207  O   SER A  11      29.132-141.576  18.032  0.00  0.00    +0.000 OA
ATOM    208  N   SER A  12      28.457-140.634  16.198  0.00  0.00    +0.000 N 
ATOM    209  H   SER A  12      28.685-140.831  15.048  0.00  0.00    +0.000 HD
BRANCH 206 210
ATOM    210  CA  SER A  11      29.276-143.687  16.999  0.00  0.00    +0.000 C 
BRANCH 210 213
ATOM    211  C   HIS A  10      29.931-146.692  17.413  0.00  0.00    +0.000 C 
ATOM    212  O   HIS A  10      30.403-146.304  18.475  0.00  0.00    +0.000 OA
ATOM    213  N   SER A  11      29.430-145.353  16.741  0.00  0.00    +0.000 N 
ATOM    214  H   SER A  11      29.615-145.517  15.580  0.00  0.00    +0.000 HD
BRANCH 211 215
ATOM    215  CA  HIS A  10      30.277-148.431  17.556  0.00  0.00    +0.000 C 
BRANCH 215 218
ATOM    216  C   HIS A   9      30.998-151.442  18.035  0.00  0.00    +0.000 C 
ATOM    217  O   HIS A   9      31.596-151.047  19.037  0.00  0.00    +0.000 OA
ATOM    218  N   HIS A  10      30.476-150.108  17.345  0.00  0.00    +0.000 N 
ATOM    219  H   HIS A  10      30.812-150.274  16.217  0.00  0.00    +0.000 HD
BRANCH 216 220
ATOM    220  CA  HIS A   9      31.352-153.184  18.204  0.00  0.00    +0.000 C 
BRANCH 220 223
ATOM    221  C   HIS A   8      32.060-156.186  18.659  0.00  0.00    +0.000 C 
ATOM    222  O   HIS A   8      32.667-155.776  19.656  0.00  0.00    +0.000 OA
ATOM    223  N   HIS A   9      31.534-154.857  17.978  0.00  0.00    +0.000 N 
ATOM    224  H   HIS A   9      31.860-155.022  16.847  0.00  0.00    +0.000 HD
BRANCH 221 225
ATOM    225  CA  HIS A   8      32.374-157.930  18.806  0.00  0.00    +0.000 C 
BRANCH 225 228
ATOM    226  C   HIS A   7      32.992-160.928  19.231  0.00  0.00    +0.000 C 
ATOM    227  O   HIS A   7      33.635-160.551  20.214  0.00  0.00    +0.000 OA
ATOM    228  N   HIS A   8      32.496-159.594  18.563  0.00  0.00    +0.000 N 
ATOM    229  H   HIS A   8      32.852-159.741  17.439  0.00  0.00    +0.000 HD
BRANCH 226 230
ATOM    230  CA  HIS A   7      33.264-162.670  19.355  0.00  0.00    +0.000 C 
BRANCH 230 233
ATOM    231  C   HIS A   6      33.799-165.647  19.741  0.00  0.00    +0.000 C 
ATOM    232  O   HIS A   6      34.517-165.299  20.673  0.00  0.00    +0.000 OA
ATOM    233  N   HIS A   7      33.340-164.316  19.081  0.00  0.00    +0.000 N 
ATOM    234  H   HIS A   7      33.732-164.435  17.965  0.00  0.00    +0.000 HD
BRANCH 231 235
ATOM    235  CA  HIS A   6      34.025-167.378  19.852  0.00  0.00    +0.000 C 
BRANCH 235 238
ATOM    236  C   HIS A   5      34.488-170.300  20.245  0.00  0.00    +0.000 C 
ATOM    237  O   HIS A   5      35.270-169.970  21.137  0.00  0.00    +0.000 OA
ATOM    238  N   HIS A   6      34.055-169.002  19.554  0.00  0.00    +0.000 N 
ATOM    239  H   HIS A   6      34.396-169.161  18.425  0.00  0.00    +0.000 HD
BRANCH 236 240
ATOM    240  CA  HIS A   5      34.716-172.005  20.327  0.00  0.00    +0.000 C 
BRANCH 240 243
ATOM    241  C   SER A   4      35.139-174.869  20.498  0.00  0.00    +0.000 C 
ATOM    242  O   SER A   4      36.058-174.813  21.320  0.00  0.00    +0.000 OA
ATOM    243  N   HIS A   5      34.743-173.555  19.908  0.00  0.00    +0.000 N 
ATOM    244  H   HIS A   5      35.098-173.531  18.773  0.00  0.00    +0.000 HD
BRANCH 241 245
ATOM    245  CA  SER A   4      34.823-176.458  20.104  0.00  0.00    +0.000 C 
BRANCH 245 248
ATOM    246  C   SER A   3      35.780-178.981  21.146  0.00  0.00    +0.000 C 
ATOM    247  O   SER A   3      36.182-178.546  22.224  0.00  0.00    +0.000 OA
ATOM    248  N   SER A   4      35.382-177.928  20.249  0.00  0.00    +0.000 N 
ATOM    249  H   SER A   4      35.891-178.322  19.248  0.00  0.00    +0.000 HD
BRANCH 246 250
ATOM    250  CA  SER A   3      36.038-180.601  21.233  0.00  0.00    +0.000 C 
BRANCH 250 253
ATOM    251  C   GLY A   2      36.469-183.278  20.979  0.00  0.00    +0.000 C 
ATOM    252  O   GLY A   2      37.246-183.363  21.937  0.00  0.00    +0.000 OA
ATOM    253  N   SER A   3      36.091-181.970  20.540  0.00  0.00    +0.000 N 
ATOM    254  H   SER A   3      36.439-181.831  19.411  0.00  0.00    +0.000 HD
BRANCH 251 255
ATOM    255  CA  GLY A   2      35.821-184.681  20.598  0.00  0.00    +0.000 C 
BRANCH 255 258
ATOM    256  C   MET A   1      36.817-187.075  21.535  0.00  0.00    +0.000 C 
ATOM    257  O   MET A   1      37.682-186.748  22.357  0.00  0.00    +0.000 OA
ATOM    258  N   GLY A   2      36.370-186.098  20.656  0.00  0.00    +0.000 N 
ATOM    259  H   GLY A   2      36.938-186.244  19.621  0.00  0.00    +0.000 HD
BRANCH 256 260
ATOM    260  CA  MET A   1      36.759-188.645  21.370  0.00  0.00    +0.000 C 
BRANCH 260 261
ATOM    261  N   MET A   1      38.052-189.318  21.122  0.00  0.00    +0.000 N 
ATOM    262  H   MET A   1      38.682-189.220  22.140  0.00  0.00    +0.000 HD
ATOM    263  H2  MET A   1      38.711-188.643  20.375  0.00  0.00    +0.000 HD
ATOM    264  H3  MET A   1      38.440-190.362  20.679  0.00  0.00    +0.000 HD
ENDBRANCH 260 261
BRANCH 260 265
ATOM    265  CB  MET A   1      35.623-189.707  21.458  0.00  0.00    +0.000 C 
BRANCH 265 266
ATOM    266  CG  MET A   1      36.305-190.992  22.014  0.00  0.00    +0.000 C 
BRANCH 266 267
ATOM    267  SD  MET A   1      35.750-192.714  22.343  0.00  0.00    +0.000 S 
ATOM    268  CE  MET A   1      33.952-192.895  22.265  0.00  0.00    +0.000 C 
ENDBRANCH 266 267
ENDBRANCH 265 266
ENDBRANCH 260 265
ENDBRANCH 256 260
ENDBRANCH 255 258
ENDBRANCH 251 255
ENDBRANCH 250 253
BRANCH 250 269
ATOM    269  CB  SER A   3      34.543-180.911  21.396  0.00  0.00    +0.000 C 
BRANCH 269 270
ATOM    270  OG  SER A   3      34.156-182.273  21.435  0.00  0.00    +0.000 OA
ATOM    271  HG  SER A   3      33.619-182.516  22.465  0.00  0.00    +0.000 HD
ENDBRANCH 269 270
ENDBRANCH 250 269
ENDBRANCH 246 250
ENDBRANCH 245 248
BRANCH 245 272
ATOM    272  CB  SER A   4      33.332-176.792  20.066  0.00  0.00    +0.000 C 
BRANCH 272 273
ATOM    273  OG  SER A   4      33.038-178.011  20.713  0.00  0.00    +0.000 OA
ATOM    274  HG  SER A   4      32.198-177.837  21.536  0.00  0.00    +0.000 HD
ENDBRANCH 272 273
ENDBRANCH 245 272
ENDBRANCH 241 245
ENDBRANCH 240 243
BRANCH 240 275
ATOM    275  CB  HIS A   5      33.240-172.352  20.623  0.00  0.00    +0.000 C 
BRANCH 275 276
ATOM    276  CG  HIS A   5      32.413-173.503  20.025  0.00  0.00    +0.000 C 
ATOM    277  ND1 HIS A   5      31.613-173.435  18.891  0.00  0.00    +0.000 N 
ATOM    278  HD1 HIS A   5      31.794-172.967  17.814  0.00  0.00    +0.000 HD
ATOM    279  CE1 HIS A   5      30.910-174.587  18.796  0.00  0.00    +0.000 C 
ATOM    280  NE2 HIS A   5      31.295-175.440  19.755  0.00  0.00    +0.000 NA
ATOM    281  CD2 HIS A   5      32.279-174.786  20.516  0.00  0.00    +0.000 C 
ENDBRANCH 275 276
ENDBRANCH 240 275
ENDBRANCH 236 240
ENDBRANCH 235 238
BRANCH 235 282
ATOM    282  CB  HIS A   6      32.566-167.688  20.216  0.00  0.00    +0.000 C 
BRANCH 282 283
ATOM    283  CG  HIS A   6      31.743-168.773  19.523  0.00  0.00    +0.000 C 
ATOM    284  ND1 HIS A   6      30.869-168.574  18.463  0.00  0.00    +0.000 N 
ATOM    285  HD1 HIS A   6      31.090-168.051  17.417  0.00  0.00    +0.000 HD
ATOM    286  CE1 HIS A   6      30.218-169.730  18.232  0.00  0.00    +0.000 C 
ATOM    287  NE2 HIS A   6      30.673-170.683  19.050  0.00  0.00    +0.000 NA
ATOM    288  CD2 HIS A   6      31.661-170.108  19.859  0.00  0.00    +0.000 C 
ENDBRANCH 282 283
ENDBRANCH 235 282
ENDBRANCH 231 235
ENDBRANCH 230 233
BRANCH 230 289
ATOM    289  CB  HIS A   7      31.802-162.960  19.730  0.00  0.00    +0.000 C 
BRANCH 289 290
ATOM    290  CG  HIS A   7      30.944-163.999  19.011  0.00  0.00    +0.000 C 
ATOM    291  ND1 HIS A   7      30.072-163.763  17.958  0.00  0.00    +0.000 N 
ATOM    292  HD1 HIS A   7      30.337-163.247  16.920  0.00  0.00    +0.000 HD
ATOM    293  CE1 HIS A   7      29.377-164.895  17.731  0.00  0.00    +0.000 C 
ATOM    294  NE2 HIS A   7      29.818-165.871  18.531  0.00  0.00    +0.000 NA
ATOM    295  CD2 HIS A   7      30.846-165.337  19.315  0.00  0.00    +0.000 C 
ENDBRANCH 289 290
ENDBRANCH 230 289
ENDBRANCH 226 230
ENDBRANCH 225 228
BRANCH 225 296
ATOM    296  CB  HIS A   8      30.920-158.213  19.193  0.00  0.00    +0.000 C 
BRANCH 296 297
ATOM    297  CG  HIS A   8      30.037-159.238  18.491  0.00  0.00    +0.000 C 
ATOM    298  ND1 HIS A   8      29.154-158.993  17.446  0.00  0.00    +0.000 N 
ATOM    299  HD1 HIS A   8      29.428-158.485  16.406  0.00  0.00    +0.000 HD
ATOM    300  CE1 HIS A   8      28.475-160.130  17.200  0.00  0.00    +0.000 C 
ATOM    301  NE2 HIS A   8      28.916-161.109  18.000  0.00  0.00    +0.000 NA
ATOM    302  CD2 HIS A   8      29.924-160.572  18.808  0.00  0.00    +0.000 C 
ENDBRANCH 296 297
ENDBRANCH 225 296
ENDBRANCH 221 225
ENDBRANCH 220 223
BRANCH 220 303
ATOM    303  CB  HIS A   9      29.885-153.448  18.565  0.00  0.00    +0.000 C 
BRANCH 303 304
ATOM    304  CG  HIS A   9      29.017-154.507  17.913  0.00  0.00    +0.000 C 
ATOM    305  ND1 HIS A   9      28.113-154.296  16.882  0.00  0.00    +0.000 N 
ATOM    306  HD1 HIS A   9      28.325-153.754  15.845  0.00  0.00    +0.000 HD
ATOM    307  CE1 HIS A   9      27.507-155.472  16.639  0.00  0.00    +0.000 C 
ATOM    308  NE2 HIS A   9      27.999-156.422  17.447  0.00  0.00    +0.000 NA
ATOM    309  CD2 HIS A   9      28.957-155.830  18.274  0.00  0.00    +0.000 C 
ENDBRANCH 303 304
ENDBRANCH 220 303
ENDBRANCH 216 220
ENDBRANCH 215 218
BRANCH 215 310
ATOM    310  CB  HIS A  10      28.786-148.658  17.862  0.00  0.00    +0.000 C 
BRANCH 310 311
ATOM    311  CG  HIS A  10      27.934-149.716  17.195  0.00  0.00    +0.000 C 
ATOM    312  ND1 HIS A  10      27.025-149.564  16.166  0.00  0.00    +0.000 N 
ATOM    313  HD1 HIS A  10      26.760-148.679  15.420  0.00  0.00    +0.000 HD
ATOM    314  CE1 HIS A  10      26.396-150.741  16.002  0.00  0.00    +0.000 C 
ATOM    315  NE2 HIS A  10      26.902-151.654  16.836  0.00  0.00    +0.000 NA
ATOM    316  CD2 HIS A  10      27.903-151.027  17.573  0.00  0.00    +0.000 C 
ENDBRANCH 310 311
ENDBRANCH 215 310
ENDBRANCH 211 215
ENDBRANCH 210 213
BRANCH 210 317
ATOM    317  CB  SER A  11      27.793-143.851  17.357  0.00  0.00    +0.000 C 
BRANCH 317 318
ATOM    318  OG  SER A  11      27.196-145.048  16.910  0.00  0.00    +0.000 OA
ATOM    319  HG  SER A  11      26.353-145.406  17.665  0.00  0.00    +0.000 HD
ENDBRANCH 317 318
ENDBRANCH 210 317
ENDBRANCH 206 210
ENDBRANCH 205 208
BRANCH 205 320
ATOM    320  CB  SER A  12      26.926-139.153  16.883  0.00  0.00    +0.000 C 
BRANCH 320 321
ATOM    321  OG  SER A  12      26.338-140.296  16.309  0.00  0.00    +0.000 OA
ATOM    322  HG  SER A  12      25.328-140.517  16.887  0.00  0.00    +0.000 HD
ENDBRANCH 320 321
ENDBRANCH 205 320
ENDBRANCH 201 205
ENDBRANCH 200 203
BRANCH 200 323
ATOM    323  CB  HIS A  13      25.956-134.545  16.123  0.00  0.00    +0.000 C 
BRANCH 323 324
ATOM    324  CG  HIS A  13      25.076-135.667  15.581  0.00  0.00    +0.000 C 
ATOM    325  ND1 HIS A  13      24.215-135.591  14.489  0.00  0.00    +0.000 N 
ATOM    326  HD1 HIS A  13      24.164-134.982  13.471  0.00  0.00    +0.000 HD
ATOM    327  CE1 HIS A  13      23.509-136.738  14.473  0.00  0.00    +0.000 C 
ATOM    328  NE2 HIS A  13      23.926-137.574  15.439  0.00  0.00    +0.000 NA
ATOM    329  CD2 HIS A  13      24.948-136.927  16.137  0.00  0.00    +0.000 C 
ENDBRANCH 323 324
ENDBRANCH 200 323
ENDBRANCH 196 200
ENDBRANCH 195 198
BRANCH 195 330
ATOM    330  CB  MET A  14      25.061-129.742  15.652  0.00  0.00    +0.000 C 
BRANCH 330 331
ATOM    331  CG  MET A  14      24.326-130.983  15.142  0.00  0.00    +0.000 C 
BRANCH 331 332
ATOM    332  SD  MET A  14      23.159-131.706  16.329  0.00  0.00    +0.000 S 
ATOM    333  CE  MET A  14      21.587-131.445  15.472  0.00  0.00    +0.000 C 
ENDBRANCH 331 332
ENDBRANCH 330 331
ENDBRANCH 195 330
ENDBRANCH 191 195
ENDBRANCH 190 193
BRANCH 190 334
ATOM    334  CB  LEU A  15      23.946-125.014  14.709  0.00  0.00    +0.000 C 
BRANCH 334 335
ATOM    335  CG  LEU A  15      23.246-126.373  14.918  0.00  0.00    +0.000 C 
ATOM    336  CD1 LEU A  15      21.734-126.177  15.041  0.00  0.00    +0.000 C 
ATOM    337  CD2 LEU A  15      23.802-127.262  16.034  0.00  0.00    +0.000 C 
ENDBRANCH 334 335
ENDBRANCH 190 334
ENDBRANCH 186 190
ENDBRANCH 185 188
BRANCH 185 338
ATOM    338  CB  VAL A  16      22.453-120.356  13.710  0.00  0.00    +0.000 C 
ATOM    339  CG1 VAL A  16      21.990-120.113  15.154  0.00  0.00    +0.000 C 
ATOM    340  CG2 VAL A  16      21.866-121.629  13.105  0.00  0.00    +0.000 C 
ENDBRANCH 185 338
ENDBRANCH 178 185
ENDBRANCH 174 184
ENDBRANCH   1 176
BRANCH   1 341
ATOM    341  CB  ARG A  18      20.891-111.121  11.827  0.00  0.00    +0.000 C 
BRANCH 341 342
ATOM    342  CG  ARG A  18      20.121-111.323  13.137  0.00  0.00    +0.000 C 
BRANCH 342 343
ATOM    343  CD  ARG A  18      21.035-111.884  14.224  0.00  0.00    +0.000 C 
BRANCH 343 344
ATOM    344  NE  ARG A  18      20.515-111.690  15.573  0.00  0.00    +0.000 N 
ATOM    345  HE  ARG A  18      20.346-110.662  16.148  0.00  0.00    +0.000 HD
ATOM    346  CZ  ARG A  18      19.967-112.677  16.296  0.00  0.00    +0.000 C 
ATOM    347  NH1 ARG A  18      18.929-113.394  15.824  0.00  0.00    +0.000 N 
ATOM    348 HH11 ARG A  18      18.833-114.576  15.731  0.00  0.00    +0.000 HD
ATOM    349 HH12 ARG A  18      17.846-112.897  15.812  0.00  0.00    +0.000 HD
ATOM    350  NH2 ARG A  18      20.414-112.895  17.545  0.00  0.00    +0.000 N 
ATOM    351 HH21 ARG A  18      19.718-113.369  18.387  0.00  0.00    +0.000 HD
ATOM    352 HH22 ARG A  18      21.476-112.645  18.022  0.00  0.00    +0.000 HD
ENDBRANCH 343 344
ENDBRANCH 342 343
ENDBRANCH 341 342
ENDBRANCH   1 341
TORSDOF 147
REMARK  Name = /Users/acegid/Desktop/Smoking_Research/Docking/Docking_All_PDB/All_PDB/2CKA_H.pdb
REMARK  434 active torsions:
REMARK  status: ('A' for Active; 'I' for Inactive)
REMARK    1  A    between atoms: N_1  and  CA_5
REMARK    2  A    between atoms: CA_5  and  CB_7
REMARK    3  A    between atoms: CA_5  and  C_18
REMARK    4  A    between atoms: CB_7  and  CG_10
REMARK    5  A    between atoms: CG_10  and  SD_13
REMARK    6  A    between atoms: SD_13  and  CE_14
REMARK    7  A    between atoms: N_20  and  CA_22
REMARK    8  A    between atoms: CA_22  and  C_25
REMARK    9  A    between atoms: N_27  and  CA_29
REMARK   10  A    between atoms: CA_29  and  CB_31
REMARK   11  A    between atoms: CA_29  and  C_36
REMARK   12  A    between atoms: CB_31  and  OG_34
REMARK   13  A    between atoms: N_38  and  CA_40
REMARK   14  A    between atoms: CA_40  and  CB_42
REMARK   15  A    between atoms: CA_40  and  C_47
REMARK   16  A    between atoms: CB_42  and  OG_45
REMARK   17  A    between atoms: N_49  and  CA_51
REMARK   18  A    between atoms: CA_51  and  CB_53
REMARK   19  A    between atoms: CA_51  and  C_64
REMARK   20  A    between atoms: CB_53  and  CG_56
REMARK   21  A    between atoms: N_66  and  CA_68
REMARK   22  A    between atoms: CA_68  and  CB_70
REMARK   23  A    between atoms: CA_68  and  C_81
REMARK   24  A    between atoms: CB_70  and  CG_73
REMARK   25  A    between atoms: N_83  and  CA_85
REMARK   26  A    between atoms: CA_85  and  CB_87
REMARK   27  A    between atoms: CA_85  and  C_98
REMARK   28  A    between atoms: CB_87  and  CG_90
REMARK   29  A    between atoms: N_100  and  CA_102
REMARK   30  A    between atoms: CA_102  and  CB_104
REMARK   31  A    between atoms: CA_102  and  C_115
REMARK   32  A    between atoms: CB_104  and  CG_107
REMARK   33  A    between atoms: N_117  and  CA_119
REMARK   34  A    between atoms: CA_119  and  CB_121
REMARK   35  A    between atoms: CA_119  and  C_132
REMARK   36  A    between atoms: CB_121  and  CG_124
REMARK   37  A    between atoms: N_134  and  CA_136
REMARK   38  A    between atoms: CA_136  and  CB_138
REMARK   39  A    between atoms: CA_136  and  C_149
REMARK   40  A    between atoms: CB_138  and  CG_141
REMARK   41  A    between atoms: N_151  and  CA_153
REMARK   42  A    between atoms: CA_153  and  CB_155
REMARK   43  A    between atoms: CA_153  and  C_160
REMARK   44  A    between atoms: CB_155  and  OG_158
REMARK   45  A    between atoms: N_162  and  CA_164
REMARK   46  A    between atoms: CA_164  and  CB_166
REMARK   47  A    between atoms: CA_164  and  C_171
REMARK   48  A    between atoms: CB_166  and  OG_169
REMARK   49  A    between atoms: N_173  and  CA_175
REMARK   50  A    between atoms: CA_175  and  CB_177
REMARK   51  A    between atoms: CA_175  and  C_188
REMARK   52  A    between atoms: CB_177  and  CG_180
REMARK   53  A    between atoms: N_190  and  CA_192
REMARK   54  A    between atoms: CA_192  and  CB_194
REMARK   55  A    between atoms: CA_192  and  C_205
REMARK   56  A    between atoms: CB_194  and  CG_197
REMARK   57  A    between atoms: CG_197  and  SD_200
REMARK   58  A    between atoms: SD_200  and  CE_201
REMARK   59  A    between atoms: N_207  and  CA_209
REMARK   60  A    between atoms: CA_209  and  CB_211
REMARK   61  A    between atoms: CA_209  and  C_224
REMARK   62  A    between atoms: CB_211  and  CG_214
REMARK   63  A    between atoms: CG_214  and  CD1_216
REMARK   64  A    between atoms: CG_214  and  CD2_220
REMARK   65  A    between atoms: N_226  and  CA_228
REMARK   66  A    between atoms: CA_228  and  CB_230
REMARK   67  A    between atoms: CA_228  and  C_240
REMARK   68  A    between atoms: CB_230  and  CG1_232
REMARK   69  A    between atoms: CB_230  and  CG2_236
REMARK   70  A    between atoms: CA_252  and  C_254
REMARK   71  A    between atoms: N_256  and  CA_258
REMARK   72  A    between atoms: CA_258  and  CB_260
REMARK   73  A    between atoms: CA_258  and  C_278
REMARK   74  A    between atoms: CB_260  and  CG_263
REMARK   75  A    between atoms: CG_263  and  CD_266
REMARK   76  A    between atoms: CD_266  and  NE_269
REMARK   77  A    between atoms: N_280  and  CA_282
REMARK   78  A    between atoms: CA_282  and  C_285
REMARK   79  A    between atoms: N_287  and  CA_289
REMARK   80  A    between atoms: CA_289  and  CB_291
REMARK   81  A    between atoms: CA_289  and  C_296
REMARK   82  A    between atoms: CB_291  and  OG_294
REMARK   83  A    between atoms: N_298  and  CA_300
REMARK   84  A    between atoms: CA_300  and  CB_302
REMARK   85  A    between atoms: CA_300  and  C_315
REMARK   86  A    between atoms: CB_302  and  CG_305
REMARK   87  A    between atoms: CG_305  and  CD1_307
REMARK   88  A    between atoms: CG_305  and  CD2_311
REMARK   89  A    between atoms: N_317  and  CA_319
REMARK   90  A    between atoms: CA_319  and  CB_321
REMARK   91  A    between atoms: CA_319  and  C_337
REMARK   92  A    between atoms: CB_321  and  CG_324
REMARK   93  A    between atoms: CG_324  and  CD_327
REMARK   94  A    between atoms: CD_327  and  CE_330
REMARK   95  A    between atoms: CE_330  and  NZ_333
REMARK   96  A    between atoms: N_339  and  CA_341
REMARK   97  A    between atoms: CA_341  and  CB_343
REMARK   98  A    between atoms: CA_341  and  C_359
REMARK   99  A    between atoms: CB_343  and  CG_346
REMARK  100  A    between atoms: CG_346  and  CD_349
REMARK  101  A    between atoms: CD_349  and  CE_352
REMARK  102  A    between atoms: CE_352  and  NZ_355
REMARK  103  A    between atoms: N_361  and  CA_363
REMARK  104  A    between atoms: CA_363  and  CB_365
REMARK  105  A    between atoms: CA_363  and  C_378
REMARK  106  A    between atoms: CB_365  and  CG_368
REMARK  107  A    between atoms: CG_368  and  CD1_370
REMARK  108  A    between atoms: CG_368  and  CD2_374
REMARK  109  A    between atoms: N_380  and  CA_382
REMARK  110  A    between atoms: CA_382  and  CB_384
REMARK  111  A    between atoms: CA_382  and  C_394
REMARK  112  A    between atoms: CB_384  and  CG1_386
REMARK  113  A    between atoms: CB_384  and  CG2_390
REMARK  114  A    between atoms: N_396  and  CA_398
REMARK  115  A    between atoms: CA_398  and  CB_400
REMARK  116  A    between atoms: CA_398  and  C_409
REMARK  117  A    between atoms: CB_400  and  CG_403
REMARK  118  A    between atoms: CG_403  and  CD_406
REMARK  119  A    between atoms: N_411  and  CA_413
REMARK  120  A    between atoms: CA_413  and  CB_415
REMARK  121  A    between atoms: CA_413  and  C_428
REMARK  122  A    between atoms: CB_415  and  CG_418
REMARK  123  A    between atoms: CG_418  and  CD1_420
REMARK  124  A    between atoms: CG_418  and  CD2_424
REMARK  125  A    between atoms: N_430  and  CA_432
REMARK  126  A    between atoms: CA_432  and  CB_434
REMARK  127  A    between atoms: CA_432  and  C_443
REMARK  128  A    between atoms: CB_434  and  CG_437
REMARK  129  A    between atoms: CG_437  and  CD_440
REMARK  130  A    between atoms: N_445  and  CA_447
REMARK  131  A    between atoms: CA_447  and  CB_449
REMARK  132  A    between atoms: CA_447  and  C_459
REMARK  133  A    between atoms: CB_449  and  CG1_451
REMARK  134  A    between atoms: CB_449  and  CG2_455
REMARK  135  A    between atoms: N_461  and  CA_463
REMARK  136  A    between atoms: CA_463  and  CB_465
REMARK  137  A    between atoms: CA_463  and  C_474
REMARK  138  A    between atoms: CB_465  and  CG_468
REMARK  139  A    between atoms: CG_468  and  CD_471
REMARK  140  A    between atoms: N_476  and  CA_478
REMARK  141  A    between atoms: CA_478  and  CB_480
REMARK  142  A    between atoms: CA_478  and  C_485
REMARK  143  A    between atoms: CB_480  and  SG_483
REMARK  144  A    between atoms: N_487  and  CA_489
REMARK  145  A    between atoms: CA_489  and  CB_491
REMARK  146  A    between atoms: CA_489  and  C_502
REMARK  147  A    between atoms: CB_491  and  CG_494
REMARK  148  A    between atoms: CG_494  and  SD_497
REMARK  149  A    between atoms: SD_497  and  CE_498
REMARK  150  A    between atoms: N_504  and  CA_506
REMARK  151  A    between atoms: CA_506  and  CB_508
REMARK  152  A    between atoms: CA_506  and  C_517
REMARK  153  A    between atoms: CB_508  and  CG_511
REMARK  154  A    between atoms: CG_511  and  CD_514
REMARK  155  A    between atoms: N_519  and  CA_521
REMARK  156  A    between atoms: CA_521  and  CB_523
REMARK  157  A    between atoms: CA_521  and  C_532
REMARK  158  A    between atoms: CB_523  and  CG_526
REMARK  159  A    between atoms: CG_526  and  CD_529
REMARK  160  A    between atoms: CA_544  and  C_546
REMARK  161  A    between atoms: N_548  and  CA_550
REMARK  162  A    between atoms: CA_550  and  CB_552
REMARK  163  A    between atoms: CA_550  and  C_560
REMARK  164  A    between atoms: CB_552  and  CG_555
REMARK  165  A    between atoms: N_562  and  CA_564
REMARK  166  A    between atoms: CB_566  and  CG_569
REMARK  167  A    between atoms: CA_580  and  C_581
REMARK  168  A    between atoms: CA_580  and  CB_583
REMARK  169  A    between atoms: CB_583  and  CG_584
REMARK  170  A    between atoms: CG_584  and  CD1_585
REMARK  171  A    between atoms: CG_584  and  CD2_586
REMARK  172  A    between atoms: N_598  and  CA_599
REMARK  173  A    between atoms: CA_599  and  C_600
REMARK  174  A    between atoms: CA_599  and  CB_602
REMARK  175  A    between atoms: CB_602  and  CG_603
REMARK  176  A    between atoms: N_610  and  CA_611
REMARK  177  A    between atoms: CA_611  and  C_612
REMARK  178  A    between atoms: CA_611  and  CB_614
REMARK  179  A    between atoms: CB_614  and  CG1_615
REMARK  180  A    between atoms: CB_614  and  CG2_616
REMARK  181  A    between atoms: N_626  and  CA_627
REMARK  182  A    between atoms: CA_627  and  C_628
REMARK  183  A    between atoms: CA_627  and  CB_630
REMARK  184  A    between atoms: CB_630  and  CG_631
REMARK  185  A    between atoms: N_638  and  CA_639
REMARK  186  A    between atoms: CA_639  and  C_640
REMARK  187  A    between atoms: CA_639  and  CB_642
REMARK  188  A    between atoms: CB_642  and  CG_643
REMARK  189  A    between atoms: CG_643  and  CD1_644
REMARK  190  A    between atoms: CG_643  and  CD2_645
REMARK  191  A    between atoms: N_657  and  CA_658
REMARK  192  A    between atoms: CA_658  and  C_659
REMARK  193  A    between atoms: CA_658  and  CB_661
REMARK  194  A    between atoms: CB_661  and  CG_662
REMARK  195  A    between atoms: CG_662  and  CD_663
REMARK  196  A    between atoms: N_672  and  CA_673
REMARK  197  A    between atoms: CA_673  and  C_674
REMARK  198  A    between atoms: CA_673  and  CB_676
REMARK  199  A    between atoms: CB_676  and  OG1_677
REMARK  200  A    between atoms: CB_676  and  CG2_678
REMARK  201  A    between atoms: N_686  and  CA_687
REMARK  202  A    between atoms: CA_687  and  C_688
REMARK  203  A    between atoms: CA_687  and  CB_690
REMARK  204  A    between atoms: CB_690  and  CG_691
REMARK  205  A    between atoms: CG_691  and  CD_692
REMARK  206  A    between atoms: CD_692  and  NE_693
REMARK  207  A    between atoms: N_710  and  CA_711
REMARK  208  A    between atoms: CA_711  and  C_712
REMARK  209  A    between atoms: CA_711  and  CB_714
REMARK  210  A    between atoms: CB_714  and  CG1_715
REMARK  211  A    between atoms: CB_714  and  CG2_716
REMARK  212  A    between atoms: CG1_715  and  CD1_717
REMARK  213  A    between atoms: CA_730  and  C_731
REMARK  214  A    between atoms: N_743  and  CA_744
REMARK  215  A    between atoms: CA_744  and  C_745
REMARK  216  A    between atoms: CA_744  and  CB_747
REMARK  217  A    between atoms: CB_747  and  CG1_748
REMARK  218  A    between atoms: CB_747  and  CG2_749
REMARK  219  A    between atoms: N_759  and  CA_760
REMARK  220  A    between atoms: CA_760  and  C_761
REMARK  221  A    between atoms: CA_760  and  CB_763
REMARK  222  A    between atoms: CB_763  and  CG1_764
REMARK  223  A    between atoms: CB_763  and  CG2_765
REMARK  224  A    between atoms: CG1_764  and  CD1_766
REMARK  225  A    between atoms: N_778  and  CA_779
REMARK  226  A    between atoms: CA_779  and  C_780
REMARK  227  A    between atoms: CA_779  and  CB_782
REMARK  228  A    between atoms: CB_782  and  CG_783
REMARK  229  A    between atoms: N_792  and  CA_793
REMARK  230  A    between atoms: CA_793  and  C_794
REMARK  231  A    between atoms: CA_793  and  CB_796
REMARK  232  A    between atoms: CB_796  and  CG_797
REMARK  233  A    between atoms: CG_797  and  CD_798
REMARK  234  A    between atoms: CD_798  and  CE_799
REMARK  235  A    between atoms: CE_799  and  NZ_800
REMARK  236  A    between atoms: N_814  and  CA_815
REMARK  237  A    between atoms: CA_815  and  C_816
REMARK  238  A    between atoms: CA_815  and  CB_818
REMARK  239  A    between atoms: CB_818  and  CG1_819
REMARK  240  A    between atoms: CB_818  and  CG2_820
REMARK  241  A    between atoms: N_830  and  CA_831
REMARK  242  A    between atoms: CA_831  and  C_832
REMARK  243  A    between atoms: CA_831  and  CB_834
REMARK  244  A    between atoms: CB_834  and  CG_835
REMARK  245  A    between atoms: N_842  and  CA_843
REMARK  246  A    between atoms: CA_843  and  C_844
REMARK  247  A    between atoms: N_849  and  CA_850
REMARK  248  A    between atoms: CA_850  and  C_851
REMARK  249  A    between atoms: CA_850  and  CB_853
REMARK  250  A    between atoms: CB_853  and  OG1_854
REMARK  251  A    between atoms: CB_853  and  CG2_855
REMARK  252  A    between atoms: N_863  and  CA_864
REMARK  253  A    between atoms: CA_864  and  C_865
REMARK  254  A    between atoms: CA_864  and  CB_867
REMARK  255  A    between atoms: CB_867  and  CG_868
REMARK  256  A    between atoms: CG_868  and  CD1_869
REMARK  257  A    between atoms: CG_868  and  CD2_870
REMARK  258  A    between atoms: N_882  and  CA_883
REMARK  259  A    between atoms: CA_883  and  C_884
REMARK  260  A    between atoms: CA_883  and  CB_886
REMARK  261  A    between atoms: CB_886  and  CG_887
REMARK  262  A    between atoms: CG_887  and  CD1_888
REMARK  263  A    between atoms: CG_887  and  CD2_889
REMARK  264  A    between atoms: N_901  and  CA_902
REMARK  265  A    between atoms: CA_902  and  C_903
REMARK  266  A    between atoms: CA_902  and  CB_905
REMARK  267  A    between atoms: CB_905  and  CG1_906
REMARK  268  A    between atoms: CB_905  and  CG2_907
REMARK  269  A    between atoms: N_917  and  CA_918
REMARK  270  A    between atoms: CA_918  and  C_919
REMARK  271  A    between atoms: N_924  and  CA_925
REMARK  272  A    between atoms: CA_925  and  C_926
REMARK  273  A    between atoms: CA_925  and  CB_928
REMARK  274  A    between atoms: CB_928  and  CG_929
REMARK  275  A    between atoms: CG_929  and  CD_930
REMARK  276  A    between atoms: N_939  and  CA_940
REMARK  277  A    between atoms: CA_940  and  C_941
REMARK  278  A    between atoms: CA_940  and  CB_943
REMARK  279  A    between atoms: CB_943  and  CG_944
REMARK  280  A    between atoms: N_951  and  CA_952
REMARK  281  A    between atoms: CA_952  and  C_953
REMARK  282  A    between atoms: CA_952  and  CB_955
REMARK  283  A    between atoms: CA_962  and  C_963
REMARK  284  A    between atoms: N_975  and  CA_976
REMARK  285  A    between atoms: CA_976  and  C_977
REMARK  286  A    between atoms: CA_976  and  CB_979
REMARK  287  A    between atoms: CB_979  and  CG_980
REMARK  288  A    between atoms: CG_980  and  CD_981
REMARK  289  A    between atoms: CD_981  and  NE_982
REMARK  290  A    between atoms: N_999  and  CA_1000
REMARK  291  A    between atoms: CA_1000  and  C_1001
REMARK  292  A    between atoms: CA_1000  and  CB_1003
REMARK  293  A    between atoms: CB_1003  and  CG_1004
REMARK  294  A    between atoms: CG_1004  and  CD_1005
REMARK  295  A    between atoms: CD_1005  and  NE_1006
REMARK  296  A    between atoms: N_1023  and  CA_1024
REMARK  297  A    between atoms: CA_1024  and  C_1025
REMARK  298  A    between atoms: CA_1024  and  CB_1027
REMARK  299  A    between atoms: N_1033  and  CA_1034
REMARK  300  A    between atoms: CA_1034  and  C_1035
REMARK  301  A    between atoms: CA_1034  and  CB_1037
REMARK  302  A    between atoms: CB_1037  and  CG_1038
REMARK  303  A    between atoms: CG_1038  and  CD_1039
REMARK  304  A    between atoms: N_1048  and  CA_1049
REMARK  305  A    between atoms: CA_1049  and  C_1050
REMARK  306  A    between atoms: CA_1049  and  CB_1052
REMARK  307  A    between atoms: CB_1052  and  CG_1053
REMARK  308  A    between atoms: CG_1053  and  CD1_1054
REMARK  309  A    between atoms: CG_1053  and  CD2_1055
REMARK  310  A    between atoms: N_1067  and  CA_1068
REMARK  311  A    between atoms: CA_1068  and  C_1069
REMARK  312  A    between atoms: CA_1068  and  CB_1071
REMARK  313  A    between atoms: CB_1071  and  CG_1072
REMARK  314  A    between atoms: CG_1072  and  CD_1073
REMARK  315  A    between atoms: N_1082  and  CA_1083
REMARK  316  A    between atoms: CA_1083  and  C_1084
REMARK  317  A    between atoms: CA_1083  and  CB_1086
REMARK  318  A    between atoms: CB_1086  and  CG_1087
REMARK  319  A    between atoms: CG_1087  and  SD_1088
REMARK  320  A    between atoms: SD_1088  and  CE_1089
REMARK  321  A    between atoms: N_1099  and  CA_1100
REMARK  322  A    between atoms: CA_1100  and  C_1101
REMARK  323  A    between atoms: CA_1100  and  CB_1103
REMARK  324  A    between atoms: CB_1103  and  CG_1104
REMARK  325  A    between atoms: N_1123  and  CA_1124
REMARK  326  A    between atoms: CA_1124  and  C_1125
REMARK  327  A    between atoms: CA_1124  and  CB_1127
REMARK  328  A    between atoms: CB_1127  and  CG_1128
REMARK  329  A    between atoms: CG_1128  and  CD1_1129
REMARK  330  A    between atoms: CG_1128  and  CD2_1130
REMARK  331  A    between atoms: N_1142  and  CA_1143
REMARK  332  A    between atoms: CA_1143  and  C_1144
REMARK  333  A    between atoms: CA_1143  and  CB_1146
REMARK  334  A    between atoms: CB_1146  and  CG_1147
REMARK  335  A    between atoms: CG_1147  and  CD_1148
REMARK  336  A    between atoms: N_1159  and  CA_1160
REMARK  337  A    between atoms: CA_1160  and  C_1161
REMARK  338  A    between atoms: N_1166  and  CA_1167
REMARK  339  A    between atoms: CA_1167  and  C_1168
REMARK  340  A    between atoms: CA_1167  and  CB_1170
REMARK  341  A    between atoms: CB_1170  and  CG_1171
REMARK  342  A    between atoms: CA_1184  and  C_1185
REMARK  343  A    between atoms: N_1197  and  CA_1198
REMARK  344  A    between atoms: CA_1198  and  C_1199
REMARK  345  A    between atoms: CA_1198  and  CB_1201
REMARK  346  A    between atoms: CB_1201  and  CG_1202
REMARK  347  A    between atoms: CG_1202  and  CD_1203
REMARK  348  A    between atoms: N_1212  and  CA_1213
REMARK  349  A    between atoms: CA_1213  and  C_1214
REMARK  350  A    between atoms: CA_1213  and  CB_1216
REMARK  351  A    between atoms: CB_1216  and  CG_1217
REMARK  352  A    between atoms: N_1232  and  CA_1233
REMARK  353  A    between atoms: CA_1233  and  C_1234
REMARK  354  A    between atoms: CA_1233  and  CB_1236
REMARK  355  A    between atoms: N_1242  and  CA_1243
REMARK  356  A    between atoms: CA_1243  and  C_1244
REMARK  357  A    between atoms: CA_1243  and  CB_1246
REMARK  358  A    between atoms: CB_1246  and  CG1_1247
REMARK  359  A    between atoms: CB_1246  and  CG2_1248
REMARK  360  A    between atoms: N_1258  and  CA_1259
REMARK  361  A    between atoms: CA_1259  and  C_1260
REMARK  362  A    between atoms: CA_1259  and  CB_1262
REMARK  363  A    between atoms: CB_1262  and  CG_1263
REMARK  364  A    between atoms: CA_1271  and  C_1272
REMARK  365  A    between atoms: N_1284  and  CA_1285
REMARK  366  A    between atoms: CA_1285  and  C_1286
REMARK  367  A    between atoms: CA_1285  and  CB_1288
REMARK  368  A    between atoms: CB_1288  and  CG_1289
REMARK  369  A    between atoms: CG_1289  and  CD_1290
REMARK  370  A    between atoms: CD_1290  and  NE_1291
REMARK  371  A    between atoms: N_1308  and  CA_1309
REMARK  372  A    between atoms: CA_1309  and  C_1310
REMARK  373  A    between atoms: CA_1309  and  CB_1312
REMARK  374  A    between atoms: CB_1312  and  CG_1313
REMARK  375  A    between atoms: N_1328  and  CA_1329
REMARK  376  A    between atoms: CA_1329  and  C_1330
REMARK  377  A    between atoms: CA_1329  and  CB_1332
REMARK  378  A    between atoms: CB_1332  and  CG_1333
REMARK  379  A    between atoms: CG_1333  and  CD1_1334
REMARK  380  A    between atoms: CG_1333  and  CD2_1335
REMARK  381  A    between atoms: N_1347  and  CA_1348
REMARK  382  A    between atoms: CA_1348  and  C_1349
REMARK  383  A    between atoms: CA_1348  and  CB_1351
REMARK  384  A    between atoms: N_1357  and  CA_1358
REMARK  385  A    between atoms: CA_1358  and  C_1359
REMARK  386  A    between atoms: CA_1358  and  CB_1361
REMARK  387  A    between atoms: CB_1361  and  CG_1362
REMARK  388  A    between atoms: CZ_1367  and  OH_1368
REMARK  389  A    between atoms: N_1378  and  CA_1379
REMARK  390  A    between atoms: CA_1379  and  C_1380
REMARK  391  A    between atoms: CA_1379  and  CB_1382
REMARK  392  A    between atoms: CB_1382  and  CG_1383
REMARK  393  A    between atoms: CG_1383  and  SD_1384
REMARK  394  A    between atoms: SD_1384  and  CE_1385
REMARK  395  A    between atoms: N_1395  and  CA_1396
REMARK  396  A    between atoms: CA_1396  and  C_1397
REMARK  397  A    between atoms: CA_1396  and  CB_1399
REMARK  398  A    between atoms: CB_1399  and  CG_1400
REMARK  399  A    between atoms: CG_1400  and  CD_1401
REMARK  400  A    between atoms: N_1410  and  CA_1411
REMARK  401  A    between atoms: CA_1411  and  C_1412
REMARK  402  A    between atoms: CA_1411  and  CB_1414
REMARK  403  A    between atoms: CB_1414  and  CG_1415
REMARK  404  A    between atoms: N_1422  and  CA_1423
REMARK  405  A    between atoms: CA_1423  and  C_1424
REMARK  406  A    between atoms: CA_1423  and  CB_1426
REMARK  407  A    between atoms: CB_1426  and  CG_1427
REMARK  408  A    between atoms: CG_1427  and  CD_1428
REMARK  409  A    between atoms: CD_1428  and  NE_1429
REMARK  410  A    between atoms: N_1446  and  CA_1447
REMARK  411  A    between atoms: CA_1447  and  C_1448
REMARK  412  A    between atoms: CA_1447  and  CB_1450
REMARK  413  A    between atoms: CB_1450  and  CG_1451
REMARK  414  A    between atoms: CG_1451  and  CD_1452
REMARK  415  A    between atoms: CD_1452  and  NE_1453
REMARK  416  A    between atoms: N_1470  and  CA_1471
REMARK  417  A    between atoms: CA_1471  and  C_1472
REMARK  418  A    between atoms: CA_1471  and  CB_1474
REMARK  419  A    between atoms: CB_1474  and  CG_1475
REMARK  420  A    between atoms: CG_1475  and  CD_1476
REMARK  421  A    between atoms: CD_1476  and  CE_1477
REMARK  422  A    between atoms: CE_1477  and  NZ_1478
REMARK  423  A    between atoms: N_1492  and  CA_1493
REMARK  424  A    between atoms: CA_1493  and  C_1494
REMARK  425  A    between atoms: CA_1493  and  CB_1496
REMARK  426  A    between atoms: CB_1496  and  CG_1497
REMARK  427  A    between atoms: CG_1497  and  CD_1498
REMARK  428  A    between atoms: N_1509  and  CA_1510
REMARK  429  A    between atoms: CA_1510  and  C_1511
REMARK  430  A    between atoms: CA_1510  and  CB_1513
REMARK  431  A    between atoms: CB_1513  and  CG_1514
REMARK  432  A    between atoms: CG_1514  and  CD_1515
REMARK  433  A    between atoms: CD_1515  and  CE_1516
REMARK  434  A    between atoms: CE_1516  and  NZ_1517
REMARK                            x       y       z     vdW  Elec       q    Type
REMARK                         _______ _______ _______ _____ _____    ______ ____
ROOT
ATOM      1  CB  HIS A  37       4.753 -18.781   2.651  0.00  0.00    +0.000 C 
ATOM      2  CG  HIS A  37       3.899 -20.060   2.582  0.00  0.00    +0.000 A 
ATOM      3  ND1 HIS A  37       2.920 -20.482   1.651  0.00  0.00    +0.000 N 
ATOM      4  HD1 HIS A  37       2.799 -20.484   0.467  0.00  0.00    +0.000 HD
ATOM      5  CE1 HIS A  37       2.326 -21.587   2.169  0.00  0.00    +0.000 A 
ATOM      6  NE2 HIS A  37       2.886 -21.930   3.335  0.00  0.00    +0.000 NA
ATOM      7  CD2 HIS A  37       3.914 -21.016   3.593  0.00  0.00    +0.000 A 
ENDROOT
TORSDOF 0
REMARK  Name = /Users/acegid/Desktop/Smoking_Research/Docking/Docking_All_PDB/All_PDB/2CKA_H.pdb
REMARK  434 active torsions:
REMARK  status: ('A' for Active; 'I' for Inactive)
REMARK    1  A    between atoms: N_1  and  CA_5
REMARK    2  A    between atoms: CA_5  and  CB_7
REMARK    3  A    between atoms: CA_5  and  C_18
REMARK    4  A    between atoms: CB_7  and  CG_10
REMARK    5  A    between atoms: CG_10  and  SD_13
REMARK    6  A    between atoms: SD_13  and  CE_14
REMARK    7  A    between atoms: N_20  and  CA_22
REMARK    8  A    between atoms: CA_22  and  C_25
REMARK    9  A    between atoms: N_27  and  CA_29
REMARK   10  A    between atoms: CA_29  and  CB_31
REMARK   11  A    between atoms: CA_29  and  C_36
REMARK   12  A    between atoms: CB_31  and  OG_34
REMARK   13  A    between atoms: N_38  and  CA_40
REMARK   14  A    between atoms: CA_40  and  CB_42
REMARK   15  A    between atoms: CA_40  and  C_47
REMARK   16  A    between atoms: CB_42  and  OG_45
REMARK   17  A    between atoms: N_49  and  CA_51
REMARK   18  A    between atoms: CA_51  and  CB_53
REMARK   19  A    between atoms: CA_51  and  C_64
REMARK   20  A    between atoms: CB_53  and  CG_56
REMARK   21  A    between atoms: N_66  and  CA_68
REMARK   22  A    between atoms: CA_68  and  CB_70
REMARK   23  A    between atoms: CA_68  and  C_81
REMARK   24  A    between atoms: CB_70  and  CG_73
REMARK   25  A    between atoms: N_83  and  CA_85
REMARK   26  A    between atoms: CA_85  and  CB_87
REMARK   27  A    between atoms: CA_85  and  C_98
REMARK   28  A    between atoms: CB_87  and  CG_90
REMARK   29  A    between atoms: N_100  and  CA_102
REMARK   30  A    between atoms: CA_102  and  CB_104
REMARK   31  A    between atoms: CA_102  and  C_115
REMARK   32  A    between atoms: CB_104  and  CG_107
REMARK   33  A    between atoms: N_117  and  CA_119
REMARK   34  A    between atoms: CA_119  and  CB_121
REMARK   35  A    between atoms: CA_119  and  C_132
REMARK   36  A    between atoms: CB_121  and  CG_124
REMARK   37  A    between atoms: N_134  and  CA_136
REMARK   38  A    between atoms: CA_136  and  CB_138
REMARK   39  A    between atoms: CA_136  and  C_149
REMARK   40  A    between atoms: CB_138  and  CG_141
REMARK   41  A    between atoms: N_151  and  CA_153
REMARK   42  A    between atoms: CA_153  and  CB_155
REMARK   43  A    between atoms: CA_153  and  C_160
REMARK   44  A    between atoms: CB_155  and  OG_158
REMARK   45  A    between atoms: N_162  and  CA_164
REMARK   46  A    between atoms: CA_164  and  CB_166
REMARK   47  A    between atoms: CA_164  and  C_171
REMARK   48  A    between atoms: CB_166  and  OG_169
REMARK   49  A    between atoms: N_173  and  CA_175
REMARK   50  A    between atoms: CA_175  and  CB_177
REMARK   51  A    between atoms: CA_175  and  C_188
REMARK   52  A    between atoms: CB_177  and  CG_180
REMARK   53  A    between atoms: N_190  and  CA_192
REMARK   54  A    between atoms: CA_192  and  CB_194
REMARK   55  A    between atoms: CA_192  and  C_205
REMARK   56  A    between atoms: CB_194  and  CG_197
REMARK   57  A    between atoms: CG_197  and  SD_200
REMARK   58  A    between atoms: SD_200  and  CE_201
REMARK   59  A    between atoms: N_207  and  CA_209
REMARK   60  A    between atoms: CA_209  and  CB_211
REMARK   61  A    between atoms: CA_209  and  C_224
REMARK   62  A    between atoms: CB_211  and  CG_214
REMARK   63  A    between atoms: CG_214  and  CD1_216
REMARK   64  A    between atoms: CG_214  and  CD2_220
REMARK   65  A    between atoms: N_226  and  CA_228
REMARK   66  A    between atoms: CA_228  and  CB_230
REMARK   67  A    between atoms: CA_228  and  C_240
REMARK   68  A    between atoms: CB_230  and  CG1_232
REMARK   69  A    between atoms: CB_230  and  CG2_236
REMARK   70  A    between atoms: CA_252  and  C_254
REMARK   71  A    between atoms: N_256  and  CA_258
REMARK   72  A    between atoms: CA_258  and  CB_260
REMARK   73  A    between atoms: CA_258  and  C_278
REMARK   74  A    between atoms: CB_260  and  CG_263
REMARK   75  A    between atoms: CG_263  and  CD_266
REMARK   76  A    between atoms: CD_266  and  NE_269
REMARK   77  A    between atoms: N_280  and  CA_282
REMARK   78  A    between atoms: CA_282  and  C_285
REMARK   79  A    between atoms: N_287  and  CA_289
REMARK   80  A    between atoms: CA_289  and  CB_291
REMARK   81  A    between atoms: CA_289  and  C_296
REMARK   82  A    between atoms: CB_291  and  OG_294
REMARK   83  A    between atoms: N_298  and  CA_300
REMARK   84  A    between atoms: CA_300  and  CB_302
REMARK   85  A    between atoms: CA_300  and  C_315
REMARK   86  A    between atoms: CB_302  and  CG_305
REMARK   87  A    between atoms: CG_305  and  CD1_307
REMARK   88  A    between atoms: CG_305  and  CD2_311
REMARK   89  A    between atoms: N_317  and  CA_319
REMARK   90  A    between atoms: CA_319  and  CB_321
REMARK   91  A    between atoms: CA_319  and  C_337
REMARK   92  A    between atoms: CB_321  and  CG_324
REMARK   93  A    between atoms: CG_324  and  CD_327
REMARK   94  A    between atoms: CD_327  and  CE_330
REMARK   95  A    between atoms: CE_330  and  NZ_333
REMARK   96  A    between atoms: N_339  and  CA_341
REMARK   97  A    between atoms: CA_341  and  CB_343
REMARK   98  A    between atoms: CA_341  and  C_359
REMARK   99  A    between atoms: CB_343  and  CG_346
REMARK  100  A    between atoms: CG_346  and  CD_349
REMARK  101  A    between atoms: CD_349  and  CE_352
REMARK  102  A    between atoms: CE_352  and  NZ_355
REMARK  103  A    between atoms: N_361  and  CA_363
REMARK  104  A    between atoms: CA_363  and  CB_365
REMARK  105  A    between atoms: CA_363  and  C_378
REMARK  106  A    between atoms: CB_365  and  CG_368
REMARK  107  A    between atoms: CG_368  and  CD1_370
REMARK  108  A    between atoms: CG_368  and  CD2_374
REMARK  109  A    between atoms: N_380  and  CA_382
REMARK  110  A    between atoms: CA_382  and  CB_384
REMARK  111  A    between atoms: CA_382  and  C_394
REMARK  112  A    between atoms: CB_384  and  CG1_386
REMARK  113  A    between atoms: CB_384  and  CG2_390
REMARK  114  A    between atoms: N_396  and  CA_398
REMARK  115  A    between atoms: CA_398  and  CB_400
REMARK  116  A    between atoms: CA_398  and  C_409
REMARK  117  A    between atoms: CB_400  and  CG_403
REMARK  118  A    between atoms: CG_403  and  CD_406
REMARK  119  A    between atoms: N_411  and  CA_413
REMARK  120  A    between atoms: CA_413  and  CB_415
REMARK  121  A    between atoms: CA_413  and  C_428
REMARK  122  A    between atoms: CB_415  and  CG_418
REMARK  123  A    between atoms: CG_418  and  CD1_420
REMARK  124  A    between atoms: CG_418  and  CD2_424
REMARK  125  A    between atoms: N_430  and  CA_432
REMARK  126  A    between atoms: CA_432  and  CB_434
REMARK  127  A    between atoms: CA_432  and  C_443
REMARK  128  A    between atoms: CB_434  and  CG_437
REMARK  129  A    between atoms: CG_437  and  CD_440
REMARK  130  A    between atoms: N_445  and  CA_447
REMARK  131  A    between atoms: CA_447  and  CB_449
REMARK  132  A    between atoms: CA_447  and  C_459
REMARK  133  A    between atoms: CB_449  and  CG1_451
REMARK  134  A    between atoms: CB_449  and  CG2_455
REMARK  135  A    between atoms: N_461  and  CA_463
REMARK  136  A    between atoms: CA_463  and  CB_465
REMARK  137  A    between atoms: CA_463  and  C_474
REMARK  138  A    between atoms: CB_465  and  CG_468
REMARK  139  A    between atoms: CG_468  and  CD_471
REMARK  140  A    between atoms: N_476  and  CA_478
REMARK  141  A    between atoms: CA_478  and  CB_480
REMARK  142  A    between atoms: CA_478  and  C_485
REMARK  143  A    between atoms: CB_480  and  SG_483
REMARK  144  A    between atoms: N_487  and  CA_489
REMARK  145  A    between atoms: CA_489  and  CB_491
REMARK  146  A    between atoms: CA_489  and  C_502
REMARK  147  A    between atoms: CB_491  and  CG_494
REMARK  148  A    between atoms: CG_494  and  SD_497
REMARK  149  A    between atoms: SD_497  and  CE_498
REMARK  150  A    between atoms: N_504  and  CA_506
REMARK  151  A    between atoms: CA_506  and  CB_508
REMARK  152  A    between atoms: CA_506  and  C_517
REMARK  153  A    between atoms: CB_508  and  CG_511
REMARK  154  A    between atoms: CG_511  and  CD_514
REMARK  155  A    between atoms: N_519  and  CA_521
REMARK  156  A    between atoms: CA_521  and  CB_523
REMARK  157  A    between atoms: CA_521  and  C_532
REMARK  158  A    between atoms: CB_523  and  CG_526
REMARK  159  A    between atoms: CG_526  and  CD_529
REMARK  160  A    between atoms: CA_544  and  C_546
REMARK  161  A    between atoms: N_548  and  CA_550
REMARK  162  A    between atoms: CA_550  and  CB_552
REMARK  163  A    between atoms: CA_550  and  C_560
REMARK  164  A    between atoms: CB_552  and  CG_555
REMARK  165  A    between atoms: N_562  and  CA_564
REMARK  166  A    between atoms: CB_566  and  CG_569
REMARK  167  A    between atoms: CA_580  and  C_581
REMARK  168  A    between atoms: CA_580  and  CB_583
REMARK  169  A    between atoms: CB_583  and  CG_584
REMARK  170  A    between atoms: CG_584  and  CD1_585
REMARK  171  A    between atoms: CG_584  and  CD2_586
REMARK  172  A    between atoms: N_598  and  CA_599
REMARK  173  A    between atoms: CA_599  and  C_600
REMARK  174  A    between atoms: CA_599  and  CB_602
REMARK  175  A    between atoms: CB_602  and  CG_603
REMARK  176  A    between atoms: N_610  and  CA_611
REMARK  177  A    between atoms: CA_611  and  C_612
REMARK  178  A    between atoms: CA_611  and  CB_614
REMARK  179  A    between atoms: CB_614  and  CG1_615
REMARK  180  A    between atoms: CB_614  and  CG2_616
REMARK  181  A    between atoms: N_626  and  CA_627
REMARK  182  A    between atoms: CA_627  and  C_628
REMARK  183  A    between atoms: CA_627  and  CB_630
REMARK  184  A    between atoms: CB_630  and  CG_631
REMARK  185  A    between atoms: N_638  and  CA_639
REMARK  186  A    between atoms: CA_639  and  C_640
REMARK  187  A    between atoms: CA_639  and  CB_642
REMARK  188  A    between atoms: CB_642  and  CG_643
REMARK  189  A    between atoms: CG_643  and  CD1_644
REMARK  190  A    between atoms: CG_643  and  CD2_645
REMARK  191  A    between atoms: N_657  and  CA_658
REMARK  192  A    between atoms: CA_658  and  C_659
REMARK  193  A    between atoms: CA_658  and  CB_661
REMARK  194  A    between atoms: CB_661  and  CG_662
REMARK  195  A    between atoms: CG_662  and  CD_663
REMARK  196  A    between atoms: N_672  and  CA_673
REMARK  197  A    between atoms: CA_673  and  C_674
REMARK  198  A    between atoms: CA_673  and  CB_676
REMARK  199  A    between atoms: CB_676  and  OG1_677
REMARK  200  A    between atoms: CB_676  and  CG2_678
REMARK  201  A    between atoms: N_686  and  CA_687
REMARK  202  A    between atoms: CA_687  and  C_688
REMARK  203  A    between atoms: CA_687  and  CB_690
REMARK  204  A    between atoms: CB_690  and  CG_691
REMARK  205  A    between atoms: CG_691  and  CD_692
REMARK  206  A    between atoms: CD_692  and  NE_693
REMARK  207  A    between atoms: N_710  and  CA_711
REMARK  208  A    between atoms: CA_711  and  C_712
REMARK  209  A    between atoms: CA_711  and  CB_714
REMARK  210  A    between atoms: CB_714  and  CG1_715
REMARK  211  A    between atoms: CB_714  and  CG2_716
REMARK  212  A    between atoms: CG1_715  and  CD1_717
REMARK  213  A    between atoms: CA_730  and  C_731
REMARK  214  A    between atoms: N_743  and  CA_744
REMARK  215  A    between atoms: CA_744  and  C_745
REMARK  216  A    between atoms: CA_744  and  CB_747
REMARK  217  A    between atoms: CB_747  and  CG1_748
REMARK  218  A    between atoms: CB_747  and  CG2_749
REMARK  219  A    between atoms: N_759  and  CA_760
REMARK  220  A    between atoms: CA_760  and  C_761
REMARK  221  A    between atoms: CA_760  and  CB_763
REMARK  222  A    between atoms: CB_763  and  CG1_764
REMARK  223  A    between atoms: CB_763  and  CG2_765
REMARK  224  A    between atoms: CG1_764  and  CD1_766
REMARK  225  A    between atoms: N_778  and  CA_779
REMARK  226  A    between atoms: CA_779  and  C_780
REMARK  227  A    between atoms: CA_779  and  CB_782
REMARK  228  A    between atoms: CB_782  and  CG_783
REMARK  229  A    between atoms: N_792  and  CA_793
REMARK  230  A    between atoms: CA_793  and  C_794
REMARK  231  A    between atoms: CA_793  and  CB_796
REMARK  232  A    between atoms: CB_796  and  CG_797
REMARK  233  A    between atoms: CG_797  and  CD_798
REMARK  234  A    between atoms: CD_798  and  CE_799
REMARK  235  A    between atoms: CE_799  and  NZ_800
REMARK  236  A    between atoms: N_814  and  CA_815
REMARK  237  A    between atoms: CA_815  and  C_816
REMARK  238  A    between atoms: CA_815  and  CB_818
REMARK  239  A    between atoms: CB_818  and  CG1_819
REMARK  240  A    between atoms: CB_818  and  CG2_820
REMARK  241  A    between atoms: N_830  and  CA_831
REMARK  242  A    between atoms: CA_831  and  C_832
REMARK  243  A    between atoms: CA_831  and  CB_834
REMARK  244  A    between atoms: CB_834  and  CG_835
REMARK  245  A    between atoms: N_842  and  CA_843
REMARK  246  A    between atoms: CA_843  and  C_844
REMARK  247  A    between atoms: N_849  and  CA_850
REMARK  248  A    between atoms: CA_850  and  C_851
REMARK  249  A    between atoms: CA_850  and  CB_853
REMARK  250  A    between atoms: CB_853  and  OG1_854
REMARK  251  A    between atoms: CB_853  and  CG2_855
REMARK  252  A    between atoms: N_863  and  CA_864
REMARK  253  A    between atoms: CA_864  and  C_865
REMARK  254  A    between atoms: CA_864  and  CB_867
REMARK  255  A    between atoms: CB_867  and  CG_868
REMARK  256  A    between atoms: CG_868  and  CD1_869
REMARK  257  A    between atoms: CG_868  and  CD2_870
REMARK  258  A    between atoms: N_882  and  CA_883
REMARK  259  A    between atoms: CA_883  and  C_884
REMARK  260  A    between atoms: CA_883  and  CB_886
REMARK  261  A    between atoms: CB_886  and  CG_887
REMARK  262  A    between atoms: CG_887  and  CD1_888
REMARK  263  A    between atoms: CG_887  and  CD2_889
REMARK  264  A    between atoms: N_901  and  CA_902
REMARK  265  A    between atoms: CA_902  and  C_903
REMARK  266  A    between atoms: CA_902  and  CB_905
REMARK  267  A    between atoms: CB_905  and  CG1_906
REMARK  268  A    between atoms: CB_905  and  CG2_907
REMARK  269  A    between atoms: N_917  and  CA_918
REMARK  270  A    between atoms: CA_918  and  C_919
REMARK  271  A    between atoms: N_924  and  CA_925
REMARK  272  A    between atoms: CA_925  and  C_926
REMARK  273  A    between atoms: CA_925  and  CB_928
REMARK  274  A    between atoms: CB_928  and  CG_929
REMARK  275  A    between atoms: CG_929  and  CD_930
REMARK  276  A    between atoms: N_939  and  CA_940
REMARK  277  A    between atoms: CA_940  and  C_941
REMARK  278  A    between atoms: CA_940  and  CB_943
REMARK  279  A    between atoms: CB_943  and  CG_944
REMARK  280  A    between atoms: N_951  and  CA_952
REMARK  281  A    between atoms: CA_952  and  C_953
REMARK  282  A    between atoms: CA_952  and  CB_955
REMARK  283  A    between atoms: CA_962  and  C_963
REMARK  284  A    between atoms: N_975  and  CA_976
REMARK  285  A    between atoms: CA_976  and  C_977
REMARK  286  A    between atoms: CA_976  and  CB_979
REMARK  287  A    between atoms: CB_979  and  CG_980
REMARK  288  A    between atoms: CG_980  and  CD_981
REMARK  289  A    between atoms: CD_981  and  NE_982
REMARK  290  A    between atoms: N_999  and  CA_1000
REMARK  291  A    between atoms: CA_1000  and  C_1001
REMARK  292  A    between atoms: CA_1000  and  CB_1003
REMARK  293  A    between atoms: CB_1003  and  CG_1004
REMARK  294  A    between atoms: CG_1004  and  CD_1005
REMARK  295  A    between atoms: CD_1005  and  NE_1006
REMARK  296  A    between atoms: N_1023  and  CA_1024
REMARK  297  A    between atoms: CA_1024  and  C_1025
REMARK  298  A    between atoms: CA_1024  and  CB_1027
REMARK  299  A    between atoms: N_1033  and  CA_1034
REMARK  300  A    between atoms: CA_1034  and  C_1035
REMARK  301  A    between atoms: CA_1034  and  CB_1037
REMARK  302  A    between atoms: CB_1037  and  CG_1038
REMARK  303  A    between atoms: CG_1038  and  CD_1039
REMARK  304  A    between atoms: N_1048  and  CA_1049
REMARK  305  A    between atoms: CA_1049  and  C_1050
REMARK  306  A    between atoms: CA_1049  and  CB_1052
REMARK  307  A    between atoms: CB_1052  and  CG_1053
REMARK  308  A    between atoms: CG_1053  and  CD1_1054
REMARK  309  A    between atoms: CG_1053  and  CD2_1055
REMARK  310  A    between atoms: N_1067  and  CA_1068
REMARK  311  A    between atoms: CA_1068  and  C_1069
REMARK  312  A    between atoms: CA_1068  and  CB_1071
REMARK  313  A    between atoms: CB_1071  and  CG_1072
REMARK  314  A    between atoms: CG_1072  and  CD_1073
REMARK  315  A    between atoms: N_1082  and  CA_1083
REMARK  316  A    between atoms: CA_1083  and  C_1084
REMARK  317  A    between atoms: CA_1083  and  CB_1086
REMARK  318  A    between atoms: CB_1086  and  CG_1087
REMARK  319  A    between atoms: CG_1087  and  SD_1088
REMARK  320  A    between atoms: SD_1088  and  CE_1089
REMARK  321  A    between atoms: N_1099  and  CA_1100
REMARK  322  A    between atoms: CA_1100  and  C_1101
REMARK  323  A    between atoms: CA_1100  and  CB_1103
REMARK  324  A    between atoms: CB_1103  and  CG_1104
REMARK  325  A    between atoms: N_1123  and  CA_1124
REMARK  326  A    between atoms: CA_1124  and  C_1125
REMARK  327  A    between atoms: CA_1124  and  CB_1127
REMARK  328  A    between atoms: CB_1127  and  CG_1128
REMARK  329  A    between atoms: CG_1128  and  CD1_1129
REMARK  330  A    between atoms: CG_1128  and  CD2_1130
REMARK  331  A    between atoms: N_1142  and  CA_1143
REMARK  332  A    between atoms: CA_1143  and  C_1144
REMARK  333  A    between atoms: CA_1143  and  CB_1146
REMARK  334  A    between atoms: CB_1146  and  CG_1147
REMARK  335  A    between atoms: CG_1147  and  CD_1148
REMARK  336  A    between atoms: N_1159  and  CA_1160
REMARK  337  A    between atoms: CA_1160  and  C_1161
REMARK  338  A    between atoms: N_1166  and  CA_1167
REMARK  339  A    between atoms: CA_1167  and  C_1168
REMARK  340  A    between atoms: CA_1167  and  CB_1170
REMARK  341  A    between atoms: CB_1170  and  CG_1171
REMARK  342  A    between atoms: CA_1184  and  C_1185
REMARK  343  A    between atoms: N_1197  and  CA_1198
REMARK  344  A    between atoms: CA_1198  and  C_1199
REMARK  345  A    between atoms: CA_1198  and  CB_1201
REMARK  346  A    between atoms: CB_1201  and  CG_1202
REMARK  347  A    between atoms: CG_1202  and  CD_1203
REMARK  348  A    between atoms: N_1212  and  CA_1213
REMARK  349  A    between atoms: CA_1213  and  C_1214
REMARK  350  A    between atoms: CA_1213  and  CB_1216
REMARK  351  A    between atoms: CB_1216  and  CG_1217
REMARK  352  A    between atoms: N_1232  and  CA_1233
REMARK  353  A    between atoms: CA_1233  and  C_1234
REMARK  354  A    between atoms: CA_1233  and  CB_1236
REMARK  355  A    between atoms: N_1242  and  CA_1243
REMARK  356  A    between atoms: CA_1243  and  C_1244
REMARK  357  A    between atoms: CA_1243  and  CB_1246
REMARK  358  A    between atoms: CB_1246  and  CG1_1247
REMARK  359  A    between atoms: CB_1246  and  CG2_1248
REMARK  360  A    between atoms: N_1258  and  CA_1259
REMARK  361  A    between atoms: CA_1259  and  C_1260
REMARK  362  A    between atoms: CA_1259  and  CB_1262
REMARK  363  A    between atoms: CB_1262  and  CG_1263
REMARK  364  A    between atoms: CA_1271  and  C_1272
REMARK  365  A    between atoms: N_1284  and  CA_1285
REMARK  366  A    between atoms: CA_1285  and  C_1286
REMARK  367  A    between atoms: CA_1285  and  CB_1288
REMARK  368  A    between atoms: CB_1288  and  CG_1289
REMARK  369  A    between atoms: CG_1289  and  CD_1290
REMARK  370  A    between atoms: CD_1290  and  NE_1291
REMARK  371  A    between atoms: N_1308  and  CA_1309
REMARK  372  A    between atoms: CA_1309  and  C_1310
REMARK  373  A    between atoms: CA_1309  and  CB_1312
REMARK  374  A    between atoms: CB_1312  and  CG_1313
REMARK  375  A    between atoms: N_1328  and  CA_1329
REMARK  376  A    between atoms: CA_1329  and  C_1330
REMARK  377  A    between atoms: CA_1329  and  CB_1332
REMARK  378  A    between atoms: CB_1332  and  CG_1333
REMARK  379  A    between atoms: CG_1333  and  CD1_1334
REMARK  380  A    between atoms: CG_1333  and  CD2_1335
REMARK  381  A    between atoms: N_1347  and  CA_1348
REMARK  382  A    between atoms: CA_1348  and  C_1349
REMARK  383  A    between atoms: CA_1348  and  CB_1351
REMARK  384  A    between atoms: N_1357  and  CA_1358
REMARK  385  A    between atoms: CA_1358  and  C_1359
REMARK  386  A    between atoms: CA_1358  and  CB_1361
REMARK  387  A    between atoms: CB_1361  and  CG_1362
REMARK  388  A    between atoms: CZ_1367  and  OH_1368
REMARK  389  A    between atoms: N_1378  and  CA_1379
REMARK  390  A    between atoms: CA_1379  and  C_1380
REMARK  391  A    between atoms: CA_1379  and  CB_1382
REMARK  392  A    between atoms: CB_1382  and  CG_1383
REMARK  393  A    between atoms: CG_1383  and  SD_1384
REMARK  394  A    between atoms: SD_1384  and  CE_1385
REMARK  395  A    between atoms: N_1395  and  CA_1396
REMARK  396  A    between atoms: CA_1396  and  C_1397
REMARK  397  A    between atoms: CA_1396  and  CB_1399
REMARK  398  A    between atoms: CB_1399  and  CG_1400
REMARK  399  A    between atoms: CG_1400  and  CD_1401
REMARK  400  A    between atoms: N_1410  and  CA_1411
REMARK  401  A    between atoms: CA_1411  and  C_1412
REMARK  402  A    between atoms: CA_1411  and  CB_1414
REMARK  403  A    between atoms: CB_1414  and  CG_1415
REMARK  404  A    between atoms: N_1422  and  CA_1423
REMARK  405  A    between atoms: CA_1423  and  C_1424
REMARK  406  A    between atoms: CA_1423  and  CB_1426
REMARK  407  A    between atoms: CB_1426  and  CG_1427
REMARK  408  A    between atoms: CG_1427  and  CD_1428
REMARK  409  A    between atoms: CD_1428  and  NE_1429
REMARK  410  A    between atoms: N_1446  and  CA_1447
REMARK  411  A    between atoms: CA_1447  and  C_1448
REMARK  412  A    between atoms: CA_1447  and  CB_1450
REMARK  413  A    between atoms: CB_1450  and  CG_1451
REMARK  414  A    between atoms: CG_1451  and  CD_1452
REMARK  415  A    between atoms: CD_1452  and  NE_1453
REMARK  416  A    between atoms: N_1470  and  CA_1471
REMARK  417  A    between atoms: CA_1471  and  C_1472
REMARK  418  A    between atoms: CA_1471  and  CB_1474
REMARK  419  A    between atoms: CB_1474  and  CG_1475
REMARK  420  A    between atoms: CG_1475  and  CD_1476
REMARK  421  A    between atoms: CD_1476  and  CE_1477
REMARK  422  A    between atoms: CE_1477  and  NZ_1478
REMARK  423  A    between atoms: N_1492  and  CA_1493
REMARK  424  A    between atoms: CA_1493  and  C_1494
REMARK  425  A    between atoms: CA_1493  and  CB_1496
REMARK  426  A    between atoms: CB_1496  and  CG_1497
REMARK  427  A    between atoms: CG_1497  and  CD_1498
REMARK  428  A    between atoms: N_1509  and  CA_1510
REMARK  429  A    between atoms: CA_1510  and  C_1511
REMARK  430  A    between atoms: CA_1510  and  CB_1513
REMARK  431  A    between atoms: CB_1513  and  CG_1514
REMARK  432  A    between atoms: CG_1514  and  CD_1515
REMARK  433  A    between atoms: CD_1515  and  CE_1516
REMARK  434  A    between atoms: CE_1516  and  NZ_1517
REMARK                            x       y       z     vdW  Elec       q    Type
REMARK                         _______ _______ _______ _____ _____    ______ ____
ROOT
ATOM      1  C   HIS A  37       5.939 -16.676   1.959  0.00  0.00    +0.000 C 
ATOM      2  O   HIS A  37       6.930 -16.332   2.592  0.00  0.00    +0.000 OA
ENDROOT
TORSDOF 0
REMARK  Name = /Users/acegid/Desktop/Smoking_Research/Docking/Docking_All_PDB/All_PDB/2CKA_H.pdb
REMARK  434 active torsions:
REMARK  status: ('A' for Active; 'I' for Inactive)
REMARK    1  A    between atoms: N_1  and  CA_5
REMARK    2  A    between atoms: CA_5  and  CB_7
REMARK    3  A    between atoms: CA_5  and  C_18
REMARK    4  A    between atoms: CB_7  and  CG_10
REMARK    5  A    between atoms: CG_10  and  SD_13
REMARK    6  A    between atoms: SD_13  and  CE_14
REMARK    7  A    between atoms: N_20  and  CA_22
REMARK    8  A    between atoms: CA_22  and  C_25
REMARK    9  A    between atoms: N_27  and  CA_29
REMARK   10  A    between atoms: CA_29  and  CB_31
REMARK   11  A    between atoms: CA_29  and  C_36
REMARK   12  A    between atoms: CB_31  and  OG_34
REMARK   13  A    between atoms: N_38  and  CA_40
REMARK   14  A    between atoms: CA_40  and  CB_42
REMARK   15  A    between atoms: CA_40  and  C_47
REMARK   16  A    between atoms: CB_42  and  OG_45
REMARK   17  A    between atoms: N_49  and  CA_51
REMARK   18  A    between atoms: CA_51  and  CB_53
REMARK   19  A    between atoms: CA_51  and  C_64
REMARK   20  A    between atoms: CB_53  and  CG_56
REMARK   21  A    between atoms: N_66  and  CA_68
REMARK   22  A    between atoms: CA_68  and  CB_70
REMARK   23  A    between atoms: CA_68  and  C_81
REMARK   24  A    between atoms: CB_70  and  CG_73
REMARK   25  A    between atoms: N_83  and  CA_85
REMARK   26  A    between atoms: CA_85  and  CB_87
REMARK   27  A    between atoms: CA_85  and  C_98
REMARK   28  A    between atoms: CB_87  and  CG_90
REMARK   29  A    between atoms: N_100  and  CA_102
REMARK   30  A    between atoms: CA_102  and  CB_104
REMARK   31  A    between atoms: CA_102  and  C_115
REMARK   32  A    between atoms: CB_104  and  CG_107
REMARK   33  A    between atoms: N_117  and  CA_119
REMARK   34  A    between atoms: CA_119  and  CB_121
REMARK   35  A    between atoms: CA_119  and  C_132
REMARK   36  A    between atoms: CB_121  and  CG_124
REMARK   37  A    between atoms: N_134  and  CA_136
REMARK   38  A    between atoms: CA_136  and  CB_138
REMARK   39  A    between atoms: CA_136  and  C_149
REMARK   40  A    between atoms: CB_138  and  CG_141
REMARK   41  A    between atoms: N_151  and  CA_153
REMARK   42  A    between atoms: CA_153  and  CB_155
REMARK   43  A    between atoms: CA_153  and  C_160
REMARK   44  A    between atoms: CB_155  and  OG_158
REMARK   45  A    between atoms: N_162  and  CA_164
REMARK   46  A    between atoms: CA_164  and  CB_166
REMARK   47  A    between atoms: CA_164  and  C_171
REMARK   48  A    between atoms: CB_166  and  OG_169
REMARK   49  A    between atoms: N_173  and  CA_175
REMARK   50  A    between atoms: CA_175  and  CB_177
REMARK   51  A    between atoms: CA_175  and  C_188
REMARK   52  A    between atoms: CB_177  and  CG_180
REMARK   53  A    between atoms: N_190  and  CA_192
REMARK   54  A    between atoms: CA_192  and  CB_194
REMARK   55  A    between atoms: CA_192  and  C_205
REMARK   56  A    between atoms: CB_194  and  CG_197
REMARK   57  A    between atoms: CG_197  and  SD_200
REMARK   58  A    between atoms: SD_200  and  CE_201
REMARK   59  A    between atoms: N_207  and  CA_209
REMARK   60  A    between atoms: CA_209  and  CB_211
REMARK   61  A    between atoms: CA_209  and  C_224
REMARK   62  A    between atoms: CB_211  and  CG_214
REMARK   63  A    between atoms: CG_214  and  CD1_216
REMARK   64  A    between atoms: CG_214  and  CD2_220
REMARK   65  A    between atoms: N_226  and  CA_228
REMARK   66  A    between atoms: CA_228  and  CB_230
REMARK   67  A    between atoms: CA_228  and  C_240
REMARK   68  A    between atoms: CB_230  and  CG1_232
REMARK   69  A    between atoms: CB_230  and  CG2_236
REMARK   70  A    between atoms: CA_252  and  C_254
REMARK   71  A    between atoms: N_256  and  CA_258
REMARK   72  A    between atoms: CA_258  and  CB_260
REMARK   73  A    between atoms: CA_258  and  C_278
REMARK   74  A    between atoms: CB_260  and  CG_263
REMARK   75  A    between atoms: CG_263  and  CD_266
REMARK   76  A    between atoms: CD_266  and  NE_269
REMARK   77  A    between atoms: N_280  and  CA_282
REMARK   78  A    between atoms: CA_282  and  C_285
REMARK   79  A    between atoms: N_287  and  CA_289
REMARK   80  A    between atoms: CA_289  and  CB_291
REMARK   81  A    between atoms: CA_289  and  C_296
REMARK   82  A    between atoms: CB_291  and  OG_294
REMARK   83  A    between atoms: N_298  and  CA_300
REMARK   84  A    between atoms: CA_300  and  CB_302
REMARK   85  A    between atoms: CA_300  and  C_315
REMARK   86  A    between atoms: CB_302  and  CG_305
REMARK   87  A    between atoms: CG_305  and  CD1_307
REMARK   88  A    between atoms: CG_305  and  CD2_311
REMARK   89  A    between atoms: N_317  and  CA_319
REMARK   90  A    between atoms: CA_319  and  CB_321
REMARK   91  A    between atoms: CA_319  and  C_337
REMARK   92  A    between atoms: CB_321  and  CG_324
REMARK   93  A    between atoms: CG_324  and  CD_327
REMARK   94  A    between atoms: CD_327  and  CE_330
REMARK   95  A    between atoms: CE_330  and  NZ_333
REMARK   96  A    between atoms: N_339  and  CA_341
REMARK   97  A    between atoms: CA_341  and  CB_343
REMARK   98  A    between atoms: CA_341  and  C_359
REMARK   99  A    between atoms: CB_343  and  CG_346
REMARK  100  A    between atoms: CG_346  and  CD_349
REMARK  101  A    between atoms: CD_349  and  CE_352
REMARK  102  A    between atoms: CE_352  and  NZ_355
REMARK  103  A    between atoms: N_361  and  CA_363
REMARK  104  A    between atoms: CA_363  and  CB_365
REMARK  105  A    between atoms: CA_363  and  C_378
REMARK  106  A    between atoms: CB_365  and  CG_368
REMARK  107  A    between atoms: CG_368  and  CD1_370
REMARK  108  A    between atoms: CG_368  and  CD2_374
REMARK  109  A    between atoms: N_380  and  CA_382
REMARK  110  A    between atoms: CA_382  and  CB_384
REMARK  111  A    between atoms: CA_382  and  C_394
REMARK  112  A    between atoms: CB_384  and  CG1_386
REMARK  113  A    between atoms: CB_384  and  CG2_390
REMARK  114  A    between atoms: N_396  and  CA_398
REMARK  115  A    between atoms: CA_398  and  CB_400
REMARK  116  A    between atoms: CA_398  and  C_409
REMARK  117  A    between atoms: CB_400  and  CG_403
REMARK  118  A    between atoms: CG_403  and  CD_406
REMARK  119  A    between atoms: N_411  and  CA_413
REMARK  120  A    between atoms: CA_413  and  CB_415
REMARK  121  A    between atoms: CA_413  and  C_428
REMARK  122  A    between atoms: CB_415  and  CG_418
REMARK  123  A    between atoms: CG_418  and  CD1_420
REMARK  124  A    between atoms: CG_418  and  CD2_424
REMARK  125  A    between atoms: N_430  and  CA_432
REMARK  126  A    between atoms: CA_432  and  CB_434
REMARK  127  A    between atoms: CA_432  and  C_443
REMARK  128  A    between atoms: CB_434  and  CG_437
REMARK  129  A    between atoms: CG_437  and  CD_440
REMARK  130  A    between atoms: N_445  and  CA_447
REMARK  131  A    between atoms: CA_447  and  CB_449
REMARK  132  A    between atoms: CA_447  and  C_459
REMARK  133  A    between atoms: CB_449  and  CG1_451
REMARK  134  A    between atoms: CB_449  and  CG2_455
REMARK  135  A    between atoms: N_461  and  CA_463
REMARK  136  A    between atoms: CA_463  and  CB_465
REMARK  137  A    between atoms: CA_463  and  C_474
REMARK  138  A    between atoms: CB_465  and  CG_468
REMARK  139  A    between atoms: CG_468  and  CD_471
REMARK  140  A    between atoms: N_476  and  CA_478
REMARK  141  A    between atoms: CA_478  and  CB_480
REMARK  142  A    between atoms: CA_478  and  C_485
REMARK  143  A    between atoms: CB_480  and  SG_483
REMARK  144  A    between atoms: N_487  and  CA_489
REMARK  145  A    between atoms: CA_489  and  CB_491
REMARK  146  A    between atoms: CA_489  and  C_502
REMARK  147  A    between atoms: CB_491  and  CG_494
REMARK  148  A    between atoms: CG_494  and  SD_497
REMARK  149  A    between atoms: SD_497  and  CE_498
REMARK  150  A    between atoms: N_504  and  CA_506
REMARK  151  A    between atoms: CA_506  and  CB_508
REMARK  152  A    between atoms: CA_506  and  C_517
REMARK  153  A    between atoms: CB_508  and  CG_511
REMARK  154  A    between atoms: CG_511  and  CD_514
REMARK  155  A    between atoms: N_519  and  CA_521
REMARK  156  A    between atoms: CA_521  and  CB_523
REMARK  157  A    between atoms: CA_521  and  C_532
REMARK  158  A    between atoms: CB_523  and  CG_526
REMARK  159  A    between atoms: CG_526  and  CD_529
REMARK  160  A    between atoms: CA_544  and  C_546
REMARK  161  A    between atoms: N_548  and  CA_550
REMARK  162  A    between atoms: CA_550  and  CB_552
REMARK  163  A    between atoms: CA_550  and  C_560
REMARK  164  A    between atoms: CB_552  and  CG_555
REMARK  165  A    between atoms: N_562  and  CA_564
REMARK  166  A    between atoms: CB_566  and  CG_569
REMARK  167  A    between atoms: CA_580  and  C_581
REMARK  168  A    between atoms: CA_580  and  CB_583
REMARK  169  A    between atoms: CB_583  and  CG_584
REMARK  170  A    between atoms: CG_584  and  CD1_585
REMARK  171  A    between atoms: CG_584  and  CD2_586
REMARK  172  A    between atoms: N_598  and  CA_599
REMARK  173  A    between atoms: CA_599  and  C_600
REMARK  174  A    between atoms: CA_599  and  CB_602
REMARK  175  A    between atoms: CB_602  and  CG_603
REMARK  176  A    between atoms: N_610  and  CA_611
REMARK  177  A    between atoms: CA_611  and  C_612
REMARK  178  A    between atoms: CA_611  and  CB_614
REMARK  179  A    between atoms: CB_614  and  CG1_615
REMARK  180  A    between atoms: CB_614  and  CG2_616
REMARK  181  A    between atoms: N_626  and  CA_627
REMARK  182  A    between atoms: CA_627  and  C_628
REMARK  183  A    between atoms: CA_627  and  CB_630
REMARK  184  A    between atoms: CB_630  and  CG_631
REMARK  185  A    between atoms: N_638  and  CA_639
REMARK  186  A    between atoms: CA_639  and  C_640
REMARK  187  A    between atoms: CA_639  and  CB_642
REMARK  188  A    between atoms: CB_642  and  CG_643
REMARK  189  A    between atoms: CG_643  and  CD1_644
REMARK  190  A    between atoms: CG_643  and  CD2_645
REMARK  191  A    between atoms: N_657  and  CA_658
REMARK  192  A    between atoms: CA_658  and  C_659
REMARK  193  A    between atoms: CA_658  and  CB_661
REMARK  194  A    between atoms: CB_661  and  CG_662
REMARK  195  A    between atoms: CG_662  and  CD_663
REMARK  196  A    between atoms: N_672  and  CA_673
REMARK  197  A    between atoms: CA_673  and  C_674
REMARK  198  A    between atoms: CA_673  and  CB_676
REMARK  199  A    between atoms: CB_676  and  OG1_677
REMARK  200  A    between atoms: CB_676  and  CG2_678
REMARK  201  A    between atoms: N_686  and  CA_687
REMARK  202  A    between atoms: CA_687  and  C_688
REMARK  203  A    between atoms: CA_687  and  CB_690
REMARK  204  A    between atoms: CB_690  and  CG_691
REMARK  205  A    between atoms: CG_691  and  CD_692
REMARK  206  A    between atoms: CD_692  and  NE_693
REMARK  207  A    between atoms: N_710  and  CA_711
REMARK  208  A    between atoms: CA_711  and  C_712
REMARK  209  A    between atoms: CA_711  and  CB_714
REMARK  210  A    between atoms: CB_714  and  CG1_715
REMARK  211  A    between atoms: CB_714  and  CG2_716
REMARK  212  A    between atoms: CG1_715  and  CD1_717
REMARK  213  A    between atoms: CA_730  and  C_731
REMARK  214  A    between atoms: N_743  and  CA_744
REMARK  215  A    between atoms: CA_744  and  C_745
REMARK  216  A    between atoms: CA_744  and  CB_747
REMARK  217  A    between atoms: CB_747  and  CG1_748
REMARK  218  A    between atoms: CB_747  and  CG2_749
REMARK  219  A    between atoms: N_759  and  CA_760
REMARK  220  A    between atoms: CA_760  and  C_761
REMARK  221  A    between atoms: CA_760  and  CB_763
REMARK  222  A    between atoms: CB_763  and  CG1_764
REMARK  223  A    between atoms: CB_763  and  CG2_765
REMARK  224  A    between atoms: CG1_764  and  CD1_766
REMARK  225  A    between atoms: N_778  and  CA_779
REMARK  226  A    between atoms: CA_779  and  C_780
REMARK  227  A    between atoms: CA_779  and  CB_782
REMARK  228  A    between atoms: CB_782  and  CG_783
REMARK  229  A    between atoms: N_792  and  CA_793
REMARK  230  A    between atoms: CA_793  and  C_794
REMARK  231  A    between atoms: CA_793  and  CB_796
REMARK  232  A    between atoms: CB_796  and  CG_797
REMARK  233  A    between atoms: CG_797  and  CD_798
REMARK  234  A    between atoms: CD_798  and  CE_799
REMARK  235  A    between atoms: CE_799  and  NZ_800
REMARK  236  A    between atoms: N_814  and  CA_815
REMARK  237  A    between atoms: CA_815  and  C_816
REMARK  238  A    between atoms: CA_815  and  CB_818
REMARK  239  A    between atoms: CB_818  and  CG1_819
REMARK  240  A    between atoms: CB_818  and  CG2_820
REMARK  241  A    between atoms: N_830  and  CA_831
REMARK  242  A    between atoms: CA_831  and  C_832
REMARK  243  A    between atoms: CA_831  and  CB_834
REMARK  244  A    between atoms: CB_834  and  CG_835
REMARK  245  A    between atoms: N_842  and  CA_843
REMARK  246  A    between atoms: CA_843  and  C_844
REMARK  247  A    between atoms: N_849  and  CA_850
REMARK  248  A    between atoms: CA_850  and  C_851
REMARK  249  A    between atoms: CA_850  and  CB_853
REMARK  250  A    between atoms: CB_853  and  OG1_854
REMARK  251  A    between atoms: CB_853  and  CG2_855
REMARK  252  A    between atoms: N_863  and  CA_864
REMARK  253  A    between atoms: CA_864  and  C_865
REMARK  254  A    between atoms: CA_864  and  CB_867
REMARK  255  A    between atoms: CB_867  and  CG_868
REMARK  256  A    between atoms: CG_868  and  CD1_869
REMARK  257  A    between atoms: CG_868  and  CD2_870
REMARK  258  A    between atoms: N_882  and  CA_883
REMARK  259  A    between atoms: CA_883  and  C_884
REMARK  260  A    between atoms: CA_883  and  CB_886
REMARK  261  A    between atoms: CB_886  and  CG_887
REMARK  262  A    between atoms: CG_887  and  CD1_888
REMARK  263  A    between atoms: CG_887  and  CD2_889
REMARK  264  A    between atoms: N_901  and  CA_902
REMARK  265  A    between atoms: CA_902  and  C_903
REMARK  266  A    between atoms: CA_902  and  CB_905
REMARK  267  A    between atoms: CB_905  and  CG1_906
REMARK  268  A    between atoms: CB_905  and  CG2_907
REMARK  269  A    between atoms: N_917  and  CA_918
REMARK  270  A    between atoms: CA_918  and  C_919
REMARK  271  A    between atoms: N_924  and  CA_925
REMARK  272  A    between atoms: CA_925  and  C_926
REMARK  273  A    between atoms: CA_925  and  CB_928
REMARK  274  A    between atoms: CB_928  and  CG_929
REMARK  275  A    between atoms: CG_929  and  CD_930
REMARK  276  A    between atoms: N_939  and  CA_940
REMARK  277  A    between atoms: CA_940  and  C_941
REMARK  278  A    between atoms: CA_940  and  CB_943
REMARK  279  A    between atoms: CB_943  and  CG_944
REMARK  280  A    between atoms: N_951  and  CA_952
REMARK  281  A    between atoms: CA_952  and  C_953
REMARK  282  A    between atoms: CA_952  and  CB_955
REMARK  283  A    between atoms: CA_962  and  C_963
REMARK  284  A    between atoms: N_975  and  CA_976
REMARK  285  A    between atoms: CA_976  and  C_977
REMARK  286  A    between atoms: CA_976  and  CB_979
REMARK  287  A    between atoms: CB_979  and  CG_980
REMARK  288  A    between atoms: CG_980  and  CD_981
REMARK  289  A    between atoms: CD_981  and  NE_982
REMARK  290  A    between atoms: N_999  and  CA_1000
REMARK  291  A    between atoms: CA_1000  and  C_1001
REMARK  292  A    between atoms: CA_1000  and  CB_1003
REMARK  293  A    between atoms: CB_1003  and  CG_1004
REMARK  294  A    between atoms: CG_1004  and  CD_1005
REMARK  295  A    between atoms: CD_1005  and  NE_1006
REMARK  296  A    between atoms: N_1023  and  CA_1024
REMARK  297  A    between atoms: CA_1024  and  C_1025
REMARK  298  A    between atoms: CA_1024  and  CB_1027
REMARK  299  A    between atoms: N_1033  and  CA_1034
REMARK  300  A    between atoms: CA_1034  and  C_1035
REMARK  301  A    between atoms: CA_1034  and  CB_1037
REMARK  302  A    between atoms: CB_1037  and  CG_1038
REMARK  303  A    between atoms: CG_1038  and  CD_1039
REMARK  304  A    between atoms: N_1048  and  CA_1049
REMARK  305  A    between atoms: CA_1049  and  C_1050
REMARK  306  A    between atoms: CA_1049  and  CB_1052
REMARK  307  A    between atoms: CB_1052  and  CG_1053
REMARK  308  A    between atoms: CG_1053  and  CD1_1054
REMARK  309  A    between atoms: CG_1053  and  CD2_1055
REMARK  310  A    between atoms: N_1067  and  CA_1068
REMARK  311  A    between atoms: CA_1068  and  C_1069
REMARK  312  A    between atoms: CA_1068  and  CB_1071
REMARK  313  A    between atoms: CB_1071  and  CG_1072
REMARK  314  A    between atoms: CG_1072  and  CD_1073
REMARK  315  A    between atoms: N_1082  and  CA_1083
REMARK  316  A    between atoms: CA_1083  and  C_1084
REMARK  317  A    between atoms: CA_1083  and  CB_1086
REMARK  318  A    between atoms: CB_1086  and  CG_1087
REMARK  319  A    between atoms: CG_1087  and  SD_1088
REMARK  320  A    between atoms: SD_1088  and  CE_1089
REMARK  321  A    between atoms: N_1099  and  CA_1100
REMARK  322  A    between atoms: CA_1100  and  C_1101
REMARK  323  A    between atoms: CA_1100  and  CB_1103
REMARK  324  A    between atoms: CB_1103  and  CG_1104
REMARK  325  A    between atoms: N_1123  and  CA_1124
REMARK  326  A    between atoms: CA_1124  and  C_1125
REMARK  327  A    between atoms: CA_1124  and  CB_1127
REMARK  328  A    between atoms: CB_1127  and  CG_1128
REMARK  329  A    between atoms: CG_1128  and  CD1_1129
REMARK  330  A    between atoms: CG_1128  and  CD2_1130
REMARK  331  A    between atoms: N_1142  and  CA_1143
REMARK  332  A    between atoms: CA_1143  and  C_1144
REMARK  333  A    between atoms: CA_1143  and  CB_1146
REMARK  334  A    between atoms: CB_1146  and  CG_1147
REMARK  335  A    between atoms: CG_1147  and  CD_1148
REMARK  336  A    between atoms: N_1159  and  CA_1160
REMARK  337  A    between atoms: CA_1160  and  C_1161
REMARK  338  A    between atoms: N_1166  and  CA_1167
REMARK  339  A    between atoms: CA_1167  and  C_1168
REMARK  340  A    between atoms: CA_1167  and  CB_1170
REMARK  341  A    between atoms: CB_1170  and  CG_1171
REMARK  342  A    between atoms: CA_1184  and  C_1185
REMARK  343  A    between atoms: N_1197  and  CA_1198
REMARK  344  A    between atoms: CA_1198  and  C_1199
REMARK  345  A    between atoms: CA_1198  and  CB_1201
REMARK  346  A    between atoms: CB_1201  and  CG_1202
REMARK  347  A    between atoms: CG_1202  and  CD_1203
REMARK  348  A    between atoms: N_1212  and  CA_1213
REMARK  349  A    between atoms: CA_1213  and  C_1214
REMARK  350  A    between atoms: CA_1213  and  CB_1216
REMARK  351  A    between atoms: CB_1216  and  CG_1217
REMARK  352  A    between atoms: N_1232  and  CA_1233
REMARK  353  A    between atoms: CA_1233  and  C_1234
REMARK  354  A    between atoms: CA_1233  and  CB_1236
REMARK  355  A    between atoms: N_1242  and  CA_1243
REMARK  356  A    between atoms: CA_1243  and  C_1244
REMARK  357  A    between atoms: CA_1243  and  CB_1246
REMARK  358  A    between atoms: CB_1246  and  CG1_1247
REMARK  359  A    between atoms: CB_1246  and  CG2_1248
REMARK  360  A    between atoms: N_1258  and  CA_1259
REMARK  361  A    between atoms: CA_1259  and  C_1260
REMARK  362  A    between atoms: CA_1259  and  CB_1262
REMARK  363  A    between atoms: CB_1262  and  CG_1263
REMARK  364  A    between atoms: CA_1271  and  C_1272
REMARK  365  A    between atoms: N_1284  and  CA_1285
REMARK  366  A    between atoms: CA_1285  and  C_1286
REMARK  367  A    between atoms: CA_1285  and  CB_1288
REMARK  368  A    between atoms: CB_1288  and  CG_1289
REMARK  369  A    between atoms: CG_1289  and  CD_1290
REMARK  370  A    between atoms: CD_1290  and  NE_1291
REMARK  371  A    between atoms: N_1308  and  CA_1309
REMARK  372  A    between atoms: CA_1309  and  C_1310
REMARK  373  A    between atoms: CA_1309  and  CB_1312
REMARK  374  A    between atoms: CB_1312  and  CG_1313
REMARK  375  A    between atoms: N_1328  and  CA_1329
REMARK  376  A    between atoms: CA_1329  and  C_1330
REMARK  377  A    between atoms: CA_1329  and  CB_1332
REMARK  378  A    between atoms: CB_1332  and  CG_1333
REMARK  379  A    between atoms: CG_1333  and  CD1_1334
REMARK  380  A    between atoms: CG_1333  and  CD2_1335
REMARK  381  A    between atoms: N_1347  and  CA_1348
REMARK  382  A    between atoms: CA_1348  and  C_1349
REMARK  383  A    between atoms: CA_1348  and  CB_1351
REMARK  384  A    between atoms: N_1357  and  CA_1358
REMARK  385  A    between atoms: CA_1358  and  C_1359
REMARK  386  A    between atoms: CA_1358  and  CB_1361
REMARK  387  A    between atoms: CB_1361  and  CG_1362
REMARK  388  A    between atoms: CZ_1367  and  OH_1368
REMARK  389  A    between atoms: N_1378  and  CA_1379
REMARK  390  A    between atoms: CA_1379  and  C_1380
REMARK  391  A    between atoms: CA_1379  and  CB_1382
REMARK  392  A    between atoms: CB_1382  and  CG_1383
REMARK  393  A    between atoms: CG_1383  and  SD_1384
REMARK  394  A    between atoms: SD_1384  and  CE_1385
REMARK  395  A    between atoms: N_1395  and  CA_1396
REMARK  396  A    between atoms: CA_1396  and  C_1397
REMARK  397  A    between atoms: CA_1396  and  CB_1399
REMARK  398  A    between atoms: CB_1399  and  CG_1400
REMARK  399  A    between atoms: CG_1400  and  CD_1401
REMARK  400  A    between atoms: N_1410  and  CA_1411
REMARK  401  A    between atoms: CA_1411  and  C_1412
REMARK  402  A    between atoms: CA_1411  and  CB_1414
REMARK  403  A    between atoms: CB_1414  and  CG_1415
REMARK  404  A    between atoms: N_1422  and  CA_1423
REMARK  405  A    between atoms: CA_1423  and  C_1424
REMARK  406  A    between atoms: CA_1423  and  CB_1426
REMARK  407  A    between atoms: CB_1426  and  CG_1427
REMARK  408  A    between atoms: CG_1427  and  CD_1428
REMARK  409  A    between atoms: CD_1428  and  NE_1429
REMARK  410  A    between atoms: N_1446  and  CA_1447
REMARK  411  A    between atoms: CA_1447  and  C_1448
REMARK  412  A    between atoms: CA_1447  and  CB_1450
REMARK  413  A    between atoms: CB_1450  and  CG_1451
REMARK  414  A    between atoms: CG_1451  and  CD_1452
REMARK  415  A    between atoms: CD_1452  and  NE_1453
REMARK  416  A    between atoms: N_1470  and  CA_1471
REMARK  417  A    between atoms: CA_1471  and  C_1472
REMARK  418  A    between atoms: CA_1471  and  CB_1474
REMARK  419  A    between atoms: CB_1474  and  CG_1475
REMARK  420  A    between atoms: CG_1475  and  CD_1476
REMARK  421  A    between atoms: CD_1476  and  CE_1477
REMARK  422  A    between atoms: CE_1477  and  NZ_1478
REMARK  423  A    between atoms: N_1492  and  CA_1493
REMARK  424  A    between atoms: CA_1493  and  C_1494
REMARK  425  A    between atoms: CA_1493  and  CB_1496
REMARK  426  A    between atoms: CB_1496  and  CG_1497
REMARK  427  A    between atoms: CG_1497  and  CD_1498
REMARK  428  A    between atoms: N_1509  and  CA_1510
REMARK  429  A    between atoms: CA_1510  and  C_1511
REMARK  430  A    between atoms: CA_1510  and  CB_1513
REMARK  431  A    between atoms: CB_1513  and  CG_1514
REMARK  432  A    between atoms: CG_1514  and  CD_1515
REMARK  433  A    between atoms: CD_1515  and  CE_1516
REMARK  434  A    between atoms: CE_1516  and  NZ_1517
REMARK                            x       y       z     vdW  Elec       q    Type
REMARK                         _______ _______ _______ _____ _____    ______ ____
ROOT
ATOM      1  C   LEU A  68       7.757   3.666   0.031  0.00  0.00    +0.000 C 
ATOM      2  O   LEU A  68       7.369   4.731   0.517  0.00  0.00    +0.000 OA
ATOM      3  N   GLU A  69       8.700   2.910   0.575  0.00  0.00    +0.000 N 
ATOM      4  H   GLU A  69       8.977   2.100   0.101  0.00  0.00    +0.000 HD
ENDROOT
BRANCH   3   5
ATOM      5  CA  GLU A  69       9.334   3.228   1.849  0.00  0.00    +0.000 C 
BRANCH   5   6
ATOM      6  C   GLU A  69       9.919   4.660   1.812  0.00  0.00    +0.000 C 
ATOM      7  O   GLU A  69       9.569   5.512   2.627  0.00  0.00    +0.000 OA
ATOM      8  N   MET A  70      10.743   4.927   0.817  0.00  0.00    +0.000 N 
ATOM      9  H   MET A  70      10.898   4.226   0.147  0.00  0.00    +0.000 HD
BRANCH   8  10
ATOM     10  CA  MET A  70      11.388   6.233   0.669  0.00  0.00    +0.000 C 
BRANCH  10  11
ATOM     11  C   MET A  70      10.406   7.271   0.159  0.00  0.00    +0.000 C 
ATOM     12  O   MET A  70      10.486   8.450   0.514  0.00  0.00    +0.000 OA
ATOM     13  N   TRP A  71       9.478   6.823  -0.654  0.00  0.00    +0.000 N 
ATOM     14  H   TRP A  71       9.451   5.857  -0.839  0.00  0.00    +0.000 HD
BRANCH  13  15
ATOM     15  CA  TRP A  71       8.495   7.670  -1.303  0.00  0.00    +0.000 C 
BRANCH  15  16
ATOM     16  C   TRP A  71       7.611   8.364  -0.254  0.00  0.00    +0.000 C 
ATOM     17  O   TRP A  71       7.384   9.581  -0.316  0.00  0.00    +0.000 OA
ATOM     18  N   LEU A  72       7.161   7.593   0.727  0.00  0.00    +0.000 N 
ATOM     19  H   LEU A  72       7.359   6.631   0.709  0.00  0.00    +0.000 HD
BRANCH  18  20
ATOM     20  CA  LEU A  72       6.349   8.122   1.824  0.00  0.00    +0.000 C 
BRANCH  20  21
ATOM     21  C   LEU A  72       7.158   9.044   2.729  0.00  0.00    +0.000 C 
ATOM     22  O   LEU A  72       6.619   9.986   3.310  0.00  0.00    +0.000 OA
ATOM     23  N   GLN A  73       8.444   8.758   2.881  0.00  0.00    +0.000 N 
ATOM     24  H   GLN A  73       8.825   7.969   2.440  0.00  0.00    +0.000 HD
BRANCH  23  25
ATOM     25  CA  GLN A  73       9.323   9.592   3.689  0.00  0.00    +0.000 C 
BRANCH  25  26
ATOM     26  C   GLN A  73       9.413  11.015   3.132  0.00  0.00    +0.000 C 
ATOM     27  O   GLN A  73       9.515  11.979   3.885  0.00  0.00    +0.000 OA
ATOM     28  N   GLY A  74       9.349  11.134   1.821  0.00  0.00    +0.000 N 
ATOM     29  H   GLY A  74       9.249  10.324   1.277  0.00  0.00    +0.000 HD
BRANCH  28  30
ATOM     30  CA  GLY A  74       9.434  12.433   1.188  0.00  0.00    +0.000 C 
BRANCH  30  31
ATOM     31  C   GLY A  74       8.149  13.226   1.320  0.00  0.00    +0.000 C 
ATOM     32  O   GLY A  74       8.177  14.460   1.458  0.00  0.00    +0.000 OA
ATOM     33  N   HIS A  75       7.032  12.526   1.344  0.00  0.00    +0.000 N 
ATOM     34  H   HIS A  75       7.077  11.551   1.398  0.00  0.00    +0.000 HD
BRANCH  33  35
ATOM     35  CA  HIS A  75       5.715  13.137   1.402  0.00  0.00    +0.000 C 
BRANCH  35  36
ATOM     36  C   HIS A  75       4.803  12.349   2.311  0.00  0.00    +0.000 C 
ATOM     37  O   HIS A  75       4.130  11.415   1.875  0.00  0.00    +0.000 OA
ATOM     38  N   PRO A  76       4.776  12.704   3.606  0.00  0.00    +0.000 N 
ATOM     39  CA  PRO A  76       3.923  12.039   4.604  0.00  0.00    +0.000 C 
ATOM     40  CB  PRO A  76       4.379  12.619   5.939  0.00  0.00    +0.000 C 
ATOM     41  CG  PRO A  76       5.118  13.870   5.606  0.00  0.00    +0.000 C 
ATOM     42  CD  PRO A  76       5.608  13.751   4.202  0.00  0.00    +0.000 C 
BRANCH  39  43
ATOM     43  C   PRO A  76       2.436  12.321   4.378  0.00  0.00    +0.000 C 
ATOM     44  O   PRO A  76       1.577  11.823   5.111  0.00  0.00    +0.000 OA
ATOM     45  N   GLU A  77       2.156  13.139   3.365  0.00  0.00    +0.000 N 
ATOM     46  H   GLU A  77       2.920  13.545   2.908  0.00  0.00    +0.000 HD
BRANCH  45  47
ATOM     47  CA  GLU A  77       0.809  13.437   2.925  0.00  0.00    +0.000 C 
BRANCH  47  48
ATOM     48  C   GLU A  77       0.144  12.155   2.476  0.00  0.00    +0.000 C 
ATOM     49  O   GLU A  77      -1.040  11.958   2.664  0.00  0.00    +0.000 OA
ATOM     50  N   PHE A  78       0.927  11.302   1.866  0.00  0.00    +0.000 N 
ATOM     51  H   PHE A  78       1.884  11.499   1.778  0.00  0.00    +0.000 HD
BRANCH  50  52
ATOM     52  CA  PHE A  78       0.444  10.053   1.384  0.00  0.00    +0.000 C 
BRANCH  52  53
ATOM     53  C   PHE A  78       0.691   8.983   2.397  0.00  0.00    +0.000 C 
ATOM     54  O   PHE A  78       1.680   9.020   3.137  0.00  0.00    +0.000 OA
ATOM     55  N   ALA A  79      -0.204   8.067   2.448  0.00  0.00    +0.000 N 
ATOM     56  H   ALA A  79      -1.012   8.152   1.892  0.00  0.00    +0.000 HD
BRANCH  55  57
ATOM     57  CA  ALA A  79      -0.091   6.911   3.266  0.00  0.00    +0.000 C 
ATOM     58  CB  ALA A  79      -0.835   7.097   4.570  0.00  0.00    +0.000 C 
BRANCH  57  59
ATOM     59  C   ALA A  79      -0.670   5.780   2.486  0.00  0.00    +0.000 C 
ATOM     60  O   ALA A  79      -1.226   6.010   1.404  0.00  0.00    +0.000 OA
ATOM     61  N   VAL A  80      -0.556   4.587   2.992  0.00  0.00    +0.000 N 
ATOM     62  H   VAL A  80      -0.128   4.463   3.864  0.00  0.00    +0.000 HD
BRANCH  61  63
ATOM     63  CA  VAL A  80      -1.079   3.433   2.314  0.00  0.00    +0.000 C 
BRANCH  63  64
ATOM     64  C   VAL A  80      -2.601   3.436   2.379  0.00  0.00    +0.000 C 
ATOM     65  O   VAL A  80      -3.188   4.007   3.314  0.00  0.00    +0.000 OA
ATOM     66  N   ASP A  81      -3.225   2.873   1.372  0.00  0.00    +0.000 N 
ATOM     67  H   ASP A  81      -2.714   2.537   0.601  0.00  0.00    +0.000 HD
BRANCH  66  68
ATOM     68  CA  ASP A  81      -4.667   2.745   1.340  0.00  0.00    +0.000 C 
BRANCH  68  69
ATOM     69  C   ASP A  81      -5.138   1.847   2.477  0.00  0.00    +0.000 C 
ATOM     70  O   ASP A  81      -4.690   0.695   2.594  0.00  0.00    +0.000 OA
ATOM     71  N   PRO A  82      -6.021   2.358   3.353  0.00  0.00    +0.000 N 
ATOM     72  CA  PRO A  82      -6.524   1.601   4.494  0.00  0.00    +0.000 C 
ATOM     73  CB  PRO A  82      -7.440   2.578   5.220  0.00  0.00    +0.000 C 
ATOM     74  CG  PRO A  82      -7.060   3.923   4.722  0.00  0.00    +0.000 C 
ATOM     75  CD  PRO A  82      -6.570   3.726   3.323  0.00  0.00    +0.000 C 
BRANCH  72  76
ATOM     76  C   PRO A  82      -7.305   0.358   4.085  0.00  0.00    +0.000 C 
ATOM     77  O   PRO A  82      -7.359  -0.620   4.831  0.00  0.00    +0.000 OA
ATOM     78  N   ARG A  83      -7.885   0.370   2.896  0.00  0.00    +0.000 N 
ATOM     79  H   ARG A  83      -7.799   1.160   2.314  0.00  0.00    +0.000 HD
BRANCH  78  80
ATOM     80  CA  ARG A  83      -8.626  -0.778   2.430  0.00  0.00    +0.000 C 
BRANCH  80  81
ATOM     81  C   ARG A  83      -7.651  -1.885   2.025  0.00  0.00    +0.000 C 
ATOM     82  O   ARG A  83      -7.964  -3.057   2.116  0.00  0.00    +0.000 OA
ATOM     83  N   PHE A  84      -6.468  -1.496   1.591  0.00  0.00    +0.000 N 
ATOM     84  H   PHE A  84      -6.328  -0.533   1.430  0.00  0.00    +0.000 HD
BRANCH  83  85
ATOM     85  CA  PHE A  84      -5.408  -2.436   1.284  0.00  0.00    +0.000 C 
BRANCH  85  86
ATOM     86  C   PHE A  84      -4.932  -3.078   2.583  0.00  0.00    +0.000 C 
ATOM     87  O   PHE A  84      -4.560  -4.251   2.621  0.00  0.00    +0.000 OA
ATOM     88  N   LEU A  85      -4.981  -2.313   3.658  0.00  0.00    +0.000 N 
ATOM     89  H   LEU A  85      -5.224  -1.369   3.547  0.00  0.00    +0.000 HD
BRANCH  88  90
ATOM     90  CA  LEU A  85      -4.667  -2.851   4.964  0.00  0.00    +0.000 C 
BRANCH  90  91
ATOM     91  C   LEU A  85      -5.769  -3.811   5.396  0.00  0.00    +0.000 C 
ATOM     92  O   LEU A  85      -5.495  -4.868   5.938  0.00  0.00    +0.000 OA
ATOM     93  N   ALA A  86      -7.010  -3.452   5.093  0.00  0.00    +0.000 N 
ATOM     94  H   ALA A  86      -7.154  -2.560   4.706  0.00  0.00    +0.000 HD
BRANCH  93  95
ATOM     95  CA  ALA A  86      -8.162  -4.311   5.360  0.00  0.00    +0.000 C 
ATOM     96  CB  ALA A  86      -9.456  -3.567   5.077  0.00  0.00    +0.000 C 
BRANCH  95  97
ATOM     97  C   ALA A  86      -8.075  -5.591   4.518  0.00  0.00    +0.000 C 
ATOM     98  O   ALA A  86      -8.528  -6.654   4.922  0.00  0.00    +0.000 OA
ATOM     99  N   TYR A  87      -7.469  -5.470   3.357  0.00  0.00    +0.000 N 
ATOM    100  H   TYR A  87      -7.211  -4.569   3.063  0.00  0.00    +0.000 HD
BRANCH  99 101
ATOM    101  CA  TYR A  87      -7.223  -6.585   2.473  0.00  0.00    +0.000 C 
BRANCH 101 102
ATOM    102  C   TYR A  87      -6.196  -7.538   3.105  0.00  0.00    +0.000 C 
ATOM    103  O   TYR A  87      -6.268  -8.762   2.927  0.00  0.00    +0.000 OA
ATOM    104  N   MET A  88      -5.255  -6.973   3.845  0.00  0.00    +0.000 N 
ATOM    105  H   MET A  88      -5.217  -5.992   3.892  0.00  0.00    +0.000 HD
BRANCH 104 106
ATOM    106  CA  MET A  88      -4.280  -7.768   4.577  0.00  0.00    +0.000 C 
BRANCH 106 107
ATOM    107  C   MET A  88      -4.919  -8.418   5.795  0.00  0.00    +0.000 C 
ATOM    108  O   MET A  88      -4.501  -9.488   6.222  0.00  0.00    +0.000 OA
ATOM    109  N   GLU A  89      -5.939  -7.767   6.345  0.00  0.00    +0.000 N 
ATOM    110  H   GLU A  89      -6.140  -6.864   6.018  0.00  0.00    +0.000 HD
BRANCH 109 111
ATOM    111  CA  GLU A  89      -6.736  -8.343   7.439  0.00  0.00    +0.000 C 
BRANCH 111 112
ATOM    112  C   GLU A  89      -7.500  -9.544   6.884  0.00  0.00    +0.000 C 
ATOM    113  O   GLU A  89      -7.627 -10.607   7.521  0.00  0.00    +0.000 OA
ATOM    114  N   ASP A  90      -8.004  -9.348   5.684  0.00  0.00    +0.000 N 
ATOM    115  H   ASP A  90      -7.888  -8.455   5.293  0.00  0.00    +0.000 HD
BRANCH 114 116
ATOM    116  CA  ASP A  90      -8.751 -10.346   4.937  0.00  0.00    +0.000 C 
BRANCH 116 117
ATOM    117  C   ASP A  90      -7.868 -11.554   4.642  0.00  0.00    +0.000 C 
ATOM    118  O   ASP A  90      -8.298 -12.703   4.777  0.00  0.00    +0.000 OA
ATOM    119  N   ARG A  91      -6.630 -11.286   4.256  0.00  0.00    +0.000 N 
ATOM    120  H   ARG A  91      -6.365 -10.346   4.157  0.00  0.00    +0.000 HD
BRANCH 119 121
ATOM    121  CA  ARG A  91      -5.663 -12.332   3.980  0.00  0.00    +0.000 C 
BRANCH 121 122
ATOM    122  C   ARG A  91      -5.275 -13.039   5.273  0.00  0.00    +0.000 C 
ATOM    123  O   ARG A  91      -4.596 -12.476   6.143  0.00  0.00    +0.000 OA
ATOM    124  N   ARG A  92      -5.722 -14.250   5.404  0.00  0.00    +0.000 N 
ATOM    125  H   ARG A  92      -6.230 -14.659   4.671  0.00  0.00    +0.000 HD
BRANCH 124 126
ATOM    126  CA  ARG A  92      -5.487 -15.035   6.577  0.00  0.00    +0.000 C 
BRANCH 126 127
ATOM    127  C   ARG A  92      -4.947 -16.393   6.192  0.00  0.00    +0.000 C 
ATOM    128  O   ARG A  92      -4.957 -16.754   5.010  0.00  0.00    +0.000 OA
ATOM    129  N   LYS A  93      -4.471 -17.121   7.160  0.00  0.00    +0.000 N 
ATOM    130  H   LYS A  93      -4.588 -16.824   8.088  0.00  0.00    +0.000 HD
BRANCH 129 131
ATOM    131  CA  LYS A  93      -3.775 -18.369   6.915  0.00  0.00    +0.000 C 
BRANCH 131 132
ATOM    132  C   LYS A  93      -4.441 -19.574   7.574  0.00  0.00    +0.000 C 
ATOM    133  O   LYS A  93      -4.100 -20.722   7.263  0.00  0.00    +0.000 OA
ATOM    134  N   GLN A  94      -5.363 -19.331   8.472  0.00  0.00    +0.000 N 
ATOM    135  H   GLN A  94      -5.602 -18.413   8.724  0.00  0.00    +0.000 HD
BRANCH 134 136
ATOM    136  CA  GLN A  94      -6.092 -20.394   9.127  0.00  0.00    +0.000 C 
BRANCH 136 137
ATOM    137  C   GLN A  94      -7.529 -19.986   9.283  0.00  0.00    +0.000 C 
ATOM    138  O   GLN A  94      -7.856 -18.802   9.184  0.00  0.00    +0.000 OA
ATOM    139  N   LYS A  95      -8.387 -20.945   9.495  0.00  0.00    +0.000 N 
ATOM    140  H   LYS A  95      -8.093 -21.877   9.459  0.00  0.00    +0.000 HD
BRANCH 139 141
ATOM    141  CA  LYS A  95      -9.755 -20.645   9.785  0.00  0.00    +0.000 C 
BRANCH 141 142
ATOM    142  C   LYS A  95      -9.939 -20.557  11.268  0.00  0.00    +0.000 C 
ATOM    143  O   LYS A  95      -9.961 -21.578  11.966  0.00  0.00    +0.000 OA
ATOM    144  OXT LYS A  95     -10.584 -19.483  11.597  0.00  0.00    +0.000 OA
ENDBRANCH 141 142
BRANCH 141 145
ATOM    145  CB  LYS A  95     -10.731 -21.669   9.203  0.00  0.00    +0.000 C 
BRANCH 145 146
ATOM    146  CG  LYS A  95     -10.829 -21.656   7.698  0.00  0.00    +0.000 C 
BRANCH 146 147
ATOM    147  CD  LYS A  95     -11.920 -22.589   7.228  0.00  0.00    +0.000 C 
BRANCH 147 148
ATOM    148  CE  LYS A  95     -12.113 -22.504   5.728  0.00  0.00    +0.000 C 
BRANCH 148 149
ATOM    149  NZ  LYS A  95     -13.220 -23.359   5.274  0.00  0.00    +0.000 N 
ATOM    150  HZ1 LYS A  95     -14.107 -23.100   5.754  0.00  0.00    +0.000 HD
ATOM    151  HZ2 LYS A  95     -13.357 -23.246   4.251  0.00  0.00    +0.000 HD
ATOM    152  HZ3 LYS A  95     -13.021 -24.359   5.477  0.00  0.00    +0.000 HD
ENDBRANCH 148 149
ENDBRANCH 147 148
ENDBRANCH 146 147
ENDBRANCH 145 146
ENDBRANCH 141 145
ENDBRANCH 139 141
ENDBRANCH 136 137
BRANCH 136 153
ATOM    153  CB  GLN A  94      -5.523 -20.709  10.517  0.00  0.00    +0.000 C 
BRANCH 153 154
ATOM    154  CG  GLN A  94      -4.109 -21.243  10.527  0.00  0.00    +0.000 C 
BRANCH 154 155
ATOM    155  CD  GLN A  94      -3.636 -21.589  11.915  0.00  0.00    +0.000 C 
ATOM    156  OE1 GLN A  94      -4.060 -20.984  12.902  0.00  0.00    +0.000 OA
ATOM    157  NE2 GLN A  94      -2.773 -22.552  12.010  0.00  0.00    +0.000 N 
ATOM    158 HE21 GLN A  94      -2.481 -22.994  11.182  0.00  0.00    +0.000 HD
ATOM    159 HE22 GLN A  94      -2.433 -22.797  12.898  0.00  0.00    +0.000 HD
ENDBRANCH 154 155
ENDBRANCH 153 154
ENDBRANCH 136 153
ENDBRANCH 134 136
ENDBRANCH 131 132
BRANCH 131 160
ATOM    160  CB  LYS A  93      -2.299 -18.227   7.332  0.00  0.00    +0.000 C 
BRANCH 160 161
ATOM    161  CG  LYS A  93      -2.097 -17.587   8.708  0.00  0.00    +0.000 C 
BRANCH 161 162
ATOM    162  CD  LYS A  93      -0.622 -17.381   9.019  0.00  0.00    +0.000 C 
BRANCH 162 163
ATOM    163  CE  LYS A  93      -0.420 -16.559  10.291  0.00  0.00    +0.000 C 
BRANCH 163 164
ATOM    164  NZ  LYS A  93      -1.040 -17.173  11.484  0.00  0.00    +0.000 N 
ATOM    165  HZ1 LYS A  93      -0.679 -18.135  11.646  0.00  0.00    +0.000 HD
ATOM    166  HZ2 LYS A  93      -0.826 -16.596  12.321  0.00  0.00    +0.000 HD
ATOM    167  HZ3 LYS A  93      -2.076 -17.220  11.395  0.00  0.00    +0.000 HD
ENDBRANCH 163 164
ENDBRANCH 162 163
ENDBRANCH 161 162
ENDBRANCH 160 161
ENDBRANCH 131 160
ENDBRANCH 129 131
ENDBRANCH 126 127
BRANCH 126 168
ATOM    168  CB  ARG A  92      -6.758 -15.094   7.436  0.00  0.00    +0.000 C 
BRANCH 168 169
ATOM    169  CG  ARG A  92      -8.008 -15.533   6.698  0.00  0.00    +0.000 C 
BRANCH 169 170
ATOM    170  CD  ARG A  92      -9.253 -15.108   7.458  0.00  0.00    +0.000 C 
BRANCH 170 171
ATOM    171  NE  ARG A  92      -9.297 -13.633   7.626  0.00  0.00    +0.000 N 
ATOM    172  CZ  ARG A  92     -10.396 -12.897   7.821  0.00  0.00    +0.000 C 
ATOM    173  NH1 ARG A  92     -11.598 -13.466   7.801  0.00  0.00    +0.000 N 
ATOM    174  NH2 ARG A  92     -10.283 -11.580   8.003  0.00  0.00    +0.000 N 
ATOM    175  HE  ARG A  92      -8.423 -13.186   7.603  0.00  0.00    +0.000 HD
ATOM    176 HH11 ARG A  92     -11.708 -14.449   7.637  0.00  0.00    +0.000 HD
ATOM    177 HH12 ARG A  92     -12.440 -12.938   7.951  0.00  0.00    +0.000 HD
ATOM    178 HH21 ARG A  92      -9.389 -11.114   8.002  0.00  0.00    +0.000 HD
ATOM    179 HH22 ARG A  92     -11.077 -10.984   8.157  0.00  0.00    +0.000 HD
ENDBRANCH 170 171
ENDBRANCH 169 170
ENDBRANCH 168 169
ENDBRANCH 126 168
ENDBRANCH 124 126
ENDBRANCH 121 122
BRANCH 121 180
ATOM    180  CB  ARG A  91      -4.425 -11.778   3.249  0.00  0.00    +0.000 C 
BRANCH 180 181
ATOM    181  CG  ARG A  91      -3.328 -12.817   3.017  0.00  0.00    +0.000 C 
BRANCH 181 182
ATOM    182  CD  ARG A  91      -2.169 -12.265   2.200  0.00  0.00    +0.000 C 
BRANCH 182 183
ATOM    183  NE  ARG A  91      -2.527 -12.031   0.790  0.00  0.00    +0.000 N 
ATOM    184  CZ  ARG A  91      -1.643 -11.921  -0.216  0.00  0.00    +0.000 C 
ATOM    185  NH1 ARG A  91      -0.338 -11.897   0.037  0.00  0.00    +0.000 N 
ATOM    186  NH2 ARG A  91      -2.068 -11.815  -1.467  0.00  0.00    +0.000 N 
ATOM    187  HE  ARG A  91      -3.489 -11.991   0.580  0.00  0.00    +0.000 HD
ATOM    188 HH11 ARG A  91       0.024 -11.948   0.972  0.00  0.00    +0.000 HD
ATOM    189 HH12 ARG A  91       0.336 -11.844  -0.705  0.00  0.00    +0.000 HD
ATOM    190 HH21 ARG A  91      -3.046 -11.810  -1.697  0.00  0.00    +0.000 HD
ATOM    191 HH22 ARG A  91      -1.445 -11.737  -2.252  0.00  0.00    +0.000 HD
ENDBRANCH 182 183
ENDBRANCH 181 182
ENDBRANCH 180 181
ENDBRANCH 121 180
ENDBRANCH 119 121
ENDBRANCH 116 117
BRANCH 116 192
ATOM    192  CB  ASP A  90      -9.240  -9.729   3.631  0.00  0.00    +0.000 C 
BRANCH 192 193
ATOM    193  CG  ASP A  90     -10.138 -10.629   2.834  0.00  0.00    +0.000 C 
ATOM    194  OD1 ASP A  90      -9.641 -11.442   2.035  0.00  0.00    +0.000 OA
ATOM    195  OD2 ASP A  90     -11.366 -10.499   2.960  0.00  0.00    +0.000 OA
ENDBRANCH 192 193
ENDBRANCH 116 192
ENDBRANCH 114 116
ENDBRANCH 111 112
BRANCH 111 196
ATOM    196  CB  GLU A  89      -7.768  -7.329   7.949  0.00  0.00    +0.000 C 
BRANCH 196 197
ATOM    197  CG  GLU A  89      -7.208  -6.012   8.445  0.00  0.00    +0.000 C 
BRANCH 197 198
ATOM    198  CD  GLU A  89      -6.279  -6.166   9.600  0.00  0.00    +0.000 C 
ATOM    199  OE1 GLU A  89      -6.733  -6.531  10.698  0.00  0.00    +0.000 OA
ATOM    200  OE2 GLU A  89      -5.074  -5.878   9.449  0.00  0.00    +0.000 OA
ENDBRANCH 197 198
ENDBRANCH 196 197
ENDBRANCH 111 196
ENDBRANCH 109 111
ENDBRANCH 106 107
BRANCH 106 201
ATOM    201  CB  MET A  88      -3.038  -6.961   4.963  0.00  0.00    +0.000 C 
BRANCH 201 202
ATOM    202  CG  MET A  88      -2.153  -6.597   3.781  0.00  0.00    +0.000 C 
BRANCH 202 203
ATOM    203  SD  MET A  88      -1.561  -8.062   2.895  0.00  0.00    +0.000 S 
ATOM    204  CE  MET A  88      -0.527  -7.310   1.643  0.00  0.00    +0.000 C 
ENDBRANCH 202 203
ENDBRANCH 201 202
ENDBRANCH 106 201
ENDBRANCH 104 106
ENDBRANCH 101 102
BRANCH 101 205
ATOM    205  CB  TYR A  87      -6.736  -6.065   1.115  0.00  0.00    +0.000 C 
BRANCH 205 206
ATOM    206  CG  TYR A  87      -6.490  -7.140   0.104  0.00  0.00    +0.000 A 
ATOM    207  CD1 TYR A  87      -7.543  -7.843  -0.443  0.00  0.00    +0.000 A 
ATOM    208  CD2 TYR A  87      -5.201  -7.466  -0.293  0.00  0.00    +0.000 A 
ATOM    209  CE1 TYR A  87      -7.331  -8.838  -1.357  0.00  0.00    +0.000 A 
ATOM    210  CE2 TYR A  87      -4.981  -8.467  -1.211  0.00  0.00    +0.000 A 
ATOM    211  CZ  TYR A  87      -6.050  -9.148  -1.738  0.00  0.00    +0.000 A 
BRANCH 211 212
ATOM    212  OH  TYR A  87      -5.836 -10.156  -2.649  0.00  0.00    +0.000 OA
ATOM    213  HH  TYR A  87      -6.485 -10.072  -3.360  0.00  0.00    +0.000 HD
ENDBRANCH 211 212
ENDBRANCH 205 206
ENDBRANCH 101 205
ENDBRANCH  99 101
ENDBRANCH  95  97
ENDBRANCH  93  95
ENDBRANCH  90  91
BRANCH  90 214
ATOM    214  CB  LEU A  85      -4.463  -1.740   5.999  0.00  0.00    +0.000 C 
BRANCH 214 215
ATOM    215  CG  LEU A  85      -3.290  -0.797   5.755  0.00  0.00    +0.000 C 
ATOM    216  CD1 LEU A  85      -3.191   0.214   6.880  0.00  0.00    +0.000 C 
ATOM    217  CD2 LEU A  85      -1.986  -1.573   5.618  0.00  0.00    +0.000 C 
ENDBRANCH 214 215
ENDBRANCH  90 214
ENDBRANCH  88  90
ENDBRANCH  85  86
BRANCH  85 218
ATOM    218  CB  PHE A  84      -4.252  -1.742   0.542  0.00  0.00    +0.000 C 
BRANCH 218 219
ATOM    219  CG  PHE A  84      -3.159  -2.677   0.105  0.00  0.00    +0.000 A 
ATOM    220  CD1 PHE A  84      -3.325  -3.476  -1.016  0.00  0.00    +0.000 A 
ATOM    221  CD2 PHE A  84      -1.975  -2.769   0.819  0.00  0.00    +0.000 A 
ATOM    222  CE1 PHE A  84      -2.331  -4.344  -1.419  0.00  0.00    +0.000 A 
ATOM    223  CE2 PHE A  84      -0.979  -3.637   0.421  0.00  0.00    +0.000 A 
ATOM    224  CZ  PHE A  84      -1.157  -4.425  -0.700  0.00  0.00    +0.000 A 
ENDBRANCH 218 219
ENDBRANCH  85 218
ENDBRANCH  83  85
ENDBRANCH  80  81
BRANCH  80 225
ATOM    225  CB  ARG A  83      -9.583  -0.424   1.277  0.00  0.00    +0.000 C 
BRANCH 225 226
ATOM    226  CG  ARG A  83     -10.472  -1.582   0.837  0.00  0.00    +0.000 C 
BRANCH 226 227
ATOM    227  CD  ARG A  83     -11.406  -2.012   1.959  0.00  0.00    +0.000 C 
BRANCH 227 228
ATOM    228  NE  ARG A  83     -12.145  -3.227   1.635  0.00  0.00    +0.000 N 
ATOM    229  CZ  ARG A  83     -13.367  -3.529   2.084  0.00  0.00    +0.000 C 
ATOM    230  NH1 ARG A  83     -13.998  -2.708   2.922  0.00  0.00    +0.000 N 
ATOM    231  NH2 ARG A  83     -13.933  -4.666   1.719  0.00  0.00    +0.000 N 
ATOM    232  HE  ARG A  83     -11.667  -3.861   1.054  0.00  0.00    +0.000 HD
ATOM    233 HH11 ARG A  83     -13.574  -1.856   3.237  0.00  0.00    +0.000 HD
ATOM    234 HH12 ARG A  83     -14.915  -2.899   3.282  0.00  0.00    +0.000 HD
ATOM    235 HH21 ARG A  83     -13.463  -5.315   1.113  0.00  0.00    +0.000 HD
ATOM    236 HH22 ARG A  83     -14.847  -4.947   2.026  0.00  0.00    +0.000 HD
ENDBRANCH 227 228
ENDBRANCH 226 227
ENDBRANCH 225 226
ENDBRANCH  80 225
ENDBRANCH  78  80
ENDBRANCH  72  76
ENDBRANCH  68  69
BRANCH  68 237
ATOM    237  CB  ASP A  81      -5.126   2.190  -0.007  0.00  0.00    +0.000 C 
BRANCH 237 238
ATOM    238  CG  ASP A  81      -6.593   1.839  -0.029  0.00  0.00    +0.000 C 
ATOM    239  OD1 ASP A  81      -7.445   2.741  -0.062  0.00  0.00    +0.000 OA
ATOM    240  OD2 ASP A  81      -6.911   0.648  -0.005  0.00  0.00    +0.000 OA
ENDBRANCH 237 238
ENDBRANCH  68 237
ENDBRANCH  66  68
ENDBRANCH  63  64
BRANCH  63 241
ATOM    241  CB  VAL A  80      -0.521   2.108   2.919  0.00  0.00    +0.000 C 
ATOM    242  CG1 VAL A  80       0.998   2.070   2.826  0.00  0.00    +0.000 C 
ATOM    243  CG2 VAL A  80      -0.970   1.913   4.369  0.00  0.00    +0.000 C 
ENDBRANCH  63 241
ENDBRANCH  61  63
ENDBRANCH  57  59
ENDBRANCH  55  57
ENDBRANCH  52  53
BRANCH  52 244
ATOM    244  CB  PHE A  78       1.108   9.660   0.068  0.00  0.00    +0.000 C 
BRANCH 244 245
ATOM    245  CG  PHE A  78       0.730  10.503  -1.109  0.00  0.00    +0.000 A 
ATOM    246  CD1 PHE A  78      -0.382  10.179  -1.864  0.00  0.00    +0.000 A 
ATOM    247  CD2 PHE A  78       1.486  11.602  -1.471  0.00  0.00    +0.000 A 
ATOM    248  CE1 PHE A  78      -0.737  10.933  -2.959  0.00  0.00    +0.000 A 
ATOM    249  CE2 PHE A  78       1.138  12.362  -2.568  0.00  0.00    +0.000 A 
ATOM    250  CZ  PHE A  78       0.023  12.026  -3.312  0.00  0.00    +0.000 A 
ENDBRANCH 244 245
ENDBRANCH  52 244
ENDBRANCH  50  52
ENDBRANCH  47  48
BRANCH  47 251
ATOM    251  CB  GLU A  77       0.847  14.363   1.725  0.00  0.00    +0.000 C 
BRANCH 251 252
ATOM    252  CG  GLU A  77       1.464  15.710   1.960  0.00  0.00    +0.000 C 
BRANCH 252 253
ATOM    253  CD  GLU A  77       1.563  16.477   0.676  0.00  0.00    +0.000 C 
ATOM    254  OE1 GLU A  77       0.538  16.999   0.194  0.00  0.00    +0.000 OA
ATOM    255  OE2 GLU A  77       2.663  16.538   0.093  0.00  0.00    +0.000 OA
ENDBRANCH 252 253
ENDBRANCH 251 252
ENDBRANCH  47 251
ENDBRANCH  45  47
ENDBRANCH  39  43
ENDBRANCH  35  36
BRANCH  35 256
ATOM    256  CB  HIS A  75       5.049  13.300   0.014  0.00  0.00    +0.000 C 
BRANCH 256 257
ATOM    257  CG  HIS A  75       5.602  14.411  -0.826  0.00  0.00    +0.000 A 
ATOM    258  ND1 HIS A  75       4.975  15.629  -0.997  0.00  0.00    +0.000 N 
ATOM    259  CD2 HIS A  75       6.734  14.473  -1.561  0.00  0.00    +0.000 A 
ATOM    260  CE1 HIS A  75       5.731  16.372  -1.810  0.00  0.00    +0.000 A 
ATOM    261  NE2 HIS A  75       6.815  15.712  -2.183  0.00  0.00    +0.000 NA
ATOM    262  HD1 HIS A  75       4.113  15.913  -0.601  0.00  0.00    +0.000 HD
ENDBRANCH 256 257
ENDBRANCH  35 256
ENDBRANCH  33  35
ENDBRANCH  30  31
ENDBRANCH  28  30
ENDBRANCH  25  26
BRANCH  25 263
ATOM    263  CB  GLN A  73      10.718   8.992   3.786  0.00  0.00    +0.000 C 
BRANCH 263 264
ATOM    264  CG  GLN A  73      10.800   7.690   4.553  0.00  0.00    +0.000 C 
BRANCH 264 265
ATOM    265  CD  GLN A  73      12.214   7.151   4.612  0.00  0.00    +0.000 C 
ATOM    266  OE1 GLN A  73      12.646   6.387   3.745  0.00  0.00    +0.000 OA
ATOM    267  NE2 GLN A  73      12.949   7.540   5.619  0.00  0.00    +0.000 N 
ATOM    268 HE21 GLN A  73      12.544   8.151   6.273  0.00  0.00    +0.000 HD
ATOM    269 HE22 GLN A  73      13.870   7.215   5.701  0.00  0.00    +0.000 HD
ENDBRANCH 264 265
ENDBRANCH 263 264
ENDBRANCH  25 263
ENDBRANCH  23  25
ENDBRANCH  20  21
BRANCH  20 270
ATOM    270  CB  LEU A  72       5.670   7.013   2.636  0.00  0.00    +0.000 C 
BRANCH 270 271
ATOM    271  CG  LEU A  72       4.613   6.174   1.905  0.00  0.00    +0.000 C 
ATOM    272  CD1 LEU A  72       3.957   5.192   2.856  0.00  0.00    +0.000 C 
ATOM    273  CD2 LEU A  72       3.561   7.057   1.265  0.00  0.00    +0.000 C 
ENDBRANCH 270 271
ENDBRANCH  20 270
ENDBRANCH  18  20
ENDBRANCH  15  16
BRANCH  15 274
ATOM    274  CB  TRP A  71       7.660   6.807  -2.252  0.00  0.00    +0.000 C 
BRANCH 274 275
ATOM    275  CG  TRP A  71       6.827   7.563  -3.226  0.00  0.00    +0.000 A 
ATOM    276  CD1 TRP A  71       7.247   8.110  -4.399  0.00  0.00    +0.000 A 
ATOM    277  CD2 TRP A  71       5.429   7.834  -3.133  0.00  0.00    +0.000 A 
ATOM    278  NE1 TRP A  71       6.201   8.712  -5.034  0.00  0.00    +0.000 N 
ATOM    279  CE2 TRP A  71       5.072   8.560  -4.281  0.00  0.00    +0.000 A 
ATOM    280  CE3 TRP A  71       4.450   7.539  -2.190  0.00  0.00    +0.000 A 
ATOM    281  CZ2 TRP A  71       3.770   8.992  -4.515  0.00  0.00    +0.000 A 
ATOM    282  CZ3 TRP A  71       3.164   7.967  -2.420  0.00  0.00    +0.000 A 
ATOM    283  CH2 TRP A  71       2.834   8.688  -3.575  0.00  0.00    +0.000 A 
ATOM    284  HE1 TRP A  71       6.248   9.178  -5.898  0.00  0.00    +0.000 HD
ENDBRANCH 274 275
ENDBRANCH  15 274
ENDBRANCH  13  15
ENDBRANCH  10  11
BRANCH  10 285
ATOM    285  CB  MET A  70      12.562   6.151  -0.301  0.00  0.00    +0.000 C 
BRANCH 285 286
ATOM    286  CG  MET A  70      13.705   5.272   0.161  0.00  0.00    +0.000 C 
BRANCH 286 287
ATOM    287  SD  MET A  70      15.046   5.191  -1.052  0.00  0.00    +0.000 S 
ATOM    288  CE  MET A  70      14.224   4.373  -2.430  0.00  0.00    +0.000 C 
ENDBRANCH 286 287
ENDBRANCH 285 286
ENDBRANCH  10 285
ENDBRANCH   8  10
ENDBRANCH   5   6
BRANCH   5 289
ATOM    289  CB  GLU A  69      10.449   2.221   2.115  0.00  0.00    +0.000 C 
BRANCH 289 290
ATOM    290  CG  GLU A  69      10.993   2.237   3.529  0.00  0.00    +0.000 C 
BRANCH 290 291
ATOM    291  CD  GLU A  69       9.958   1.790   4.537  0.00  0.00    +0.000 C 
ATOM    292  OE1 GLU A  69       9.650   0.587   4.581  0.00  0.00    +0.000 OA
ATOM    293  OE2 GLU A  69       9.437   2.633   5.307  0.00  0.00    +0.000 OA
ENDBRANCH 290 291
ENDBRANCH 289 290
ENDBRANCH   5 289
ENDBRANCH   3   5
BRANCH   1 294
ATOM    294  CA  LEU A  68       7.188   3.187  -1.303  0.00  0.00    +0.000 C 
BRANCH 294 297
ATOM    295  C   GLU A  67       9.382   3.341  -2.490  0.00  0.00    +0.000 C 
ATOM    296  O   GLU A  67       9.771   4.355  -1.915  0.00  0.00    +0.000 OA
ATOM    297  N   LEU A  68       8.237   2.708  -2.209  0.00  0.00    +0.000 N 
ATOM    298  H   LEU A  68       8.077   1.860  -2.677  0.00  0.00    +0.000 HD
BRANCH 295 299
ATOM    299  CA  GLU A  67      10.250   2.666  -3.551  0.00  0.00    +0.000 C 
BRANCH 299 302
ATOM    300  C   ALA A  66      10.548   0.362  -2.842  0.00  0.00    +0.000 C 
ATOM    301  O   ALA A  66      11.336   0.701  -1.968  0.00  0.00    +0.000 OA
ATOM    302  N   GLU A  67       9.934   1.240  -3.624  0.00  0.00    +0.000 N 
ATOM    303  H   GLU A  67       9.251   0.935  -4.256  0.00  0.00    +0.000 HD
BRANCH 300 304
ATOM    304  CA  ALA A  66      10.184  -1.115  -3.039  0.00  0.00    +0.000 C 
ATOM    305  CB  ALA A  66      10.971  -1.705  -4.188  0.00  0.00    +0.000 C 
BRANCH 304 308
ATOM    306  C   ARG A  65       7.852  -0.975  -2.369  0.00  0.00    +0.000 C 
ATOM    307  O   ARG A  65       8.131  -0.509  -1.270  0.00  0.00    +0.000 OA
ATOM    308  N   ALA A  66       8.761  -1.290  -3.271  0.00  0.00    +0.000 N 
ATOM    309  H   ALA A  66       8.458  -1.684  -4.116  0.00  0.00    +0.000 HD
BRANCH 306 310
ATOM    310  CA  ARG A  65       6.385  -1.179  -2.784  0.00  0.00    +0.000 C 
BRANCH 310 313
ATOM    311  C   ARG A  64       6.457   0.147  -4.771  0.00  0.00    +0.000 C 
ATOM    312  O   ARG A  64       6.853   1.119  -4.143  0.00  0.00    +0.000 OA
ATOM    313  N   ARG A  65       6.213  -0.984  -4.216  0.00  0.00    +0.000 N 
ATOM    314  H   ARG A  65       5.882  -1.700  -4.805  0.00  0.00    +0.000 HD
BRANCH 311 315
ATOM    315  CA  ARG A  64       6.274   0.226  -6.257  0.00  0.00    +0.000 C 
BRANCH 315 318
ATOM    316  C   PRO A  63       4.710   2.079  -6.239  0.00  0.00    +0.000 C 
ATOM    317  O   PRO A  63       3.796   1.368  -5.762  0.00  0.00    +0.000 OA
ATOM    318  N   ARG A  64       5.909   1.593  -6.562  0.00  0.00    +0.000 N 
ATOM    319  H   ARG A  64       6.567   2.186  -6.994  0.00  0.00    +0.000 HD
BRANCH 316 323
ATOM    320  C   ALA A  62       2.216   3.663  -7.406  0.00  0.00    +0.000 C 
ATOM    321  O   ALA A  62       2.507   2.910  -8.346  0.00  0.00    +0.000 OA
ATOM    322  N   PRO A  63       3.098   4.007  -6.474  0.00  0.00    +0.000 N 
ATOM    323  CA  PRO A  63       4.508   3.581  -6.498  0.00  0.00    +0.000 C 
ATOM    324  CB  PRO A  63       5.122   4.384  -5.346  0.00  0.00    +0.000 C 
ATOM    325  CG  PRO A  63       3.991   4.606  -4.419  0.00  0.00    +0.000 C 
ATOM    326  CD  PRO A  63       2.807   4.843  -5.293  0.00  0.00    +0.000 C 
BRANCH 320 327
ATOM    327  CA  ALA A  62       0.813   4.249  -7.314  0.00  0.00    +0.000 C 
ATOM    328  CB  ALA A  62      -0.142   3.274  -6.654  0.00  0.00    +0.000 C 
BRANCH 327 331
ATOM    329  C   ASP A  61       0.680   5.617  -9.297  0.00  0.00    +0.000 C 
ATOM    330  O   ASP A  61       1.400   6.506  -8.844  0.00  0.00    +0.000 OA
ATOM    331  N   ALA A  62       0.372   4.515  -8.641  0.00  0.00    +0.000 N 
ATOM    332  H   ALA A  62      -0.140   3.817  -9.099  0.00  0.00    +0.000 HD
BRANCH 329 333
ATOM    333  CA  ASP A  61       0.157   5.649 -10.718  0.00  0.00    +0.000 C 
BRANCH 333 336
ATOM    334  C   GLU A  60       1.308   3.714 -11.546  0.00  0.00    +0.000 C 
ATOM    335  O   GLU A  60       2.377   4.321 -11.619  0.00  0.00    +0.000 OA
ATOM    336  N   ASP A  61       0.187   4.278 -11.177  0.00  0.00    +0.000 N 
ATOM    337  H   ASP A  61      -0.642   3.758 -11.221  0.00  0.00    +0.000 HD
BRANCH 334 338
ATOM    338  CA  GLU A  60       1.217   2.246 -11.867  0.00  0.00    +0.000 C 
BRANCH 338 341
ATOM    339  C   GLY A  59      -0.600   1.307 -10.570  0.00  0.00    +0.000 C 
ATOM    340  O   GLY A  59       0.086   1.293  -9.544  0.00  0.00    +0.000 OA
ATOM    341  N   GLU A  60      -0.150   1.761 -11.724  0.00  0.00    +0.000 N 
ATOM    342  H   GLU A  60      -0.750   1.768 -12.501  0.00  0.00    +0.000 HD
BRANCH 339 343
ATOM    343  CA  GLY A  59      -2.037   0.847 -10.537  0.00  0.00    +0.000 C 
BRANCH 343 346
ATOM    344  C   VAL A  58      -3.061   2.558  -9.171  0.00  0.00    +0.000 C 
ATOM    345  O   VAL A  58      -2.808   3.447 -10.002  0.00  0.00    +0.000 OA
ATOM    346  N   GLY A  59      -2.719   1.292  -9.338  0.00  0.00    +0.000 N 
ATOM    347  H   GLY A  59      -2.924   0.640  -8.638  0.00  0.00    +0.000 HD
BRANCH 344 348
ATOM    348  CA  VAL A  58      -3.794   2.895  -7.868  0.00  0.00    +0.000 C 
BRANCH 348 351
ATOM    349  C   LEU A  57      -3.476   4.869  -6.480  0.00  0.00    +0.000 C 
ATOM    350  O   LEU A  57      -3.181   4.196  -5.488  0.00  0.00    +0.000 OA
ATOM    351  N   VAL A  58      -3.798   4.339  -7.644  0.00  0.00    +0.000 N 
ATOM    352  H   VAL A  58      -4.048   4.930  -8.387  0.00  0.00    +0.000 HD
BRANCH 349 353
ATOM    353  CA  LEU A  57      -3.489   6.379  -6.397  0.00  0.00    +0.000 C 
BRANCH 353 356
ATOM    354  C   LEU A  56      -5.468   7.358  -5.413  0.00  0.00    +0.000 C 
ATOM    355  O   LEU A  56      -6.005   7.526  -6.513  0.00  0.00    +0.000 OA
ATOM    356  N   LEU A  57      -4.297   6.802  -5.268  0.00  0.00    +0.000 N 
ATOM    357  H   LEU A  57      -3.951   6.650  -4.359  0.00  0.00    +0.000 HD
BRANCH 354 358
ATOM    358  CA  LEU A  56      -6.169   7.804  -4.138  0.00  0.00    +0.000 C 
BRANCH 358 361
ATOM    359  C   THR A  55      -5.888  10.180  -3.659  0.00  0.00    +0.000 C 
ATOM    360  O   THR A  55      -4.943   9.990  -2.876  0.00  0.00    +0.000 OA
ATOM    361  N   LEU A  56      -6.539   9.201  -4.268  0.00  0.00    +0.000 N 
ATOM    362  H   LEU A  56      -7.303   9.427  -4.843  0.00  0.00    +0.000 HD
BRANCH 359 363
ATOM    363  CA  THR A  55      -6.407  11.610  -3.941  0.00  0.00    +0.000 C 
BRANCH 363 366
ATOM    364  C   GLY A  54      -7.703  11.732  -1.847  0.00  0.00    +0.000 C 
ATOM    365  O   GLY A  54      -8.218  10.639  -2.019  0.00  0.00    +0.000 OA
ATOM    366  N   THR A  55      -6.854  12.289  -2.718  0.00  0.00    +0.000 N 
ATOM    367  H   THR A  55      -6.559  13.212  -2.556  0.00  0.00    +0.000 HD
BRANCH 364 368
ATOM    368  CA  GLY A  54      -8.044  12.546  -0.612  0.00  0.00    +0.000 C 
BRANCH 368 371
ATOM    369  C   ASP A  53      -7.558  14.846  -0.179  0.00  0.00    +0.000 C 
ATOM    370  O   ASP A  53      -8.753  15.119  -0.035  0.00  0.00    +0.000 OA
ATOM    371  N   GLY A  54      -7.126  13.631  -0.406  0.00  0.00    +0.000 N 
ATOM    372  H   GLY A  54      -6.166  13.439  -0.391  0.00  0.00    +0.000 HD
BRANCH 369 373
ATOM    373  CA  ASP A  53      -6.491  15.922  -0.052  0.00  0.00    +0.000 C 
BRANCH 373 376
ATOM    374  C   VAL A  52      -5.985  15.929   2.321  0.00  0.00    +0.000 C 
ATOM    375  O   VAL A  52      -7.117  16.304   2.644  0.00  0.00    +0.000 OA
ATOM    376  N   ASP A  53      -5.633  15.683   1.086  0.00  0.00    +0.000 N 
ATOM    377  H   ASP A  53      -4.735  15.314   0.923  0.00  0.00    +0.000 HD
BRANCH 374 378
ATOM    378  CA  VAL A  52      -4.905  15.660   3.361  0.00  0.00    +0.000 C 
BRANCH 378 381
ATOM    379  C   LYS A  51      -5.042  13.333   3.950  0.00  0.00    +0.000 C 
ATOM    380  O   LYS A  51      -5.959  13.556   4.739  0.00  0.00    +0.000 OA
ATOM    381  N   VAL A  52      -4.476  14.280   3.245  0.00  0.00    +0.000 N 
ATOM    382  H   VAL A  52      -3.759  14.048   2.618  0.00  0.00    +0.000 HD
BRANCH 379 383
ATOM    383  CA  LYS A  51      -4.516  11.912   3.746  0.00  0.00    +0.000 C 
BRANCH 383 386
ATOM    384  C   ASN A  50      -4.185  11.794   1.344  0.00  0.00    +0.000 C 
ATOM    385  O   ASN A  50      -5.367  11.994   1.110  0.00  0.00    +0.000 OA
ATOM    386  N   LYS A  51      -3.690  11.791   2.548  0.00  0.00    +0.000 N 
ATOM    387  H   LYS A  51      -2.714  11.699   2.653  0.00  0.00    +0.000 HD
BRANCH 384 388
ATOM    388  CA  ASN A  50      -3.219  11.525   0.208  0.00  0.00    +0.000 C 
BRANCH 388 391
ATOM    389  C   ILE A  49      -3.373   9.127   0.141  0.00  0.00    +0.000 C 
ATOM    390  O   ILE A  49      -2.632   9.000   1.127  0.00  0.00    +0.000 OA
ATOM    391  N   ASN A  50      -3.638  10.288  -0.408  0.00  0.00    +0.000 N 
ATOM    392  H   ASN A  50      -4.147  10.295  -1.252  0.00  0.00    +0.000 HD
BRANCH 389 393
ATOM    393  CA  ILE A  49      -3.948   7.908  -0.559  0.00  0.00    +0.000 C 
BRANCH 393 396
ATOM    394  C   VAL A  48      -2.683   6.271  -1.712  0.00  0.00    +0.000 C 
ATOM    395  O   VAL A  48      -3.232   6.525  -2.786  0.00  0.00    +0.000 OA
ATOM    396  N   ILE A  49      -2.961   6.881  -0.618  0.00  0.00    +0.000 N 
ATOM    397  H   ILE A  49      -2.471   6.641   0.202  0.00  0.00    +0.000 HD
BRANCH 394 398
ATOM    398  CA  VAL A  48      -1.638   5.201  -1.621  0.00  0.00    +0.000 C 
BRANCH 398 401
ATOM    399  C   PRO A  47      -2.076   2.959  -2.277  0.00  0.00    +0.000 C 
ATOM    400  O   PRO A  47      -2.037   2.561  -1.101  0.00  0.00    +0.000 OA
ATOM    401  N   VAL A  48      -1.884   4.190  -2.607  0.00  0.00    +0.000 N 
ATOM    402  H   VAL A  48      -1.932   4.445  -3.553  0.00  0.00    +0.000 HD
BRANCH 399 406
ATOM    403  C   ILE A  46      -0.032   1.074  -3.425  0.00  0.00    +0.000 C 
ATOM    404  O   ILE A  46       0.453   2.143  -3.797  0.00  0.00    +0.000 OA
ATOM    405  N   PRO A  47      -1.354   0.893  -3.283  0.00  0.00    +0.000 N 
ATOM    406  CA  PRO A  47      -2.289   1.981  -3.418  0.00  0.00    +0.000 C 
ATOM    407  CB  PRO A  47      -3.675   1.331  -3.300  0.00  0.00    +0.000 C 
ATOM    408  CG  PRO A  47      -3.448  -0.139  -3.368  0.00  0.00    +0.000 C 
ATOM    409  CD  PRO A  47      -2.024  -0.378  -2.971  0.00  0.00    +0.000 C 
BRANCH 403 410
ATOM    410  CA  ILE A  46       0.873  -0.104  -3.134  0.00  0.00    +0.000 C 
BRANCH 410 413
ATOM    411  C   ARG A  45       1.171  -1.329  -5.172  0.00  0.00    +0.000 C 
ATOM    412  O   ARG A  45       0.116  -1.961  -4.989  0.00  0.00    +0.000 OA
ATOM    413  N   ILE A  46       1.637  -0.473  -4.310  0.00  0.00    +0.000 N 
ATOM    414  H   ILE A  46       2.527  -0.082  -4.450  0.00  0.00    +0.000 HD
BRANCH 411 415
ATOM    415  CA  ARG A  45       2.015  -1.606  -6.401  0.00  0.00    +0.000 C 
BRANCH 415 418
ATOM    416  C   THR A  44       3.557  -3.420  -5.960  0.00  0.00    +0.000 C 
ATOM    417  O   THR A  44       4.464  -2.632  -5.606  0.00  0.00    +0.000 OA
ATOM    418  N   ARG A  45       2.371  -3.009  -6.370  0.00  0.00    +0.000 N 
ATOM    419  H   ARG A  45       1.698  -3.673  -6.629  0.00  0.00    +0.000 HD
BRANCH 416 420
ATOM    420  CA  THR A  44       3.782  -4.958  -5.943  0.00  0.00    +0.000 C 
BRANCH 420 423
ATOM    421  C   GLU A  43       5.983  -5.020  -6.897  0.00  0.00    +0.000 C 
ATOM    422  O   GLU A  43       5.606  -4.503  -7.953  0.00  0.00    +0.000 OA
ATOM    423  N   THR A  44       5.182  -5.263  -5.893  0.00  0.00    +0.000 N 
ATOM    424  H   THR A  44       5.565  -5.695  -5.103  0.00  0.00    +0.000 HD
BRANCH 421 425
ATOM    425  CA  GLU A  43       7.435  -5.414  -6.704  0.00  0.00    +0.000 C 
BRANCH 425 428
ATOM    426  C   LEU A  42       7.917  -4.971  -4.368  0.00  0.00    +0.000 C 
ATOM    427  O   LEU A  42       7.848  -3.752  -4.580  0.00  0.00    +0.000 OA
ATOM    428  N   GLU A  43       7.706  -5.852  -5.325  0.00  0.00    +0.000 N 
ATOM    429  H   GLU A  43       7.734  -6.815  -5.124  0.00  0.00    +0.000 HD
BRANCH 426 430
ATOM    430  CA  LEU A  42       8.243  -5.473  -2.945  0.00  0.00    +0.000 C 
BRANCH 430 433
ATOM    431  C   ASP A  41       7.960  -7.964  -2.987  0.00  0.00    +0.000 C 
ATOM    432  O   ASP A  41       8.706  -8.121  -3.961  0.00  0.00    +0.000 OA
ATOM    433  N   LEU A  42       7.631  -6.765  -2.520  0.00  0.00    +0.000 N 
ATOM    434  H   LEU A  42       6.932  -6.772  -1.836  0.00  0.00    +0.000 HD
BRANCH 431 435
ATOM    435  CA  ASP A  41       7.349  -9.167  -2.209  0.00  0.00    +0.000 C 
BRANCH 435 438
ATOM    436  C   VAL A  40       5.174  -8.308  -1.243  0.00  0.00    +0.000 C 
ATOM    437  O   VAL A  40       4.664  -7.998  -2.327  0.00  0.00    +0.000 OA
ATOM    438  N   ASP A  41       6.438  -8.775  -1.107  0.00  0.00    +0.000 N 
ATOM    439  H   ASP A  41       6.797  -8.862  -0.194  0.00  0.00    +0.000 HD
BRANCH 436 440
ATOM    440  CA  VAL A  40       4.408  -8.151   0.098  0.00  0.00    +0.000 C 
BRANCH 440 443
ATOM    441  C   ASP A  39       4.566 -10.132   1.397  0.00  0.00    +0.000 C 
ATOM    442  O   ASP A  39       3.451 -10.515   1.022  0.00  0.00    +0.000 OA
ATOM    443  N   VAL A  40       5.061  -8.995   1.051  0.00  0.00    +0.000 N 
ATOM    444  H   VAL A  40       5.926  -8.715   1.429  0.00  0.00    +0.000 HD
BRANCH 441 445
ATOM    445  CA  ASP A  39       5.391 -11.024   2.310  0.00  0.00    +0.000 C 
BRANCH 445 448
ATOM    446  C   LEU A  38       4.955 -13.332   2.919  0.00  0.00    +0.000 C 
ATOM    447  O   LEU A  38       5.581 -13.292   3.992  0.00  0.00    +0.000 OA
ATOM    448  N   ASP A  39       4.828 -12.323   2.115  0.00  0.00    +0.000 N 
ATOM    449  H   ASP A  39       4.310 -12.454   1.289  0.00  0.00    +0.000 HD
BRANCH 446 451
ATOM    450  N   LEU A  38       5.321 -15.180   1.418  0.00  0.00    +0.000 NA
ATOM    451  CA  LEU A  38       4.368 -14.614   2.362  0.00  0.00    +0.000 C 
BRANCH 451 452
ATOM    452  CB  LEU A  38       3.941 -15.593   3.484  0.00  0.00    +0.000 C 
BRANCH 452 453
ATOM    453  CG  LEU A  38       2.940 -16.722   3.114  0.00  0.00    +0.000 C 
ATOM    454  CD1 LEU A  38       1.640 -16.148   2.570  0.00  0.00    +0.000 C 
ATOM    455  CD2 LEU A  38       3.535 -17.721   2.134  0.00  0.00    +0.000 C 
ENDBRANCH 452 453
ENDBRANCH 451 452
ENDBRANCH 446 451
ENDBRANCH 445 448
BRANCH 445 456
ATOM    456  CB  ASP A  39       6.870 -11.073   1.821  0.00  0.00    +0.000 C 
BRANCH 456 457
ATOM    457  CG  ASP A  39       7.715  -9.880   2.214  0.00  0.00    +0.000 C 
ATOM    458  OD1 ASP A  39       7.636  -8.824   1.552  0.00  0.00    +0.000 OA
ATOM    459  OD2 ASP A  39       8.494  -9.992   3.169  0.00  0.00    +0.000 OA
ENDBRANCH 456 457
ENDBRANCH 445 456
ENDBRANCH 441 445
ENDBRANCH 440 443
BRANCH 440 460
ATOM    460  CB  VAL A  40       4.399  -6.677   0.587  0.00  0.00    +0.000 C 
ATOM    461  CG1 VAL A  40       5.767  -6.048   0.505  0.00  0.00    +0.000 C 
ATOM    462  CG2 VAL A  40       3.364  -5.856  -0.148  0.00  0.00    +0.000 C 
ENDBRANCH 440 460
ENDBRANCH 436 440
ENDBRANCH 435 438
BRANCH 435 463
ATOM    463  CB  ASP A  41       6.719 -10.258  -3.100  0.00  0.00    +0.000 C 
BRANCH 463 464
ATOM    464  CG  ASP A  41       7.671 -10.838  -4.111  0.00  0.00    +0.000 C 
ATOM    465  OD1 ASP A  41       8.683 -11.454  -3.712  0.00  0.00    +0.000 OA
ATOM    466  OD2 ASP A  41       7.406 -10.722  -5.333  0.00  0.00    +0.000 OA
ENDBRANCH 463 464
ENDBRANCH 435 463
ENDBRANCH 431 435
ENDBRANCH 430 433
BRANCH 430 467
ATOM    467  CB  LEU A  42       9.758  -5.453  -2.691  0.00  0.00    +0.000 C 
BRANCH 467 468
ATOM    468  CG  LEU A  42      10.200  -5.617  -1.232  0.00  0.00    +0.000 C 
ATOM    469  CD1 LEU A  42      11.706  -5.635  -1.130  0.00  0.00    +0.000 C 
ATOM    470  CD2 LEU A  42       9.622  -4.510  -0.359  0.00  0.00    +0.000 C 
ENDBRANCH 467 468
ENDBRANCH 430 467
ENDBRANCH 426 430
ENDBRANCH 425 428
BRANCH 425 471
ATOM    471  CB  GLU A  43       7.801  -6.488  -7.718  0.00  0.00    +0.000 C 
BRANCH 471 472
ATOM    472  CG  GLU A  43       9.268  -6.830  -7.792  0.00  0.00    +0.000 C 
BRANCH 472 473
ATOM    473  CD  GLU A  43       9.534  -7.874  -8.840  0.00  0.00    +0.000 C 
ATOM    474  OE1 GLU A  43       9.610  -7.533 -10.041  0.00  0.00    +0.000 OA
ATOM    475  OE2 GLU A  43       9.667  -9.053  -8.493  0.00  0.00    +0.000 OA
ENDBRANCH 472 473
ENDBRANCH 471 472
ENDBRANCH 425 471
ENDBRANCH 421 425
ENDBRANCH 420 423
BRANCH 420 476
ATOM    476  CB  THR A  44       3.034  -5.608  -4.735  0.00  0.00    +0.000 C 
ATOM    477  CG2 THR A  44       3.143  -4.745  -3.488  0.00  0.00    +0.000 C 
BRANCH 476 478
ATOM    478  OG1 THR A  44       1.652  -5.764  -5.051  0.00  0.00    +0.000 OA
ATOM    479  HG1 THR A  44       1.615  -6.538  -5.629  0.00  0.00    +0.000 HD
ENDBRANCH 476 478
ENDBRANCH 420 476
ENDBRANCH 416 420
ENDBRANCH 415 418
BRANCH 415 480
ATOM    480  CB  ARG A  45       1.180  -1.268  -7.658  0.00  0.00    +0.000 C 
BRANCH 480 481
ATOM    481  CG  ARG A  45       1.732  -1.807  -8.980  0.00  0.00    +0.000 C 
BRANCH 481 482
ATOM    482  CD  ARG A  45       3.153  -1.352  -9.264  0.00  0.00    +0.000 C 
BRANCH 482 483
ATOM    483  NE  ARG A  45       3.291   0.104  -9.397  0.00  0.00    +0.000 N 
ATOM    484  CZ  ARG A  45       4.313   0.708 -10.027  0.00  0.00    +0.000 C 
ATOM    485  NH1 ARG A  45       5.267  -0.018 -10.606  0.00  0.00    +0.000 N 
ATOM    486  NH2 ARG A  45       4.385   2.027 -10.058  0.00  0.00    +0.000 N 
ATOM    487  HE  ARG A  45       2.584   0.646  -8.970  0.00  0.00    +0.000 HD
ATOM    488 HH11 ARG A  45       5.271  -1.023 -10.595  0.00  0.00    +0.000 HD
ATOM    489 HH12 ARG A  45       6.031   0.409 -11.099  0.00  0.00    +0.000 HD
ATOM    490 HH21 ARG A  45       3.679   2.591  -9.611  0.00  0.00    +0.000 HD
ATOM    491 HH22 ARG A  45       5.137   2.526 -10.500  0.00  0.00    +0.000 HD
ENDBRANCH 482 483
ENDBRANCH 481 482
ENDBRANCH 480 481
ENDBRANCH 415 480
ENDBRANCH 411 415
ENDBRANCH 410 413
BRANCH 410 492
ATOM    492  CB  ILE A  46       1.788   0.261  -1.945  0.00  0.00    +0.000 C 
ATOM    493  CG2 ILE A  46       0.985   0.747  -0.735  0.00  0.00    +0.000 C 
BRANCH 492 494
ATOM    494  CG1 ILE A  46       2.652  -0.918  -1.564  0.00  0.00    +0.000 C 
ATOM    495  CD1 ILE A  46       1.881  -2.160  -1.139  0.00  0.00    +0.000 C 
ENDBRANCH 492 494
ENDBRANCH 410 492
ENDBRANCH 403 410
ENDBRANCH 399 406
ENDBRANCH 398 401
BRANCH 398 496
ATOM    496  CB  VAL A  48      -0.220   5.829  -1.742  0.00  0.00    +0.000 C 
ATOM    497  CG1 VAL A  48       0.848   4.815  -1.390  0.00  0.00    +0.000 C 
ATOM    498  CG2 VAL A  48       0.013   6.364  -3.139  0.00  0.00    +0.000 C 
ENDBRANCH 398 496
ENDBRANCH 394 398
ENDBRANCH 393 396
BRANCH 393 499
ATOM    499  CB  ILE A  49      -5.253   7.407   0.148  0.00  0.00    +0.000 C 
ATOM    500  CG2 ILE A  49      -4.957   6.837   1.539  0.00  0.00    +0.000 C 
BRANCH 499 501
ATOM    501  CG1 ILE A  49      -6.318   8.516   0.210  0.00  0.00    +0.000 C 
ATOM    502  CD1 ILE A  49      -7.636   8.080   0.817  0.00  0.00    +0.000 C 
ENDBRANCH 499 501
ENDBRANCH 393 499
ENDBRANCH 389 393
ENDBRANCH 388 391
BRANCH 388 503
ATOM    503  CB  ASN A  50      -3.275  12.692  -0.789  0.00  0.00    +0.000 C 
BRANCH 503 504
ATOM    504  CG  ASN A  50      -2.612  13.954  -0.244  0.00  0.00    +0.000 C 
ATOM    505  OD1 ASN A  50      -3.211  14.692   0.511  0.00  0.00    +0.000 OA
ATOM    506  ND2 ASN A  50      -1.412  14.239  -0.675  0.00  0.00    +0.000 N 
ATOM    507 HD21 ASN A  50      -0.968  13.651  -1.322  0.00  0.00    +0.000 HD
ATOM    508 HD22 ASN A  50      -0.992  15.062  -0.339  0.00  0.00    +0.000 HD
ENDBRANCH 503 504
ENDBRANCH 388 503
ENDBRANCH 384 388
ENDBRANCH 383 386
BRANCH 383 509
ATOM    509  CB  LYS A  51      -3.724  11.437   4.975  0.00  0.00    +0.000 C 
BRANCH 509 510
ATOM    510  CG  LYS A  51      -3.159  10.018   4.835  0.00  0.00    +0.000 C 
BRANCH 510 511
ATOM    511  CD  LYS A  51      -4.256   8.958   4.664  0.00  0.00    +0.000 C 
BRANCH 511 512
ATOM    512  CE  LYS A  51      -5.031   8.708   5.952  0.00  0.00    +0.000 C 
BRANCH 512 513
ATOM    513  NZ  LYS A  51      -4.187   8.077   7.001  0.00  0.00    +0.000 N 
ATOM    514  HZ1 LYS A  51      -3.812   7.167   6.663  0.00  0.00    +0.000 HD
ATOM    515  HZ2 LYS A  51      -3.379   8.674   7.271  0.00  0.00    +0.000 HD
ATOM    516  HZ3 LYS A  51      -4.757   7.895   7.853  0.00  0.00    +0.000 HD
ENDBRANCH 512 513
ENDBRANCH 511 512
ENDBRANCH 510 511
ENDBRANCH 509 510
ENDBRANCH 383 509
ENDBRANCH 379 383
ENDBRANCH 378 381
BRANCH 378 517
ATOM    517  CB  VAL A  52      -3.724  16.640   3.121  0.00  0.00    +0.000 C 
ATOM    518  CG1 VAL A  52      -4.135  18.080   3.391  0.00  0.00    +0.000 C 
ATOM    519  CG2 VAL A  52      -2.513  16.255   3.952  0.00  0.00    +0.000 C 
ENDBRANCH 378 517
ENDBRANCH 374 378
ENDBRANCH 373 376
BRANCH 373 520
ATOM    520  CB  ASP A  53      -5.650  15.991  -1.336  0.00  0.00    +0.000 C 
BRANCH 520 521
ATOM    521  CG  ASP A  53      -6.491  16.100  -2.579  0.00  0.00    +0.000 C 
ATOM    522  OD1 ASP A  53      -6.887  15.053  -3.122  0.00  0.00    +0.000 OA
ATOM    523  OD2 ASP A  53      -6.788  17.221  -3.022  0.00  0.00    +0.000 OA
ENDBRANCH 520 521
ENDBRANCH 373 520
ENDBRANCH 369 373
ENDBRANCH 368 371
ENDBRANCH 364 368
ENDBRANCH 363 366
BRANCH 363 524
ATOM    524  CB  THR A  55      -5.300  12.433  -4.664  0.00  0.00    +0.000 C 
ATOM    525  CG2 THR A  55      -4.839  11.744  -5.939  0.00  0.00    +0.000 C 
BRANCH 524 526
ATOM    526  OG1 THR A  55      -5.801  13.733  -5.009  0.00  0.00    +0.000 OA
ATOM    527  HG1 THR A  55      -6.230  14.153  -4.239  0.00  0.00    +0.000 HD
ENDBRANCH 524 526
ENDBRANCH 363 524
ENDBRANCH 359 363
ENDBRANCH 358 361
BRANCH 358 528
ATOM    528  CB  LEU A  56      -7.418   6.939  -3.892  0.00  0.00    +0.000 C 
BRANCH 528 529
ATOM    529  CG  LEU A  56      -7.189   5.420  -3.771  0.00  0.00    +0.000 C 
ATOM    530  CD1 LEU A  56      -6.339   5.083  -2.557  0.00  0.00    +0.000 C 
ATOM    531  CD2 LEU A  56      -8.513   4.682  -3.715  0.00  0.00    +0.000 C 
ENDBRANCH 528 529
ENDBRANCH 358 528
ENDBRANCH 354 358
ENDBRANCH 353 356
BRANCH 353 532
ATOM    532  CB  LEU A  57      -2.047   6.876  -6.235  0.00  0.00    +0.000 C 
BRANCH 532 533
ATOM    533  CG  LEU A  57      -1.860   8.376  -5.992  0.00  0.00    +0.000 C 
ATOM    534  CD1 LEU A  57      -0.387   8.715  -5.888  0.00  0.00    +0.000 C 
ATOM    535  CD2 LEU A  57      -2.512   9.189  -7.083  0.00  0.00    +0.000 C 
ENDBRANCH 532 533
ENDBRANCH 353 532
ENDBRANCH 349 353
ENDBRANCH 348 351
BRANCH 348 536
ATOM    536  CB  VAL A  58      -5.234   2.287  -7.915  0.00  0.00    +0.000 C 
ATOM    537  CG1 VAL A  58      -5.940   2.419  -6.571  0.00  0.00    +0.000 C 
ATOM    538  CG2 VAL A  58      -6.060   2.933  -9.011  0.00  0.00    +0.000 C 
ENDBRANCH 348 536
ENDBRANCH 344 348
ENDBRANCH 343 346
ENDBRANCH 339 343
ENDBRANCH 338 341
BRANCH 338 539
ATOM    539  CB  GLU A  60       1.813   1.948 -13.238  0.00  0.00    +0.000 C 
BRANCH 539 540
ATOM    540  CG  GLU A  60       1.925   0.469 -13.556  0.00  0.00    +0.000 C 
BRANCH 540 541
ATOM    541  CD  GLU A  60       2.651   0.223 -14.852  0.00  0.00    +0.000 C 
ATOM    542  OE1 GLU A  60       2.052   0.418 -15.928  0.00  0.00    +0.000 OA
ATOM    543  OE2 GLU A  60       3.827  -0.170 -14.818  0.00  0.00    +0.000 OA
ENDBRANCH 540 541
ENDBRANCH 539 540
ENDBRANCH 338 539
ENDBRANCH 334 338
ENDBRANCH 333 336
BRANCH 333 544
ATOM    544  CB  ASP A  61      -1.268   6.155 -10.726  0.00  0.00    +0.000 C 
BRANCH 544 545
ATOM    545  CG  ASP A  61      -1.385   7.677 -10.699  0.00  0.00    +0.000 C 
ATOM    546  OD1 ASP A  61      -0.811   8.332  -9.820  0.00  0.00    +0.000 OA
ATOM    547  OD2 ASP A  61      -2.111   8.230 -11.557  0.00  0.00    +0.000 OA
ENDBRANCH 544 545
ENDBRANCH 333 544
ENDBRANCH 329 333
ENDBRANCH 327 331
ENDBRANCH 320 327
ENDBRANCH 316 323
ENDBRANCH 315 318
BRANCH 315 548
ATOM    548  CB  ARG A  64       7.614  -0.171  -6.896  0.00  0.00    +0.000 C 
BRANCH 548 549
ATOM    549  CG  ARG A  64       7.701   0.023  -8.382  0.00  0.00    +0.000 C 
BRANCH 549 550
ATOM    550  CD  ARG A  64       9.085  -0.341  -8.904  0.00  0.00    +0.000 C 
BRANCH 550 551
ATOM    551  NE  ARG A  64       9.261  -0.003 -10.320  0.00  0.00    +0.000 N 
ATOM    552  CZ  ARG A  64      10.054  -0.658 -11.187  0.00  0.00    +0.000 C 
ATOM    553  NH1 ARG A  64      10.731  -1.750 -10.813  0.00  0.00    +0.000 N 
ATOM    554  NH2 ARG A  64      10.164  -0.213 -12.428  0.00  0.00    +0.000 N 
ATOM    555  HE  ARG A  64       8.768   0.791 -10.633  0.00  0.00    +0.000 HD
ATOM    556 HH11 ARG A  64      10.690  -2.133  -9.888  0.00  0.00    +0.000 HD
ATOM    557 HH12 ARG A  64      11.323  -2.242 -11.455  0.00  0.00    +0.000 HD
ATOM    558 HH21 ARG A  64       9.661   0.611 -12.713  0.00  0.00    +0.000 HD
ATOM    559 HH22 ARG A  64      10.723  -0.662 -13.128  0.00  0.00    +0.000 HD
ENDBRANCH 550 551
ENDBRANCH 549 550
ENDBRANCH 548 549
ENDBRANCH 315 548
ENDBRANCH 311 315
ENDBRANCH 310 313
BRANCH 310 560
ATOM    560  CB  ARG A  65       5.873  -2.553  -2.373  0.00  0.00    +0.000 C 
BRANCH 560 561
ATOM    561  CG  ARG A  65       6.074  -2.915  -0.913  0.00  0.00    +0.000 C 
BRANCH 561 562
ATOM    562  CD  ARG A  65       5.373  -1.970   0.044  0.00  0.00    +0.000 C 
BRANCH 562 563
ATOM    563  NE  ARG A  65       5.572  -2.340   1.442  0.00  0.00    +0.000 N 
ATOM    564  CZ  ARG A  65       4.709  -2.096   2.447  0.00  0.00    +0.000 C 
ATOM    565  NH1 ARG A  65       3.549  -1.472   2.212  0.00  0.00    +0.000 N 
ATOM    566  NH2 ARG A  65       5.014  -2.469   3.677  0.00  0.00    +0.000 N 
ATOM    567  HE  ARG A  65       6.425  -2.798   1.635  0.00  0.00    +0.000 HD
ATOM    568 HH11 ARG A  65       3.283  -1.164   1.301  0.00  0.00    +0.000 HD
ATOM    569 HH12 ARG A  65       2.896  -1.312   2.961  0.00  0.00    +0.000 HD
ATOM    570 HH21 ARG A  65       5.883  -2.936   3.872  0.00  0.00    +0.000 HD
ATOM    571 HH22 ARG A  65       4.410  -2.324   4.464  0.00  0.00    +0.000 HD
ENDBRANCH 562 563
ENDBRANCH 561 562
ENDBRANCH 560 561
ENDBRANCH 310 560
ENDBRANCH 306 310
ENDBRANCH 304 308
ENDBRANCH 300 304
ENDBRANCH 299 302
BRANCH 299 572
ATOM    572  CB  GLU A  67      10.032   3.341  -4.921  0.00  0.00    +0.000 C 
BRANCH 572 573
ATOM    573  CG  GLU A  67       8.586   3.385  -5.362  0.00  0.00    +0.000 C 
BRANCH 573 574
ATOM    574  CD  GLU A  67       8.392   3.932  -6.744  0.00  0.00    +0.000 C 
ATOM    575  OE1 GLU A  67       8.424   5.157  -6.928  0.00  0.00    +0.000 OA
ATOM    576  OE2 GLU A  67       8.162   3.136  -7.668  0.00  0.00    +0.000 OA
ENDBRANCH 573 574
ENDBRANCH 572 573
ENDBRANCH 299 572
ENDBRANCH 295 299
ENDBRANCH 294 297
BRANCH 294 577
ATOM    577  CB  LEU A  68       6.135   2.041  -1.131  0.00  0.00    +0.000 C 
BRANCH 577 578
ATOM    578  CG  LEU A  68       4.851   2.271  -0.288  0.00  0.00    +0.000 C 
ATOM    579  CD1 LEU A  68       5.116   2.265   1.209  0.00  0.00    +0.000 C 
ATOM    580  CD2 LEU A  68       4.152   3.551  -0.710  0.00  0.00    +0.000 C 
ENDBRANCH 577 578
ENDBRANCH 294 577
ENDBRANCH   1 294
TORSDOF 232
