REMARK  Name = /Users/acegid/Desktop/Smoking_Research/Docking/Docking_All_PDB/All_PDB/2CP8_H.pdb
REMARK  245 active torsions:
REMARK  status: ('A' for Active; 'I' for Inactive)
REMARK    1  A    between atoms: N_1  and  CA_4
REMARK    2  A    between atoms: CA_4  and  C_5
REMARK    3  A    between atoms: N_10  and  CA_11
REMARK    4  A    between atoms: CA_11  and  C_12
REMARK    5  A    between atoms: CA_11  and  CB_14
REMARK    6  A    between atoms: CB_14  and  OG_15
REMARK    7  A    between atoms: N_21  and  CA_22
REMARK    8  A    between atoms: CA_22  and  C_23
REMARK    9  A    between atoms: CA_22  and  CB_25
REMARK   10  A    between atoms: CB_25  and  OG_26
REMARK   11  A    between atoms: N_32  and  CA_33
REMARK   12  A    between atoms: CA_33  and  C_34
REMARK   13  A    between atoms: N_39  and  CA_40
REMARK   14  A    between atoms: CA_40  and  C_41
REMARK   15  A    between atoms: CA_40  and  CB_43
REMARK   16  A    between atoms: CB_43  and  OG_44
REMARK   17  A    between atoms: N_50  and  CA_51
REMARK   18  A    between atoms: CA_51  and  C_52
REMARK   19  A    between atoms: CA_51  and  CB_54
REMARK   20  A    between atoms: CB_54  and  OG_55
REMARK   21  A    between atoms: N_61  and  CA_62
REMARK   22  A    between atoms: CA_62  and  C_63
REMARK   23  A    between atoms: N_68  and  CA_69
REMARK   24  A    between atoms: CA_69  and  C_70
REMARK   25  A    between atoms: CA_69  and  CB_72
REMARK   26  A    between atoms: CB_72  and  CG_73
REMARK   27  A    between atoms: CG_73  and  CD_74
REMARK   28  A    between atoms: N_85  and  CA_86
REMARK   29  A    between atoms: CA_86  and  C_87
REMARK   30  A    between atoms: CA_86  and  CB_89
REMARK   31  A    between atoms: CB_89  and  OG1_90
REMARK   32  A    between atoms: CB_89  and  CG2_91
REMARK   33  A    between atoms: N_99  and  CA_100
REMARK   34  A    between atoms: CA_100  and  C_101
REMARK   35  A    between atoms: CA_100  and  CB_103
REMARK   36  A    between atoms: N_109  and  CA_110
REMARK   37  A    between atoms: CA_110  and  C_111
REMARK   38  A    between atoms: CA_110  and  CB_113
REMARK   39  A    between atoms: N_119  and  CA_120
REMARK   40  A    between atoms: CA_120  and  C_121
REMARK   41  A    between atoms: CA_120  and  CB_123
REMARK   42  A    between atoms: CB_123  and  CG_124
REMARK   43  A    between atoms: CG_124  and  CD1_125
REMARK   44  A    between atoms: CG_124  and  CD2_126
REMARK   45  A    between atoms: N_138  and  CA_139
REMARK   46  A    between atoms: CA_139  and  C_140
REMARK   47  A    between atoms: CA_139  and  CB_142
REMARK   48  A    between atoms: CB_142  and  CG_143
REMARK   49  A    between atoms: CG_143  and  SD_144
REMARK   50  A    between atoms: SD_144  and  CE_145
REMARK   51  A    between atoms: N_155  and  CA_156
REMARK   52  A    between atoms: CA_156  and  C_157
REMARK   53  A    between atoms: CA_156  and  CB_159
REMARK   54  A    between atoms: N_165  and  CA_166
REMARK   55  A    between atoms: CA_166  and  C_167
REMARK   56  A    between atoms: CA_166  and  CB_169
REMARK   57  A    between atoms: CB_169  and  CG_170
REMARK   58  A    between atoms: N_183  and  CA_184
REMARK   59  A    between atoms: CA_184  and  C_185
REMARK   60  A    between atoms: CA_184  and  CB_187
REMARK   61  A    between atoms: CB_187  and  CG_188
REMARK   62  A    between atoms: CG_188  and  CD1_189
REMARK   63  A    between atoms: CG_188  and  CD2_190
REMARK   64  A    between atoms: N_202  and  CA_203
REMARK   65  A    between atoms: CA_203  and  C_204
REMARK   66  A    between atoms: CA_203  and  CB_206
REMARK   67  A    between atoms: CB_206  and  CG_207
REMARK   68  A    between atoms: N_222  and  CA_223
REMARK   69  A    between atoms: CA_223  and  C_224
REMARK   70  A    between atoms: CA_223  and  CB_226
REMARK   71  A    between atoms: CB_226  and  CG_227
REMARK   72  A    between atoms: CG_227  and  CD_228
REMARK   73  A    between atoms: N_237  and  CA_238
REMARK   74  A    between atoms: CA_238  and  C_239
REMARK   75  A    between atoms: CA_238  and  CB_241
REMARK   76  A    between atoms: CB_241  and  CG_242
REMARK   77  A    between atoms: CG_242  and  SD_243
REMARK   78  A    between atoms: SD_243  and  CE_244
REMARK   79  A    between atoms: N_254  and  CA_255
REMARK   80  A    between atoms: CA_255  and  C_256
REMARK   81  A    between atoms: N_261  and  CA_262
REMARK   82  A    between atoms: CA_262  and  C_263
REMARK   83  A    between atoms: CA_262  and  CB_265
REMARK   84  A    between atoms: CB_265  and  CG_266
REMARK   85  A    between atoms: N_281  and  CA_282
REMARK   86  A    between atoms: CA_282  and  C_283
REMARK   87  A    between atoms: CA_282  and  CB_285
REMARK   88  A    between atoms: CB_285  and  SG_286
REMARK   89  A    between atoms: N_292  and  CA_293
REMARK   90  A    between atoms: CA_293  and  C_294
REMARK   91  A    between atoms: CA_293  and  CB_296
REMARK   92  A    between atoms: CB_296  and  CG_297
REMARK   93  A    between atoms: N_304  and  CA_305
REMARK   94  A    between atoms: CA_305  and  C_306
REMARK   95  A    between atoms: CA_305  and  CB_308
REMARK   96  A    between atoms: CB_308  and  CG_309
REMARK   97  A    between atoms: CG_309  and  CD_310
REMARK   98  A    between atoms: CD_310  and  NE_311
REMARK   99  A    between atoms: N_328  and  CA_329
REMARK  100  A    between atoms: CA_329  and  C_330
REMARK  101  A    between atoms: CA_329  and  CB_332
REMARK  102  A    between atoms: CB_332  and  CG_333
REMARK  103  A    between atoms: CG_333  and  CD_334
REMARK  104  A    between atoms: N_345  and  CA_346
REMARK  105  A    between atoms: CA_346  and  C_347
REMARK  106  A    between atoms: CA_346  and  CB_349
REMARK  107  A    between atoms: CB_349  and  CG_350
REMARK  108  A    between atoms: CG_350  and  CD1_351
REMARK  109  A    between atoms: CG_350  and  CD2_352
REMARK  110  A    between atoms: N_364  and  CA_365
REMARK  111  A    between atoms: CA_365  and  C_366
REMARK  112  A    between atoms: CA_365  and  CB_368
REMARK  113  A    between atoms: CB_368  and  CG_369
REMARK  114  A    between atoms: N_378  and  CA_379
REMARK  115  A    between atoms: CA_379  and  C_380
REMARK  116  A    between atoms: CA_379  and  CB_382
REMARK  117  A    between atoms: CB_382  and  CG_383
REMARK  118  A    between atoms: CG_383  and  CD1_384
REMARK  119  A    between atoms: CG_383  and  CD2_385
REMARK  120  A    between atoms: N_397  and  CA_398
REMARK  121  A    between atoms: CA_398  and  C_399
REMARK  122  A    between atoms: CA_398  and  CB_401
REMARK  123  A    between atoms: CB_401  and  CG_402
REMARK  124  A    between atoms: CG_402  and  CD_403
REMARK  125  A    between atoms: CD_403  and  NE_404
REMARK  126  A    between atoms: N_421  and  CA_422
REMARK  127  A    between atoms: CA_422  and  C_423
REMARK  128  A    between atoms: CA_422  and  CB_425
REMARK  129  A    between atoms: CB_425  and  CG_426
REMARK  130  A    between atoms: CG_426  and  CD1_427
REMARK  131  A    between atoms: CG_426  and  CD2_428
REMARK  132  A    between atoms: N_440  and  CA_441
REMARK  133  A    between atoms: CA_441  and  C_442
REMARK  134  A    between atoms: CA_441  and  CB_444
REMARK  135  A    between atoms: CB_444  and  CG_445
REMARK  136  A    between atoms: CG_445  and  CD1_446
REMARK  137  A    between atoms: CG_445  and  CD2_447
REMARK  138  A    between atoms: N_459  and  CA_460
REMARK  139  A    between atoms: CA_460  and  C_461
REMARK  140  A    between atoms: CA_460  and  CB_463
REMARK  141  A    between atoms: CB_463  and  CG_464
REMARK  142  A    between atoms: CG_464  and  CD_465
REMARK  143  A    between atoms: CD_465  and  CE_466
REMARK  144  A    between atoms: CE_466  and  NZ_467
REMARK  145  A    between atoms: N_481  and  CA_482
REMARK  146  A    between atoms: CA_482  and  C_483
REMARK  147  A    between atoms: CA_482  and  CB_485
REMARK  148  A    between atoms: CB_485  and  CG_486
REMARK  149  A    between atoms: CG_486  and  CD_487
REMARK  150  A    between atoms: CD_487  and  CE_488
REMARK  151  A    between atoms: CE_488  and  NZ_489
REMARK  152  A    between atoms: N_503  and  CA_504
REMARK  153  A    between atoms: CA_504  and  C_505
REMARK  154  A    between atoms: CA_504  and  CB_507
REMARK  155  A    between atoms: CB_507  and  CG_508
REMARK  156  A    between atoms: N_521  and  CA_522
REMARK  157  A    between atoms: CA_522  and  C_523
REMARK  158  A    between atoms: CA_522  and  CB_525
REMARK  159  A    between atoms: CB_525  and  CG_526
REMARK  160  A    between atoms: N_535  and  CA_536
REMARK  161  A    between atoms: CA_536  and  C_537
REMARK  162  A    between atoms: CA_536  and  CB_539
REMARK  163  A    between atoms: CB_539  and  CG_540
REMARK  164  A    between atoms: CZ_545  and  OH_546
REMARK  165  A    between atoms: N_556  and  CA_557
REMARK  166  A    between atoms: CA_557  and  C_558
REMARK  167  A    between atoms: CA_557  and  CB_560
REMARK  168  A    between atoms: CB_560  and  CG_561
REMARK  169  A    between atoms: N_570  and  CA_571
REMARK  170  A    between atoms: CA_571  and  C_572
REMARK  171  A    between atoms: CA_571  and  CB_574
REMARK  172  A    between atoms: CB_574  and  CG1_575
REMARK  173  A    between atoms: CB_574  and  CG2_576
REMARK  174  A    between atoms: CG1_575  and  CD1_577
REMARK  175  A    between atoms: N_589  and  CA_590
REMARK  176  A    between atoms: CA_590  and  C_591
REMARK  177  A    between atoms: CA_590  and  CB_593
REMARK  178  A    between atoms: CB_593  and  CG_594
REMARK  179  A    between atoms: CG_594  and  CD1_595
REMARK  180  A    between atoms: CG_594  and  CD2_596
REMARK  181  A    between atoms: N_608  and  CA_609
REMARK  182  A    between atoms: CA_609  and  C_610
REMARK  183  A    between atoms: CA_609  and  CB_612
REMARK  184  A    between atoms: CB_612  and  CG_613
REMARK  185  A    between atoms: CG_613  and  CD_614
REMARK  186  A    between atoms: N_625  and  CA_626
REMARK  187  A    between atoms: CA_626  and  C_627
REMARK  188  A    between atoms: CA_626  and  CB_629
REMARK  189  A    between atoms: CB_629  and  CG1_630
REMARK  190  A    between atoms: CB_629  and  CG2_631
REMARK  191  A    between atoms: N_641  and  CA_642
REMARK  192  A    between atoms: CA_642  and  C_643
REMARK  193  A    between atoms: CA_642  and  CB_645
REMARK  194  A    between atoms: CB_645  and  CG1_646
REMARK  195  A    between atoms: CB_645  and  CG2_647
REMARK  196  A    between atoms: N_657  and  CA_658
REMARK  197  A    between atoms: CA_658  and  C_659
REMARK  198  A    between atoms: CA_658  and  CB_661
REMARK  199  A    between atoms: CB_661  and  OG1_662
REMARK  200  A    between atoms: CB_661  and  CG2_663
REMARK  201  A    between atoms: N_671  and  CA_672
REMARK  202  A    between atoms: CA_672  and  C_673
REMARK  203  A    between atoms: CA_672  and  CB_675
REMARK  204  A    between atoms: CB_675  and  CG_676
REMARK  205  A    between atoms: CG_676  and  CD_677
REMARK  206  A    between atoms: N_686  and  CA_687
REMARK  207  A    between atoms: CA_687  and  C_688
REMARK  208  A    between atoms: CA_687  and  CB_690
REMARK  209  A    between atoms: CB_690  and  CG_691
REMARK  210  A    between atoms: CG_691  and  CD1_692
REMARK  211  A    between atoms: CG_691  and  CD2_693
REMARK  212  A    between atoms: N_705  and  CA_706
REMARK  213  A    between atoms: CA_706  and  C_707
REMARK  214  A    between atoms: CA_706  and  CB_709
REMARK  215  A    between atoms: CB_709  and  CG_710
REMARK  216  A    between atoms: CG_710  and  CD1_711
REMARK  217  A    between atoms: CG_710  and  CD2_712
REMARK  218  A    between atoms: N_724  and  CA_725
REMARK  219  A    between atoms: CA_725  and  C_726
REMARK  220  A    between atoms: CA_725  and  CB_728
REMARK  221  A    between atoms: CB_728  and  CG_729
REMARK  222  A    between atoms: CG_729  and  CD_730
REMARK  223  A    between atoms: N_741  and  CA_742
REMARK  224  A    between atoms: CA_742  and  C_743
REMARK  225  A    between atoms: CA_742  and  CB_745
REMARK  226  A    between atoms: CB_745  and  CG_746
REMARK  227  A    between atoms: CG_746  and  CD1_747
REMARK  228  A    between atoms: CG_746  and  CD2_748
REMARK  229  A    between atoms: N_760  and  CA_761
REMARK  230  A    between atoms: CA_761  and  C_762
REMARK  231  A    between atoms: CA_761  and  CB_764
REMARK  232  A    between atoms: CB_764  and  OG_765
REMARK  233  A    between atoms: N_771  and  CA_772
REMARK  234  A    between atoms: CA_772  and  C_773
REMARK  235  A    between atoms: CA_779  and  C_780
REMARK  236  A    between atoms: N_792  and  CA_793
REMARK  237  A    between atoms: CA_793  and  C_794
REMARK  238  A    between atoms: CA_793  and  CB_796
REMARK  239  A    between atoms: CB_796  and  OG_797
REMARK  240  A    between atoms: N_803  and  CA_804
REMARK  241  A    between atoms: CA_804  and  C_805
REMARK  242  A    between atoms: CA_804  and  CB_807
REMARK  243  A    between atoms: CB_807  and  OG_808
REMARK  244  A    between atoms: N_814  and  CA_815
REMARK  245  A    between atoms: CA_815  and  C_816
REMARK                            x       y       z     vdW  Elec       q    Type
REMARK                         _______ _______ _______ _____ _____    ______ ____
ROOT
ATOM      1  CA  ARG A  29      -0.644  -1.692   6.708  0.00  0.00    +0.000 C 
ENDROOT
BRANCH   1   2
ATOM      2  C   ARG A  29       0.638  -1.426   5.925  0.00  0.00    +0.000 C 
ATOM      3  O   ARG A  29       1.538  -0.734   6.403  0.00  0.00    +0.000 OA
ATOM      4  N   LEU A  30       0.714  -1.980   4.720  0.00  0.00    +0.000 N 
ATOM      5  H   LEU A  30      -0.035  -2.521   4.393  0.00  0.00    +0.000 HD
BRANCH   4   6
ATOM      6  CA  LEU A  30       1.886  -1.804   3.869  0.00  0.00    +0.000 C 
BRANCH   6   7
ATOM      7  C   LEU A  30       1.963  -0.377   3.336  0.00  0.00    +0.000 C 
ATOM      8  O   LEU A  30       3.001   0.279   3.434  0.00  0.00    +0.000 OA
ATOM      9  N   LEU A  31       0.857   0.099   2.774  0.00  0.00    +0.000 N 
ATOM     10  H   LEU A  31       0.062  -0.470   2.726  0.00  0.00    +0.000 HD
BRANCH   9  11
ATOM     11  CA  LEU A  31       0.797   1.450   2.228  0.00  0.00    +0.000 C 
BRANCH  11  12
ATOM     12  C   LEU A  31       1.420   2.456   3.191  0.00  0.00    +0.000 C 
ATOM     13  O   LEU A  31       2.274   3.254   2.807  0.00  0.00    +0.000 OA
ATOM     14  N   LYS A  32       0.986   2.410   4.447  0.00  0.00    +0.000 N 
ATOM     15  H   LYS A  32       0.303   1.752   4.693  0.00  0.00    +0.000 HD
BRANCH  14  16
ATOM     16  CA  LYS A  32       1.502   3.314   5.468  0.00  0.00    +0.000 C 
BRANCH  16  17
ATOM     17  C   LYS A  32       2.778   2.758   6.093  0.00  0.00    +0.000 C 
ATOM     18  O   LYS A  32       3.088   3.039   7.251  0.00  0.00    +0.000 OA
ATOM     19  N   LYS A  33       3.514   1.968   5.319  0.00  0.00    +0.000 N 
ATOM     20  H   LYS A  33       3.215   1.780   4.404  0.00  0.00    +0.000 HD
BRANCH  19  21
ATOM     21  CA  LYS A  33       4.758   1.373   5.795  0.00  0.00    +0.000 C 
BRANCH  21  22
ATOM     22  C   LYS A  33       5.863   1.517   4.754  0.00  0.00    +0.000 C 
ATOM     23  O   LYS A  33       7.021   1.764   5.092  0.00  0.00    +0.000 OA
ATOM     24  N   HIS A  34       5.498   1.361   3.485  0.00  0.00    +0.000 N 
ATOM     25  H   HIS A  34       4.561   1.165   3.278  0.00  0.00    +0.000 HD
BRANCH  24  26
ATOM     26  CA  HIS A  34       6.459   1.475   2.394  0.00  0.00    +0.000 C 
BRANCH  26  27
ATOM     27  C   HIS A  34       6.157   2.695   1.529  0.00  0.00    +0.000 C 
ATOM     28  O   HIS A  34       6.471   2.718   0.340  0.00  0.00    +0.000 OA
ATOM     29  N   ASN A  35       5.545   3.707   2.136  0.00  0.00    +0.000 N 
ATOM     30  H   ASN A  35       5.320   3.630   3.087  0.00  0.00    +0.000 HD
BRANCH  29  31
ATOM     31  CA  ASN A  35       5.200   4.931   1.421  0.00  0.00    +0.000 C 
BRANCH  31  32
ATOM     32  C   ASN A  35       4.339   4.622   0.199  0.00  0.00    +0.000 C 
ATOM     33  O   ASN A  35       4.543   5.188  -0.875  0.00  0.00    +0.000 OA
ATOM     34  N   TYR A  36       3.378   3.722   0.372  0.00  0.00    +0.000 N 
ATOM     35  H   TYR A  36       3.265   3.305   1.252  0.00  0.00    +0.000 HD
BRANCH  34  36
ATOM     36  CA  TYR A  36       2.488   3.336  -0.716  0.00  0.00    +0.000 C 
BRANCH  36  37
ATOM     37  C   TYR A  36       3.281   2.816  -1.911  0.00  0.00    +0.000 C 
ATOM     38  O   TYR A  36       2.920   3.057  -3.062  0.00  0.00    +0.000 OA
ATOM     39  N   ASN A  37       4.365   2.101  -1.627  0.00  0.00    +0.000 N 
ATOM     40  H   ASN A  37       4.602   1.943  -0.690  0.00  0.00    +0.000 HD
BRANCH  39  41
ATOM     41  CA  ASN A  37       5.211   1.546  -2.678  0.00  0.00    +0.000 C 
BRANCH  41  42
ATOM     42  C   ASN A  37       4.617   0.252  -3.227  0.00  0.00    +0.000 C 
ATOM     43  O   ASN A  37       4.998  -0.843  -2.811  0.00  0.00    +0.000 OA
ATOM     44  N   ILE A  38       3.684   0.386  -4.163  0.00  0.00    +0.000 N 
ATOM     45  H   ILE A  38       3.423   1.285  -4.453  0.00  0.00    +0.000 HD
BRANCH  44  46
ATOM     46  CA  ILE A  38       3.040  -0.772  -4.770  0.00  0.00    +0.000 C 
BRANCH  46  47
ATOM     47  C   ILE A  38       4.011  -1.941  -4.890  0.00  0.00    +0.000 C 
ATOM     48  O   ILE A  38       3.646  -3.092  -4.647  0.00  0.00    +0.000 OA
ATOM     49  N   LEU A  39       5.249  -1.639  -5.264  0.00  0.00    +0.000 N 
ATOM     50  H   LEU A  39       5.480  -0.704  -5.444  0.00  0.00    +0.000 HD
BRANCH  49  51
ATOM     51  CA  LEU A  39       6.275  -2.665  -5.415  0.00  0.00    +0.000 C 
BRANCH  51  52
ATOM     52  C   LEU A  39       6.518  -3.389  -4.095  0.00  0.00    +0.000 C 
ATOM     53  O   LEU A  39       6.312  -4.598  -3.993  0.00  0.00    +0.000 OA
ATOM     54  N   GLN A  40       6.955  -2.642  -3.087  0.00  0.00    +0.000 N 
ATOM     55  H   GLN A  40       7.100  -1.684  -3.230  0.00  0.00    +0.000 HD
BRANCH  54  56
ATOM     56  CA  GLN A  40       7.224  -3.213  -1.773  0.00  0.00    +0.000 C 
BRANCH  56  57
ATOM     57  C   GLN A  40       5.975  -3.874  -1.200  0.00  0.00    +0.000 C 
ATOM     58  O   GLN A  40       6.045  -4.950  -0.606  0.00  0.00    +0.000 OA
ATOM     59  N   VAL A  41       4.830  -3.222  -1.383  0.00  0.00    +0.000 N 
ATOM     60  H   VAL A  41       4.838  -2.369  -1.864  0.00  0.00    +0.000 HD
BRANCH  59  61
ATOM     61  CA  VAL A  41       3.564  -3.747  -0.885  0.00  0.00    +0.000 C 
BRANCH  61  62
ATOM     62  C   VAL A  41       3.263  -5.116  -1.484  0.00  0.00    +0.000 C 
ATOM     63  O   VAL A  41       2.818  -6.027  -0.785  0.00  0.00    +0.000 OA
ATOM     64  N   VAL A  42       3.509  -5.254  -2.783  0.00  0.00    +0.000 N 
ATOM     65  H   VAL A  42       3.863  -4.492  -3.286  0.00  0.00    +0.000 HD
BRANCH  64  66
ATOM     66  CA  VAL A  42       3.265  -6.513  -3.477  0.00  0.00    +0.000 C 
BRANCH  66  67
ATOM     67  C   VAL A  42       4.361  -7.529  -3.173  0.00  0.00    +0.000 C 
ATOM     68  O   VAL A  42       4.095  -8.604  -2.633  0.00  0.00    +0.000 OA
ATOM     69  N   THR A  43       5.595  -7.182  -3.523  0.00  0.00    +0.000 N 
ATOM     70  H   THR A  43       5.744  -6.313  -3.950  0.00  0.00    +0.000 HD
BRANCH  69  71
ATOM     71  CA  THR A  43       6.732  -8.064  -3.288  0.00  0.00    +0.000 C 
BRANCH  71  72
ATOM     72  C   THR A  43       6.624  -8.753  -1.933  0.00  0.00    +0.000 C 
ATOM     73  O   THR A  43       6.915  -9.941  -1.806  0.00  0.00    +0.000 OA
ATOM     74  N   GLU A  44       6.201  -7.998  -0.923  0.00  0.00    +0.000 N 
ATOM     75  H   GLU A  44       5.984  -7.057  -1.087  0.00  0.00    +0.000 HD
BRANCH  74  76
ATOM     76  CA  GLU A  44       6.055  -8.538   0.424  0.00  0.00    +0.000 C 
BRANCH  76  77
ATOM     77  C   GLU A  44       4.941  -9.580   0.474  0.00  0.00    +0.000 C 
ATOM     78  O   GLU A  44       5.145 -10.702   0.938  0.00  0.00    +0.000 OA
ATOM     79  N   LEU A  45       3.762  -9.199  -0.006  0.00  0.00    +0.000 N 
ATOM     80  H   LEU A  45       3.660  -8.293  -0.362  0.00  0.00    +0.000 HD
BRANCH  79  81
ATOM     81  CA  LEU A  45       2.613 -10.099  -0.016  0.00  0.00    +0.000 C 
BRANCH  81  82
ATOM     82  C   LEU A  45       2.977 -11.438  -0.650  0.00  0.00    +0.000 C 
ATOM     83  O   LEU A  45       2.665 -12.499  -0.107  0.00  0.00    +0.000 OA
ATOM     84  N   LEU A  46       3.639 -11.382  -1.800  0.00  0.00    +0.000 N 
ATOM     85  H   LEU A  46       3.860 -10.508  -2.183  0.00  0.00    +0.000 HD
BRANCH  84  86
ATOM     86  CA  LEU A  46       4.048 -12.591  -2.507  0.00  0.00    +0.000 C 
BRANCH  86  87
ATOM     87  C   LEU A  46       4.860 -13.507  -1.596  0.00  0.00    +0.000 C 
ATOM     88  O   LEU A  46       4.748 -14.730  -1.671  0.00  0.00    +0.000 OA
ATOM     89  N   GLN A  47       5.676 -12.905  -0.736  0.00  0.00    +0.000 N 
ATOM     90  H   GLN A  47       5.721 -11.927  -0.725  0.00  0.00    +0.000 HD
BRANCH  89  91
ATOM     91  CA  GLN A  47       6.505 -13.667   0.190  0.00  0.00    +0.000 C 
BRANCH  91  92
ATOM     92  C   GLN A  47       5.646 -14.400   1.214  0.00  0.00    +0.000 C 
ATOM     93  O   GLN A  47       5.776 -15.611   1.397  0.00  0.00    +0.000 OA
ATOM     94  N   LEU A  48       4.767 -13.659   1.880  0.00  0.00    +0.000 N 
ATOM     95  H   LEU A  48       4.709 -12.699   1.690  0.00  0.00    +0.000 HD
BRANCH  94  96
ATOM     96  CA  LEU A  48       3.884 -14.238   2.887  0.00  0.00    +0.000 C 
BRANCH  96  97
ATOM     97  C   LEU A  48       3.225 -15.511   2.366  0.00  0.00    +0.000 C 
ATOM     98  O   LEU A  48       3.416 -16.593   2.922  0.00  0.00    +0.000 OA
ATOM     99  N   SER A  49       2.451 -15.375   1.294  0.00  0.00    +0.000 N 
ATOM    100  H   SER A  49       2.339 -14.486   0.896  0.00  0.00    +0.000 HD
BRANCH  99 101
ATOM    101  CA  SER A  49       1.762 -16.514   0.698  0.00  0.00    +0.000 C 
BRANCH 101 102
ATOM    102  C   SER A  49       2.721 -17.347  -0.147  0.00  0.00    +0.000 C 
ATOM    103  O   SER A  49       3.492 -16.811  -0.942  0.00  0.00    +0.000 OA
ATOM    104  N   GLY A  50       2.666 -18.663   0.032  0.00  0.00    +0.000 N 
ATOM    105  H   GLY A  50       2.032 -19.035   0.680  0.00  0.00    +0.000 HD
BRANCH 104 106
ATOM    106  CA  GLY A  50       3.534 -19.551  -0.720  0.00  0.00    +0.000 C 
BRANCH 106 107
ATOM    107  C   GLY A  50       4.471 -20.340   0.173  0.00  0.00    +0.000 C 
ATOM    108  O   GLY A  50       4.592 -20.075   1.370  0.00  0.00    +0.000 OA
ATOM    109  N   PRO A  51       5.152 -21.337  -0.411  0.00  0.00    +0.000 N 
ATOM    110  CA  PRO A  51       6.093 -22.189   0.322  0.00  0.00    +0.000 C 
ATOM    111  CB  PRO A  51       6.433 -23.291  -0.684  0.00  0.00    +0.000 C 
ATOM    112  CG  PRO A  51       6.197 -22.671  -2.018  0.00  0.00    +0.000 C 
ATOM    113  CD  PRO A  51       5.056 -21.709  -1.832  0.00  0.00    +0.000 C 
BRANCH 110 114
ATOM    114  C   PRO A  51       7.354 -21.437   0.735  0.00  0.00    +0.000 C 
ATOM    115  O   PRO A  51       8.154 -21.936   1.527  0.00  0.00    +0.000 OA
ATOM    116  N   SER A  52       7.526 -20.236   0.193  0.00  0.00    +0.000 N 
ATOM    117  H   SER A  52       6.853 -19.893  -0.432  0.00  0.00    +0.000 HD
BRANCH 116 118
ATOM    118  CA  SER A  52       8.692 -19.417   0.503  0.00  0.00    +0.000 C 
BRANCH 118 119
ATOM    119  C   SER A  52       8.519 -18.710   1.844  0.00  0.00    +0.000 C 
ATOM    120  O   SER A  52       7.986 -17.602   1.910  0.00  0.00    +0.000 OA
ATOM    121  N   SER A  53       8.973 -19.359   2.911  0.00  0.00    +0.000 N 
ATOM    122  H   SER A  53       9.387 -20.240   2.794  0.00  0.00    +0.000 HD
BRANCH 121 123
ATOM    123  CA  SER A  53       8.865 -18.796   4.252  0.00  0.00    +0.000 C 
BRANCH 123 124
ATOM    124  C   SER A  53      10.246 -18.591   4.867  0.00  0.00    +0.000 C 
ATOM    125  O   SER A  53      10.530 -17.544   5.448  0.00  0.00    +0.000 OA
ATOM    126  N   GLY A  54      11.102 -19.600   4.734  0.00  0.00    +0.000 N 
ATOM    127  H   GLY A  54      10.821 -20.410   4.261  0.00  0.00    +0.000 HD
BRANCH 126 128
ATOM    128  CA  GLY A  54      12.443 -19.511   5.282  0.00  0.00    +0.000 C 
BRANCH 128 129
ATOM    129  C   GLY A  54      13.474 -19.144   4.234  0.00  0.00    +0.000 C 
ATOM    130  O   GLY A  54      13.485 -18.021   3.730  0.00  0.00    +0.000 OA
ATOM    131  OXT GLY A  54      13.902 -20.267   4.374  0.00  0.00    +0.000 OA
ENDBRANCH 128 129
ENDBRANCH 126 128
ENDBRANCH 123 124
BRANCH 123 132
ATOM    132  CB  SER A  53       8.026 -19.711   5.146  0.00  0.00    +0.000 C 
BRANCH 132 133
ATOM    133  OG  SER A  53       7.437 -18.983   6.210  0.00  0.00    +0.000 OA
ATOM    134  HG  SER A  53       7.066 -18.165   5.872  0.00  0.00    +0.000 HD
ENDBRANCH 132 133
ENDBRANCH 123 132
ENDBRANCH 121 123
ENDBRANCH 118 119
BRANCH 118 135
ATOM    135  CB  SER A  52       8.926 -18.386  -0.603  0.00  0.00    +0.000 C 
BRANCH 135 136
ATOM    136  OG  SER A  52      10.285 -17.988  -0.650  0.00  0.00    +0.000 OA
ATOM    137  HG  SER A  52      10.836 -18.686  -0.289  0.00  0.00    +0.000 HD
ENDBRANCH 135 136
ENDBRANCH 118 135
ENDBRANCH 116 118
ENDBRANCH 110 114
ENDBRANCH 106 107
ENDBRANCH 104 106
ENDBRANCH 101 102
BRANCH 101 138
ATOM    138  CB  SER A  49       0.591 -16.035  -0.161  0.00  0.00    +0.000 C 
BRANCH 138 139
ATOM    139  OG  SER A  49      -0.265 -15.178   0.574  0.00  0.00    +0.000 OA
ATOM    140  HG  SER A  49      -0.741 -15.689   1.233  0.00  0.00    +0.000 HD
ENDBRANCH 138 139
ENDBRANCH 101 138
ENDBRANCH  99 101
ENDBRANCH  96  97
BRANCH  96 141
ATOM    141  CB  LEU A  48       2.813 -13.227   3.297  0.00  0.00    +0.000 C 
BRANCH 141 142
ATOM    142  CG  LEU A  48       3.322 -11.919   3.904  0.00  0.00    +0.000 C 
ATOM    143  CD1 LEU A  48       2.304 -10.807   3.706  0.00  0.00    +0.000 C 
ATOM    144  CD2 LEU A  48       3.634 -12.102   5.382  0.00  0.00    +0.000 C 
ENDBRANCH 141 142
ENDBRANCH  96 141
ENDBRANCH  94  96
ENDBRANCH  91  92
BRANCH  91 145
ATOM    145  CB  GLN A  47       7.492 -12.741   0.903  0.00  0.00    +0.000 C 
BRANCH 145 146
ATOM    146  CG  GLN A  47       8.576 -12.188  -0.008  0.00  0.00    +0.000 C 
BRANCH 146 147
ATOM    147  CD  GLN A  47       9.836 -11.810   0.745  0.00  0.00    +0.000 C 
ATOM    148  OE1 GLN A  47      10.614 -12.674   1.149  0.00  0.00    +0.000 OA
ATOM    149  NE2 GLN A  47      10.043 -10.513   0.940  0.00  0.00    +0.000 N 
ATOM    150 HE21 GLN A  47       9.379  -9.881   0.591  0.00  0.00    +0.000 HD
ATOM    151 HE22 GLN A  47      10.849 -10.241   1.424  0.00  0.00    +0.000 HD
ENDBRANCH 146 147
ENDBRANCH 145 146
ENDBRANCH  91 145
ENDBRANCH  89  91
ENDBRANCH  86  87
BRANCH  86 152
ATOM    152  CB  LEU A  46       4.867 -12.228  -3.746  0.00  0.00    +0.000 C 
BRANCH 152 153
ATOM    153  CG  LEU A  46       4.155 -11.374  -4.795  0.00  0.00    +0.000 C 
ATOM    154  CD1 LEU A  46       5.166 -10.698  -5.709  0.00  0.00    +0.000 C 
ATOM    155  CD2 LEU A  46       3.185 -12.222  -5.605  0.00  0.00    +0.000 C 
ENDBRANCH 152 153
ENDBRANCH  86 152
ENDBRANCH  84  86
ENDBRANCH  81  82
BRANCH  81 156
ATOM    156  CB  LEU A  45       1.448  -9.462  -0.775  0.00  0.00    +0.000 C 
BRANCH 156 157
ATOM    157  CG  LEU A  45       0.788  -8.258  -0.104  0.00  0.00    +0.000 C 
ATOM    158  CD1 LEU A  45       0.123  -7.366  -1.141  0.00  0.00    +0.000 C 
ATOM    159  CD2 LEU A  45      -0.225  -8.716   0.936  0.00  0.00    +0.000 C 
ENDBRANCH 156 157
ENDBRANCH  81 156
ENDBRANCH  79  81
ENDBRANCH  76  77
BRANCH  76 160
ATOM    160  CB  GLU A  44       5.762  -7.413   1.419  0.00  0.00    +0.000 C 
BRANCH 160 161
ATOM    161  CG  GLU A  44       5.639  -7.890   2.857  0.00  0.00    +0.000 C 
BRANCH 161 162
ATOM    162  CD  GLU A  44       6.987  -8.094   3.521  0.00  0.00    +0.000 C 
ATOM    163  OE1 GLU A  44       7.933  -8.518   2.824  0.00  0.00    +0.000 OA
ATOM    164  OE2 GLU A  44       7.096  -7.830   4.736  0.00  0.00    +0.000 OA
ENDBRANCH 161 162
ENDBRANCH 160 161
ENDBRANCH  76 160
ENDBRANCH  74  76
ENDBRANCH  71  72
BRANCH  71 165
ATOM    165  CB  THR A  43       8.064  -7.292  -3.354  0.00  0.00    +0.000 C 
ATOM    166  CG2 THR A  43       9.238  -8.213  -3.058  0.00  0.00    +0.000 C 
BRANCH 165 167
ATOM    167  OG1 THR A  43       8.226  -6.705  -4.650  0.00  0.00    +0.000 OA
ATOM    168  HG1 THR A  43       8.679  -5.862  -4.565  0.00  0.00    +0.000 HD
ENDBRANCH 165 167
ENDBRANCH  71 165
ENDBRANCH  69  71
ENDBRANCH  66  67
BRANCH  66 169
ATOM    169  CB  VAL A  42       3.180  -6.307  -5.001  0.00  0.00    +0.000 C 
ATOM    170  CG1 VAL A  42       3.005  -7.640  -5.711  0.00  0.00    +0.000 C 
ATOM    171  CG2 VAL A  42       2.044  -5.356  -5.347  0.00  0.00    +0.000 C 
ENDBRANCH  66 169
ENDBRANCH  64  66
ENDBRANCH  61  62
BRANCH  61 172
ATOM    172  CB  VAL A  41       2.398  -2.792  -1.201  0.00  0.00    +0.000 C 
ATOM    173  CG1 VAL A  41       1.074  -3.406  -0.774  0.00  0.00    +0.000 C 
ATOM    174  CG2 VAL A  41       2.613  -1.446  -0.526  0.00  0.00    +0.000 C 
ENDBRANCH  61 172
ENDBRANCH  59  61
ENDBRANCH  56  57
BRANCH  56 175
ATOM    175  CB  GLN A  40       7.728  -2.131  -0.816  0.00  0.00    +0.000 C 
BRANCH 175 176
ATOM    176  CG  GLN A  40       8.988  -1.431  -1.298  0.00  0.00    +0.000 C 
BRANCH 176 177
ATOM    177  CD  GLN A  40      10.244  -2.235  -1.025  0.00  0.00    +0.000 C 
ATOM    178  OE1 GLN A  40      10.519  -2.609   0.116  0.00  0.00    +0.000 OA
ATOM    179  NE2 GLN A  40      11.013  -2.507  -2.073  0.00  0.00    +0.000 N 
ATOM    180 HE21 GLN A  40      10.730  -2.177  -2.951  0.00  0.00    +0.000 HD
ATOM    181 HE22 GLN A  40      11.830  -3.025  -1.925  0.00  0.00    +0.000 HD
ENDBRANCH 176 177
ENDBRANCH 175 176
ENDBRANCH  56 175
ENDBRANCH  54  56
ENDBRANCH  51  52
BRANCH  51 182
ATOM    182  CB  LEU A  39       7.579  -2.040  -5.915  0.00  0.00    +0.000 C 
BRANCH 182 183
ATOM    183  CG  LEU A  39       7.718  -1.901  -7.431  0.00  0.00    +0.000 C 
ATOM    184  CD1 LEU A  39       7.722  -3.270  -8.095  0.00  0.00    +0.000 C 
ATOM    185  CD2 LEU A  39       6.598  -1.037  -7.993  0.00  0.00    +0.000 C 
ENDBRANCH 182 183
ENDBRANCH  51 182
ENDBRANCH  49  51
ENDBRANCH  46  47
BRANCH  46 186
ATOM    186  CB  ILE A  38       2.481  -0.437  -6.166  0.00  0.00    +0.000 C 
ATOM    187  CG2 ILE A  38       3.612  -0.074  -7.116  0.00  0.00    +0.000 C 
BRANCH 186 188
ATOM    188  CG1 ILE A  38       1.677  -1.618  -6.713  0.00  0.00    +0.000 C 
ATOM    189  CD1 ILE A  38       0.329  -1.791  -6.049  0.00  0.00    +0.000 C 
ENDBRANCH 186 188
ENDBRANCH  46 186
ENDBRANCH  44  46
ENDBRANCH  41  42
BRANCH  41 190
ATOM    190  CB  ASN A  37       6.620   1.287  -2.142  0.00  0.00    +0.000 C 
BRANCH 190 191
ATOM    191  CG  ASN A  37       7.530   2.489  -2.304  0.00  0.00    +0.000 C 
ATOM    192  OD1 ASN A  37       7.094   3.559  -2.728  0.00  0.00    +0.000 OA
ATOM    193  ND2 ASN A  37       8.803   2.317  -1.965  0.00  0.00    +0.000 N 
ATOM    194 HD21 ASN A  37       9.080   1.437  -1.635  0.00  0.00    +0.000 HD
ATOM    195 HD22 ASN A  37       9.413   3.078  -2.059  0.00  0.00    +0.000 HD
ENDBRANCH 190 191
ENDBRANCH  41 190
ENDBRANCH  39  41
ENDBRANCH  36  37
BRANCH  36 196
ATOM    196  CB  TYR A  36       1.624   4.525  -1.142  0.00  0.00    +0.000 C 
BRANCH 196 197
ATOM    197  CG  TYR A  36       0.785   5.096  -0.021  0.00  0.00    +0.000 A 
ATOM    198  CD1 TYR A  36       1.380   5.698   1.081  0.00  0.00    +0.000 A 
ATOM    199  CD2 TYR A  36      -0.602   5.034  -0.063  0.00  0.00    +0.000 A 
ATOM    200  CE1 TYR A  36       0.618   6.221   2.108  0.00  0.00    +0.000 A 
ATOM    201  CE2 TYR A  36      -1.372   5.555   0.958  0.00  0.00    +0.000 A 
ATOM    202  CZ  TYR A  36      -0.757   6.147   2.042  0.00  0.00    +0.000 A 
BRANCH 202 203
ATOM    203  OH  TYR A  36      -1.521   6.666   3.062  0.00  0.00    +0.000 OA
ATOM    204  HH  TYR A  36      -2.446   6.464   2.904  0.00  0.00    +0.000 HD
ENDBRANCH 202 203
ENDBRANCH 196 197
ENDBRANCH  36 196
ENDBRANCH  34  36
ENDBRANCH  31  32
BRANCH  31 205
ATOM    205  CB  ASN A  35       6.468   5.671   0.992  0.00  0.00    +0.000 C 
BRANCH 205 206
ATOM    206  CG  ASN A  35       6.255   7.169   0.885  0.00  0.00    +0.000 C 
ATOM    207  OD1 ASN A  35       6.035   7.848   1.888  0.00  0.00    +0.000 OA
ATOM    208  ND2 ASN A  35       6.320   7.690  -0.335  0.00  0.00    +0.000 N 
ATOM    209 HD21 ASN A  35       6.499   7.087  -1.087  0.00  0.00    +0.000 HD
ATOM    210 HD22 ASN A  35       6.187   8.656  -0.432  0.00  0.00    +0.000 HD
ENDBRANCH 205 206
ENDBRANCH  31 205
ENDBRANCH  29  31
ENDBRANCH  26  27
BRANCH  26 211
ATOM    211  CB  HIS A  34       6.440   0.210   1.535  0.00  0.00    +0.000 C 
BRANCH 211 212
ATOM    212  CG  HIS A  34       6.858  -1.023   2.275  0.00  0.00    +0.000 C 
ATOM    213  ND1 HIS A  34       8.090  -1.156   2.880  0.00  0.00    +0.000 N 
ATOM    214  CD2 HIS A  34       6.199  -2.182   2.508  0.00  0.00    +0.000 C 
ATOM    215  CE1 HIS A  34       8.172  -2.345   3.451  0.00  0.00    +0.000 C 
ATOM    216  NE2 HIS A  34       7.037  -2.987   3.241  0.00  0.00    +0.000 N 
ATOM    217  HD1 HIS A  34       8.800  -0.481   2.888  0.00  0.00    +0.000 HD
ATOM    218  HE2 HIS A  34       6.863  -3.920   3.483  0.00  0.00    +0.000 HD
ENDBRANCH 211 212
ENDBRANCH  26 211
ENDBRANCH  24  26
ENDBRANCH  21  22
BRANCH  21 219
ATOM    219  CB  LYS A  33       4.546  -0.105   6.129  0.00  0.00    +0.000 C 
BRANCH 219 220
ATOM    220  CG  LYS A  33       5.698  -0.726   6.898  0.00  0.00    +0.000 C 
BRANCH 220 221
ATOM    221  CD  LYS A  33       6.739  -1.318   5.962  0.00  0.00    +0.000 C 
BRANCH 221 222
ATOM    222  CE  LYS A  33       7.855  -2.007   6.733  0.00  0.00    +0.000 C 
BRANCH 222 223
ATOM    223  NZ  LYS A  33       8.794  -1.027   7.344  0.00  0.00    +0.000 N 
ATOM    224  HZ1 LYS A  33       9.764  -1.403   7.326  0.00  0.00    +0.000 HD
ATOM    225  HZ2 LYS A  33       8.525  -0.841   8.331  0.00  0.00    +0.000 HD
ATOM    226  HZ3 LYS A  33       8.771  -0.132   6.815  0.00  0.00    +0.000 HD
ENDBRANCH 222 223
ENDBRANCH 221 222
ENDBRANCH 220 221
ENDBRANCH 219 220
ENDBRANCH  21 219
ENDBRANCH  19  21
ENDBRANCH  16  17
BRANCH  16 227
ATOM    227  CB  LYS A  32       0.449   3.546   6.553  0.00  0.00    +0.000 C 
BRANCH 227 228
ATOM    228  CG  LYS A  32      -0.737   4.372   6.084  0.00  0.00    +0.000 C 
BRANCH 228 229
ATOM    229  CD  LYS A  32      -1.747   3.521   5.333  0.00  0.00    +0.000 C 
BRANCH 229 230
ATOM    230  CE  LYS A  32      -3.135   4.142   5.369  0.00  0.00    +0.000 C 
BRANCH 230 231
ATOM    231  NZ  LYS A  32      -3.886   3.748   6.593  0.00  0.00    +0.000 N 
ATOM    232  HZ1 LYS A  32      -4.893   3.987   6.486  0.00  0.00    +0.000 HD
ATOM    233  HZ2 LYS A  32      -3.509   4.252   7.421  0.00  0.00    +0.000 HD
ATOM    234  HZ3 LYS A  32      -3.799   2.725   6.753  0.00  0.00    +0.000 HD
ENDBRANCH 230 231
ENDBRANCH 229 230
ENDBRANCH 228 229
ENDBRANCH 227 228
ENDBRANCH  16 227
ENDBRANCH  14  16
ENDBRANCH  11  12
BRANCH  11 235
ATOM    235  CB  LEU A  31      -0.653   1.839   1.933  0.00  0.00    +0.000 C 
BRANCH 235 236
ATOM    236  CG  LEU A  31      -1.385   0.973   0.907  0.00  0.00    +0.000 C 
ATOM    237  CD1 LEU A  31      -2.803   1.479   0.697  0.00  0.00    +0.000 C 
ATOM    238  CD2 LEU A  31      -0.624   0.949  -0.410  0.00  0.00    +0.000 C 
ENDBRANCH 235 236
ENDBRANCH  11 235
ENDBRANCH   9  11
ENDBRANCH   6   7
BRANCH   6 239
ATOM    239  CB  LEU A  30       1.849  -2.794   2.704  0.00  0.00    +0.000 C 
BRANCH 239 240
ATOM    240  CG  LEU A  30       2.145  -4.253   3.054  0.00  0.00    +0.000 C 
ATOM    241  CD1 LEU A  30       1.513  -5.185   2.031  0.00  0.00    +0.000 C 
ATOM    242  CD2 LEU A  30       3.646  -4.488   3.137  0.00  0.00    +0.000 C 
ENDBRANCH 239 240
ENDBRANCH   6 239
ENDBRANCH   4   6
ENDBRANCH   1   2
BRANCH   1 245
ATOM    243  C   LEU A  28      -1.932  -0.583   4.967  0.00  0.00    +0.000 C 
ATOM    244  O   LEU A  28      -1.076   0.288   4.818  0.00  0.00    +0.000 OA
ATOM    245  N   ARG A  29      -1.814  -1.572   5.847  0.00  0.00    +0.000 N 
ATOM    246  H   ARG A  29      -2.530  -2.237   5.919  0.00  0.00    +0.000 HD
BRANCH 243 247
ATOM    247  CA  LEU A  28      -3.206  -0.578   4.128  0.00  0.00    +0.000 C 
BRANCH 247 250
ATOM    248  C   ASN A  27      -2.188  -2.314   2.758  0.00  0.00    +0.000 C 
ATOM    249  O   ASN A  27      -1.056  -1.866   2.945  0.00  0.00    +0.000 OA
ATOM    250  N   LEU A  28      -3.278  -1.765   3.282  0.00  0.00    +0.000 N 
ATOM    251  H   LEU A  28      -4.152  -2.167   3.098  0.00  0.00    +0.000 HD
BRANCH 248 252
ATOM    252  CA  ASN A  27      -2.407  -3.552   1.894  0.00  0.00    +0.000 C 
BRANCH 252 255
ATOM    253  C   LEU A  26      -2.603  -4.889   3.919  0.00  0.00    +0.000 C 
ATOM    254  O   LEU A  26      -1.728  -4.240   4.491  0.00  0.00    +0.000 OA
ATOM    255  N   ASN A  27      -2.996  -4.634   2.675  0.00  0.00    +0.000 N 
ATOM    256  H   ASN A  27      -3.699  -5.186   2.273  0.00  0.00    +0.000 HD
BRANCH 253 257
ATOM    257  CA  LEU A  26      -3.303  -6.047   4.623  0.00  0.00    +0.000 C 
BRANCH 257 260
ATOM    258  C   GLN A  25      -5.181  -4.809   5.554  0.00  0.00    +0.000 C 
ATOM    259  O   GLN A  25      -4.437  -4.074   6.204  0.00  0.00    +0.000 OA
ATOM    260  N   LEU A  26      -4.730  -5.781   4.768  0.00  0.00    +0.000 N 
ATOM    261  H   LEU A  26      -5.371  -6.334   4.275  0.00  0.00    +0.000 HD
BRANCH 258 262
ATOM    262  CA  GLN A  25      -6.696  -4.640   5.614  0.00  0.00    +0.000 C 
BRANCH 262 265
ATOM    263  C   ARG A  24      -7.063  -3.874   3.334  0.00  0.00    +0.000 C 
ATOM    264  O   ARG A  24      -6.350  -2.884   3.499  0.00  0.00    +0.000 OA
ATOM    265  N   GLN A  25      -7.288  -4.771   4.288  0.00  0.00    +0.000 N 
ATOM    266  H   GLN A  25      -7.865  -5.539   4.096  0.00  0.00    +0.000 HD
BRANCH 263 267
ATOM    267  CA  ARG A  24      -7.745  -4.130   1.993  0.00  0.00    +0.000 C 
BRANCH 267 270
ATOM    268  C   ASP A  23      -6.854  -6.369   1.646  0.00  0.00    +0.000 C 
ATOM    269  O   ASP A  23      -5.692  -5.974   1.734  0.00  0.00    +0.000 OA
ATOM    270  N   ARG A  24      -7.903  -5.560   1.757  0.00  0.00    +0.000 N 
ATOM    271  H   ARG A  24      -8.806  -5.934   1.678  0.00  0.00    +0.000 HD
BRANCH 268 272
ATOM    272  CA  ASP A  23      -7.163  -7.842   1.397  0.00  0.00    +0.000 C 
BRANCH 272 275
ATOM    273  C   CYS A  22      -8.465  -8.637  -0.499  0.00  0.00    +0.000 C 
ATOM    274  O   CYS A  22      -9.414  -8.951   0.221  0.00  0.00    +0.000 OA
ATOM    275  N   ASP A  23      -7.345  -8.101  -0.027  0.00  0.00    +0.000 N 
ATOM    276  H   ASP A  23      -6.625  -7.873  -0.651  0.00  0.00    +0.000 HD
BRANCH 273 277
ATOM    277  CA  CYS A  22      -8.523  -8.855  -2.007  0.00  0.00    +0.000 C 
BRANCH 277 280
ATOM    278  C   PHE A  21      -6.438  -8.705  -3.253  0.00  0.00    +0.000 C 
ATOM    279  O   PHE A  21      -6.660  -7.540  -3.582  0.00  0.00    +0.000 OA
ATOM    280  N   CYS A  22      -7.271  -9.416  -2.501  0.00  0.00    +0.000 N 
ATOM    281  H   CYS A  22      -7.039 -10.340  -2.271  0.00  0.00    +0.000 HD
BRANCH 278 282
ATOM    282  CA  PHE A  21      -5.164  -9.416  -3.701  0.00  0.00    +0.000 C 
BRANCH 282 285
ATOM    283  C   GLY A  20      -4.920 -10.758  -5.717  0.00  0.00    +0.000 C 
ATOM    284  O   GLY A  20      -4.722 -11.786  -5.068  0.00  0.00    +0.000 OA
ATOM    285  N   PHE A  21      -5.141  -9.577  -5.150  0.00  0.00    +0.000 N 
ATOM    286  H   PHE A  21      -5.292  -8.794  -5.721  0.00  0.00    +0.000 HD
BRANCH 283 287
ATOM    287  CA  GLY A  20      -4.919 -10.788  -7.233  0.00  0.00    +0.000 C 
BRANCH 287 290
ATOM    288  C   MET A  19      -4.045  -9.504  -9.086  0.00  0.00    +0.000 C 
ATOM    289  O   MET A  19      -4.093 -10.478  -9.837  0.00  0.00    +0.000 OA
ATOM    290  N   GLY A  20      -4.422  -9.554  -7.812  0.00  0.00    +0.000 N 
ATOM    291  H   GLY A  20      -4.362  -8.745  -7.261  0.00  0.00    +0.000 HD
BRANCH 288 292
ATOM    292  CA  MET A  19      -3.540  -8.155  -9.588  0.00  0.00    +0.000 C 
BRANCH 292 295
ATOM    293  C   GLU A  18      -5.825  -7.422  -9.993  0.00  0.00    +0.000 C 
ATOM    294  O   GLU A  18      -6.145  -8.514 -10.461  0.00  0.00    +0.000 OA
ATOM    295  N   MET A  19      -4.600  -7.156  -9.549  0.00  0.00    +0.000 N 
ATOM    296  H   MET A  19      -4.405  -6.266  -9.186  0.00  0.00    +0.000 HD
BRANCH 293 297
ATOM    297  CA  GLU A  18      -6.838  -6.285  -9.893  0.00  0.00    +0.000 C 
BRANCH 297 300
ATOM    298  C   PHE A  17      -7.520  -6.441  -7.562  0.00  0.00    +0.000 C 
ATOM    299  O   PHE A  17      -8.064  -7.530  -7.741  0.00  0.00    +0.000 OA
ATOM    300  N   GLU A  18      -6.907  -5.769  -8.531  0.00  0.00    +0.000 N 
ATOM    301  H   GLU A  18      -6.492  -4.905  -8.325  0.00  0.00    +0.000 HD
BRANCH 298 302
ATOM    302  CA  PHE A  17      -7.520  -5.785  -6.184  0.00  0.00    +0.000 C 
BRANCH 302 305
ATOM    303  C   LEU A  16      -5.090  -5.807  -6.043  0.00  0.00    +0.000 C 
ATOM    304  O   LEU A  16      -5.031  -6.984  -6.400  0.00  0.00    +0.000 OA
ATOM    305  N   PHE A  17      -6.237  -5.148  -5.912  0.00  0.00    +0.000 N 
ATOM    306  H   PHE A  17      -6.219  -4.211  -5.624  0.00  0.00    +0.000 HD
BRANCH 303 307
ATOM    307  CA  LEU A  16      -3.822  -5.021  -5.728  0.00  0.00    +0.000 C 
BRANCH 307 310
ATOM    308  C   HIS A  15      -3.997  -3.646  -7.729  0.00  0.00    +0.000 C 
ATOM    309  O   HIS A  15      -4.168  -4.631  -8.450  0.00  0.00    +0.000 OA
ATOM    310  N   LEU A  16      -3.822  -3.734  -6.415  0.00  0.00    +0.000 N 
ATOM    311  H   LEU A  16      -3.691  -2.915  -5.894  0.00  0.00    +0.000 HD
BRANCH 308 312
ATOM    312  CA  HIS A  15      -3.974  -2.239  -8.319  0.00  0.00    +0.000 C 
BRANCH 312 315
ATOM    313  C   ALA A  14      -6.098  -1.816  -7.206  0.00  0.00    +0.000 C 
ATOM    314  O   ALA A  14      -6.473  -2.977  -7.372  0.00  0.00    +0.000 OA
ATOM    315  N   HIS A  15      -4.918  -1.370  -7.625  0.00  0.00    +0.000 N 
ATOM    316  H   HIS A  15      -4.676  -0.435  -7.464  0.00  0.00    +0.000 HD
BRANCH 313 317
ATOM    317  CA  ALA A  14      -6.987  -0.802  -6.495  0.00  0.00    +0.000 C 
ATOM    318  CB  ALA A  14      -7.327   0.351  -7.428  0.00  0.00    +0.000 C 
BRANCH 317 321
ATOM    319  C   MET A  13      -5.891  -1.125  -4.347  0.00  0.00    +0.000 C 
ATOM    320  O   MET A  13      -5.973  -2.350  -4.433  0.00  0.00    +0.000 OA
ATOM    321  N   ALA A  14      -6.349  -0.302  -5.284  0.00  0.00    +0.000 N 
ATOM    322  H   ALA A  14      -6.254   0.665  -5.158  0.00  0.00    +0.000 HD
BRANCH 319 323
ATOM    323  CA  MET A  13      -5.243  -0.470  -3.132  0.00  0.00    +0.000 C 
BRANCH 323 326
ATOM    324  C   LEU A  12      -3.720   0.661  -4.657  0.00  0.00    +0.000 C 
ATOM    325  O   LEU A  12      -3.707  -0.295  -5.432  0.00  0.00    +0.000 OA
ATOM    326  N   MET A  13      -4.424   0.670  -3.530  0.00  0.00    +0.000 N 
ATOM    327  H   MET A  13      -4.395   1.461  -2.953  0.00  0.00    +0.000 HD
BRANCH 324 328
ATOM    328  CA  LEU A  12      -2.911   1.919  -4.955  0.00  0.00    +0.000 C 
BRANCH 328 331
ATOM    329  C   ALA A  11      -4.719   3.121  -6.055  0.00  0.00    +0.000 C 
ATOM    330  O   ALA A  11      -4.910   2.203  -6.853  0.00  0.00    +0.000 OA
ATOM    331  N   LEU A  12      -3.785   3.076  -5.111  0.00  0.00    +0.000 N 
ATOM    332  H   LEU A  12      -3.681   3.838  -4.504  0.00  0.00    +0.000 HD
BRANCH 329 333
ATOM    333  CA  ALA A  11      -5.563   4.390  -6.107  0.00  0.00    +0.000 C 
ATOM    334  CB  ALA A  11      -4.679   5.605  -6.345  0.00  0.00    +0.000 C 
BRANCH 333 337
ATOM    335  C   ALA A  10      -6.965   3.536  -4.310  0.00  0.00    +0.000 C 
ATOM    336  O   ALA A  10      -6.943   2.394  -4.768  0.00  0.00    +0.000 OA
ATOM    337  N   ALA A  11      -6.335   4.558  -4.882  0.00  0.00    +0.000 N 
ATOM    338  H   ALA A  11      -6.390   5.444  -4.469  0.00  0.00    +0.000 HD
BRANCH 335 339
ATOM    339  CA  ALA A  10      -7.734   3.850  -3.031  0.00  0.00    +0.000 C 
ATOM    340  CB  ALA A  10      -9.038   4.562  -3.359  0.00  0.00    +0.000 C 
BRANCH 339 343
ATOM    341  C   THR A   9      -5.675   4.341  -1.831  0.00  0.00    +0.000 C 
ATOM    342  O   THR A   9      -5.107   3.356  -2.301  0.00  0.00    +0.000 OA
ATOM    343  N   ALA A  10      -6.932   4.659  -2.121  0.00  0.00    +0.000 N 
ATOM    344  H   ALA A  10      -7.329   5.457  -1.715  0.00  0.00    +0.000 HD
BRANCH 341 345
ATOM    345  CA  THR A   9      -4.949   5.274  -0.868  0.00  0.00    +0.000 C 
BRANCH 345 348
ATOM    346  C   GLN A   8      -4.061   7.158  -2.126  0.00  0.00    +0.000 C 
ATOM    347  O   GLN A   8      -3.094   6.504  -2.518  0.00  0.00    +0.000 OA
ATOM    348  N   THR A   9      -5.001   6.654  -1.333  0.00  0.00    +0.000 N 
ATOM    349  H   THR A   9      -5.747   7.225  -1.055  0.00  0.00    +0.000 HD
BRANCH 346 350
ATOM    350  CA  GLN A   8      -4.237   8.617  -2.537  0.00  0.00    +0.000 C 
BRANCH 350 353
ATOM    351  C   GLY A   7      -5.757  10.199  -1.485  0.00  0.00    +0.000 C 
ATOM    352  O   GLY A   7      -6.449  10.287  -2.499  0.00  0.00    +0.000 OA
ATOM    353  N   GLN A   8      -4.679   9.426  -1.407  0.00  0.00    +0.000 N 
ATOM    354  H   GLN A   8      -4.169   9.399  -0.572  0.00  0.00    +0.000 HD
BRANCH 351 355
ATOM    355  CA  GLY A   7      -6.108  10.992  -0.241  0.00  0.00    +0.000 C 
BRANCH 355 358
ATOM    356  C   SER A   6      -8.519  10.823  -0.195  0.00  0.00    +0.000 C 
ATOM    357  O   SER A   6      -8.472   9.606  -0.022  0.00  0.00    +0.000 OA
ATOM    358  N   GLY A   7      -7.432  11.580  -0.313  0.00  0.00    +0.000 N 
ATOM    359  H   GLY A   7      -7.531  12.546  -0.450  0.00  0.00    +0.000 HD
BRANCH 356 360
ATOM    360  CA  SER A   6      -9.858  11.550  -0.287  0.00  0.00    +0.000 C 
BRANCH 360 363
ATOM    361  C   SER A   5      -9.298  12.799   1.727  0.00  0.00    +0.000 C 
ATOM    362  O   SER A   5      -8.772  11.816   2.250  0.00  0.00    +0.000 OA
ATOM    363  N   SER A   6      -9.842  12.769   0.515  0.00  0.00    +0.000 N 
ATOM    364  H   SER A   6     -10.246  13.585   0.152  0.00  0.00    +0.000 HD
BRANCH 361 365
ATOM    365  CA  SER A   5      -9.355  14.138   2.456  0.00  0.00    +0.000 C 
BRANCH 365 368
ATOM    366  C   GLY A   4      -9.916  13.127   4.598  0.00  0.00    +0.000 C 
ATOM    367  O   GLY A   4     -10.823  12.459   4.102  0.00  0.00    +0.000 OA
ATOM    368  N   SER A   5      -9.157  13.957   3.889  0.00  0.00    +0.000 N 
ATOM    369  H   SER A   5      -8.449  14.462   4.342  0.00  0.00    +0.000 HD
BRANCH 366 370
ATOM    370  CA  GLY A   4      -9.611  13.036   6.080  0.00  0.00    +0.000 C 
BRANCH 370 373
ATOM    371  C   SER A   3     -10.486  11.116   7.261  0.00  0.00    +0.000 C 
ATOM    372  O   SER A   3      -9.453  10.476   7.070  0.00  0.00    +0.000 OA
ATOM    373  N   GLY A   4     -10.658  12.359   6.822  0.00  0.00    +0.000 N 
ATOM    374  H   GLY A   4     -11.504  12.821   7.004  0.00  0.00    +0.000 HD
BRANCH 371 375
ATOM    375  CA  SER A   3     -11.655  10.506   8.028  0.00  0.00    +0.000 C 
BRANCH 375 378
ATOM    376  C   SER A   2     -12.451   8.210   7.877  0.00  0.00    +0.000 C 
ATOM    377  O   SER A   2     -13.548   8.566   7.447  0.00  0.00    +0.000 OA
ATOM    378  N   SER A   3     -11.481   9.066   8.182  0.00  0.00    +0.000 N 
ATOM    379  H   SER A   3     -10.628   8.721   8.521  0.00  0.00    +0.000 HD
BRANCH 376 380
ATOM    380  CA  SER A   2     -12.135   6.733   8.091  0.00  0.00    +0.000 C 
BRANCH 380 383
ATOM    381  C   GLY A   1     -13.774   6.362   9.851  0.00  0.00    +0.000 C 
ATOM    382  O   GLY A   1     -13.309   7.266  10.544  0.00  0.00    +0.000 OA
ATOM    383  N   SER A   2     -13.280   6.034   8.661  0.00  0.00    +0.000 N 
ATOM    384  H   SER A   2     -13.695   5.303   8.157  0.00  0.00    +0.000 HD
BRANCH 381 385
ATOM    385  CA  GLY A   1     -14.963   5.553  10.332  0.00  0.00    +0.000 C 
BRANCH 385 386
ATOM    386  N   GLY A   1     -15.536   6.084  11.555  0.00  0.00    +0.000 N 
ATOM    387  H2  GLY A   1     -16.358   6.930  11.305  0.00  0.00    +0.000 HD
ATOM    388  H3  GLY A   1     -16.216   5.251  12.098  0.00  0.00    +0.000 HD
ATOM    389  H   GLY A   1     -14.952   6.473  12.240  0.00  0.00    +0.000 HD
ENDBRANCH 385 386
ENDBRANCH 381 385
ENDBRANCH 380 383
BRANCH 380 390
ATOM    390  CB  SER A   2     -11.728   6.090   6.763  0.00  0.00    +0.000 C 
BRANCH 390 391
ATOM    391  OG  SER A   2     -11.116   4.829   6.974  0.00  0.00    +0.000 OA
ATOM    392  HG  SER A   2     -11.614   4.150   6.514  0.00  0.00    +0.000 HD
ENDBRANCH 390 391
ENDBRANCH 380 390
ENDBRANCH 376 380
ENDBRANCH 375 378
BRANCH 375 393
ATOM    393  CB  SER A   3     -11.785  11.175   9.398  0.00  0.00    +0.000 C 
BRANCH 393 394
ATOM    394  OG  SER A   3     -12.843  10.602  10.147  0.00  0.00    +0.000 OA
ATOM    395  HG  SER A   3     -12.836   9.648  10.034  0.00  0.00    +0.000 HD
ENDBRANCH 393 394
ENDBRANCH 375 393
ENDBRANCH 371 375
ENDBRANCH 370 373
ENDBRANCH 366 370
ENDBRANCH 365 368
BRANCH 365 396
ATOM    396  CB  SER A   5      -8.297  15.086   1.889  0.00  0.00    +0.000 C 
BRANCH 396 397
ATOM    397  OG  SER A   5      -8.676  15.569   0.612  0.00  0.00    +0.000 OA
ATOM    398  HG  SER A   5      -8.215  15.074  -0.068  0.00  0.00    +0.000 HD
ENDBRANCH 396 397
ENDBRANCH 365 396
ENDBRANCH 361 365
ENDBRANCH 360 363
BRANCH 360 399
ATOM    399  CB  SER A   6     -10.173  11.879  -1.747  0.00  0.00    +0.000 C 
BRANCH 399 400
ATOM    400  OG  SER A   6     -11.565  12.068  -1.938  0.00  0.00    +0.000 OA
ATOM    401  HG  SER A   6     -11.730  12.971  -2.216  0.00  0.00    +0.000 HD
ENDBRANCH 399 400
ENDBRANCH 360 399
ENDBRANCH 356 360
ENDBRANCH 355 358
ENDBRANCH 351 355
ENDBRANCH 350 353
BRANCH 350 402
ATOM    402  CB  GLN A   8      -2.924   9.163  -3.100  0.00  0.00    +0.000 C 
BRANCH 402 403
ATOM    403  CG  GLN A   8      -2.718   8.852  -4.573  0.00  0.00    +0.000 C 
BRANCH 403 404
ATOM    404  CD  GLN A   8      -1.252   8.788  -4.957  0.00  0.00    +0.000 C 
ATOM    405  OE1 GLN A   8      -0.398   8.455  -4.135  0.00  0.00    +0.000 OA
ATOM    406  NE2 GLN A   8      -0.954   9.108  -6.211  0.00  0.00    +0.000 N 
ATOM    407 HE21 GLN A   8      -1.687   9.365  -6.810  0.00  0.00    +0.000 HD
ATOM    408 HE22 GLN A   8      -0.015   9.076  -6.485  0.00  0.00    +0.000 HD
ENDBRANCH 403 404
ENDBRANCH 402 403
ENDBRANCH 350 402
ENDBRANCH 346 350
ENDBRANCH 345 348
BRANCH 345 409
ATOM    409  CB  THR A   9      -5.571   5.130   0.534  0.00  0.00    +0.000 C 
ATOM    410  CG2 THR A   9      -5.460   3.696   1.030  0.00  0.00    +0.000 C 
BRANCH 409 411
ATOM    411  OG1 THR A   9      -4.915   6.011   1.453  0.00  0.00    +0.000 OA
ATOM    412  HG1 THR A   9      -5.074   5.711   2.352  0.00  0.00    +0.000 HD
ENDBRANCH 409 411
ENDBRANCH 345 409
ENDBRANCH 341 345
ENDBRANCH 339 343
ENDBRANCH 335 339
ENDBRANCH 333 337
ENDBRANCH 329 333
ENDBRANCH 328 331
BRANCH 328 413
ATOM    413  CB  LEU A  12      -1.900   2.166  -3.834  0.00  0.00    +0.000 C 
BRANCH 413 414
ATOM    414  CG  LEU A  12      -0.796   3.179  -4.137  0.00  0.00    +0.000 C 
ATOM    415  CD1 LEU A  12      -0.041   2.785  -5.397  0.00  0.00    +0.000 C 
ATOM    416  CD2 LEU A  12      -1.379   4.578  -4.279  0.00  0.00    +0.000 C 
ENDBRANCH 413 414
ENDBRANCH 328 413
ENDBRANCH 324 328
ENDBRANCH 323 326
BRANCH 323 417
ATOM    417  CB  MET A  13      -6.321  -0.029  -2.140  0.00  0.00    +0.000 C 
BRANCH 417 418
ATOM    418  CG  MET A  13      -5.762   0.475  -0.819  0.00  0.00    +0.000 C 
BRANCH 418 419
ATOM    419  SD  MET A  13      -6.965   0.389   0.522  0.00  0.00    +0.000 S 
ATOM    420  CE  MET A  13      -6.486  -1.148   1.308  0.00  0.00    +0.000 C 
ENDBRANCH 418 419
ENDBRANCH 417 418
ENDBRANCH 323 417
ENDBRANCH 319 323
ENDBRANCH 317 321
ENDBRANCH 313 317
ENDBRANCH 312 315
BRANCH 312 421
ATOM    421  CB  HIS A  15      -2.561  -1.662  -8.238  0.00  0.00    +0.000 C 
BRANCH 421 422
ATOM    422  CG  HIS A  15      -2.328  -0.514  -9.171  0.00  0.00    +0.000 C 
ATOM    423  ND1 HIS A  15      -2.889  -0.441 -10.429  0.00  0.00    +0.000 N 
ATOM    424  CD2 HIS A  15      -1.591   0.611  -9.023  0.00  0.00    +0.000 C 
ATOM    425  CE1 HIS A  15      -2.506   0.679 -11.015  0.00  0.00    +0.000 C 
ATOM    426  NE2 HIS A  15      -1.717   1.336 -10.183  0.00  0.00    +0.000 N 
ATOM    427  HD1 HIS A  15      -3.479  -1.111 -10.832  0.00  0.00    +0.000 HD
ATOM    428  HE2 HIS A  15      -1.227   2.156 -10.400  0.00  0.00    +0.000 HD
ENDBRANCH 421 422
ENDBRANCH 312 421
ENDBRANCH 308 312
ENDBRANCH 307 310
BRANCH 307 429
ATOM    429  CB  LEU A  16      -3.698  -4.814  -4.217  0.00  0.00    +0.000 C 
BRANCH 429 430
ATOM    430  CG  LEU A  16      -2.279  -4.639  -3.678  0.00  0.00    +0.000 C 
ATOM    431  CD1 LEU A  16      -1.430  -5.859  -4.002  0.00  0.00    +0.000 C 
ATOM    432  CD2 LEU A  16      -1.644  -3.378  -4.246  0.00  0.00    +0.000 C 
ENDBRANCH 429 430
ENDBRANCH 307 429
ENDBRANCH 303 307
ENDBRANCH 302 305
BRANCH 302 433
ATOM    433  CB  PHE A  17      -8.652  -4.759  -6.095  0.00  0.00    +0.000 C 
BRANCH 433 434
ATOM    434  CG  PHE A  17      -9.171  -4.560  -4.700  0.00  0.00    +0.000 A 
ATOM    435  CD1 PHE A  17      -9.774  -5.603  -4.015  0.00  0.00    +0.000 A 
ATOM    436  CD2 PHE A  17      -9.058  -3.329  -4.073  0.00  0.00    +0.000 A 
ATOM    437  CE1 PHE A  17     -10.253  -5.423  -2.731  0.00  0.00    +0.000 A 
ATOM    438  CE2 PHE A  17      -9.534  -3.144  -2.789  0.00  0.00    +0.000 A 
ATOM    439  CZ  PHE A  17     -10.134  -4.191  -2.118  0.00  0.00    +0.000 A 
ENDBRANCH 433 434
ENDBRANCH 302 433
ENDBRANCH 298 302
ENDBRANCH 297 300
BRANCH 297 440
ATOM    440  CB  GLU A  18      -6.465  -5.167 -10.868  0.00  0.00    +0.000 C 
BRANCH 440 441
ATOM    441  CG  GLU A  18      -7.521  -4.080 -10.981  0.00  0.00    +0.000 C 
BRANCH 441 442
ATOM    442  CD  GLU A  18      -6.946  -2.754 -11.439  0.00  0.00    +0.000 C 
ATOM    443  OE1 GLU A  18      -5.744  -2.515 -11.199  0.00  0.00    +0.000 OA
ATOM    444  OE2 GLU A  18      -7.698  -1.955 -12.035  0.00  0.00    +0.000 OA
ENDBRANCH 441 442
ENDBRANCH 440 441
ENDBRANCH 297 440
ENDBRANCH 293 297
ENDBRANCH 292 295
BRANCH 292 445
ATOM    445  CB  MET A  19      -2.348  -7.699  -8.745  0.00  0.00    +0.000 C 
BRANCH 445 446
ATOM    446  CG  MET A  19      -1.440  -6.711  -9.460  0.00  0.00    +0.000 C 
BRANCH 446 447
ATOM    447  SD  MET A  19       0.114  -6.438  -8.586  0.00  0.00    +0.000 S 
ATOM    448  CE  MET A  19      -0.133  -4.774  -7.970  0.00  0.00    +0.000 C 
ENDBRANCH 446 447
ENDBRANCH 445 446
ENDBRANCH 292 445
ENDBRANCH 288 292
ENDBRANCH 287 290
ENDBRANCH 283 287
ENDBRANCH 282 285
BRANCH 282 449
ATOM    449  CB  PHE A  21      -3.937  -8.630  -3.234  0.00  0.00    +0.000 C 
BRANCH 449 450
ATOM    450  CG  PHE A  21      -2.635  -9.312  -3.545  0.00  0.00    +0.000 A 
ATOM    451  CD1 PHE A  21      -1.986  -9.080  -4.748  0.00  0.00    +0.000 A 
ATOM    452  CD2 PHE A  21      -2.059 -10.183  -2.635  0.00  0.00    +0.000 A 
ATOM    453  CE1 PHE A  21      -0.789  -9.706  -5.036  0.00  0.00    +0.000 A 
ATOM    454  CE2 PHE A  21      -0.861 -10.812  -2.918  0.00  0.00    +0.000 A 
ATOM    455  CZ  PHE A  21      -0.225 -10.572  -4.120  0.00  0.00    +0.000 A 
ENDBRANCH 449 450
ENDBRANCH 282 449
ENDBRANCH 278 282
ENDBRANCH 277 280
BRANCH 277 456
ATOM    456  CB  CYS A  22      -9.692  -9.777  -2.357  0.00  0.00    +0.000 C 
BRANCH 456 457
ATOM    457  SG  CYS A  22     -10.460  -9.423  -3.955  0.00  0.00    +0.000 S 
ATOM    458  HG  CYS A  22     -10.935  -8.187  -3.915  0.00  0.00    +0.000 HD
ENDBRANCH 456 457
ENDBRANCH 277 456
ENDBRANCH 273 277
ENDBRANCH 272 275
BRANCH 272 459
ATOM    459  CB  ASP A  23      -6.036  -8.713   1.955  0.00  0.00    +0.000 C 
BRANCH 459 460
ATOM    460  CG  ASP A  23      -6.374 -10.190   1.917  0.00  0.00    +0.000 C 
ATOM    461  OD1 ASP A  23      -6.086 -10.838   0.890  0.00  0.00    +0.000 OA
ATOM    462  OD2 ASP A  23      -6.927 -10.698   2.915  0.00  0.00    +0.000 OA
ENDBRANCH 459 460
ENDBRANCH 272 459
ENDBRANCH 268 272
ENDBRANCH 267 270
BRANCH 267 463
ATOM    463  CB  ARG A  24      -9.105  -3.432   1.959  0.00  0.00    +0.000 C 
BRANCH 463 464
ATOM    464  CG  ARG A  24      -9.950  -3.682   3.198  0.00  0.00    +0.000 C 
BRANCH 464 465
ATOM    465  CD  ARG A  24     -10.678  -5.014   3.116  0.00  0.00    +0.000 C 
BRANCH 465 466
ATOM    466  NE  ARG A  24     -11.775  -5.098   4.077  0.00  0.00    +0.000 N 
ATOM    467  CZ  ARG A  24     -12.269  -6.245   4.530  0.00  0.00    +0.000 C 
ATOM    468  NH1 ARG A  24     -11.767  -7.398   4.111  0.00  0.00    +0.000 N 
ATOM    469  NH2 ARG A  24     -13.268  -6.239   5.403  0.00  0.00    +0.000 N 
ATOM    470  HE  ARG A  24     -12.161  -4.257   4.400  0.00  0.00    +0.000 HD
ATOM    471 HH11 ARG A  24     -11.014  -7.405   3.453  0.00  0.00    +0.000 HD
ATOM    472 HH12 ARG A  24     -12.140  -8.260   4.454  0.00  0.00    +0.000 HD
ATOM    473 HH21 ARG A  24     -13.649  -5.372   5.722  0.00  0.00    +0.000 HD
ATOM    474 HH22 ARG A  24     -13.639  -7.103   5.743  0.00  0.00    +0.000 HD
ENDBRANCH 465 466
ENDBRANCH 464 465
ENDBRANCH 463 464
ENDBRANCH 267 463
ENDBRANCH 263 267
ENDBRANCH 262 265
BRANCH 262 475
ATOM    475  CB  GLN A  25      -7.298  -5.673   6.569  0.00  0.00    +0.000 C 
BRANCH 475 476
ATOM    476  CG  GLN A  25      -7.399  -7.067   5.971  0.00  0.00    +0.000 C 
BRANCH 476 477
ATOM    477  CD  GLN A  25      -7.717  -8.125   7.009  0.00  0.00    +0.000 C 
ATOM    478  OE1 GLN A  25      -8.860  -8.566   7.133  0.00  0.00    +0.000 OA
ATOM    479  NE2 GLN A  25      -6.704  -8.539   7.762  0.00  0.00    +0.000 N 
ATOM    480 HE21 GLN A  25      -5.821  -8.143   7.607  0.00  0.00    +0.000 HD
ATOM    481 HE22 GLN A  25      -6.881  -9.222   8.441  0.00  0.00    +0.000 HD
ENDBRANCH 476 477
ENDBRANCH 475 476
ENDBRANCH 262 475
ENDBRANCH 258 262
ENDBRANCH 257 260
BRANCH 257 482
ATOM    482  CB  LEU A  26      -3.083  -7.342   3.840  0.00  0.00    +0.000 C 
BRANCH 482 483
ATOM    483  CG  LEU A  26      -2.997  -8.623   4.671  0.00  0.00    +0.000 C 
ATOM    484  CD1 LEU A  26      -1.691  -8.667   5.450  0.00  0.00    +0.000 C 
ATOM    485  CD2 LEU A  26      -4.186  -8.727   5.615  0.00  0.00    +0.000 C 
ENDBRANCH 482 483
ENDBRANCH 257 482
ENDBRANCH 253 257
ENDBRANCH 252 255
BRANCH 252 486
ATOM    486  CB  ASN A  27      -3.305  -3.206   0.705  0.00  0.00    +0.000 C 
BRANCH 486 487
ATOM    487  CG  ASN A  27      -3.806  -4.441  -0.020  0.00  0.00    +0.000 C 
ATOM    488  OD1 ASN A  27      -3.381  -5.559   0.270  0.00  0.00    +0.000 OA
ATOM    489  ND2 ASN A  27      -4.713  -4.242  -0.969  0.00  0.00    +0.000 N 
ATOM    490 HD21 ASN A  27      -5.005  -3.323  -1.146  0.00  0.00    +0.000 HD
ATOM    491 HD22 ASN A  27      -5.055  -5.023  -1.453  0.00  0.00    +0.000 HD
ENDBRANCH 486 487
ENDBRANCH 252 486
ENDBRANCH 248 252
ENDBRANCH 247 250
BRANCH 247 492
ATOM    492  CB  LEU A  28      -4.431  -0.503   5.040  0.00  0.00    +0.000 C 
BRANCH 492 493
ATOM    493  CG  LEU A  28      -5.639   0.251   4.482  0.00  0.00    +0.000 C 
ATOM    494  CD1 LEU A  28      -6.838   0.095   5.404  0.00  0.00    +0.000 C 
ATOM    495  CD2 LEU A  28      -5.304   1.722   4.283  0.00  0.00    +0.000 C 
ENDBRANCH 492 493
ENDBRANCH 247 492
ENDBRANCH 243 247
ENDBRANCH   1 245
BRANCH   1 496
ATOM    496  CB  ARG A  29      -0.589  -3.084   7.340  0.00  0.00    +0.000 C 
BRANCH 496 497
ATOM    497  CG  ARG A  29       0.292  -3.158   8.576  0.00  0.00    +0.000 C 
BRANCH 497 498
ATOM    498  CD  ARG A  29       0.517  -4.597   9.015  0.00  0.00    +0.000 C 
BRANCH 498 499
ATOM    499  NE  ARG A  29       1.573  -4.704  10.018  0.00  0.00    +0.000 N 
ATOM    500  CZ  ARG A  29       2.267  -5.815  10.238  0.00  0.00    +0.000 C 
ATOM    501  NH1 ARG A  29       2.018  -6.908   9.529  0.00  0.00    +0.000 N 
ATOM    502  NH2 ARG A  29       3.212  -5.834  11.169  0.00  0.00    +0.000 N 
ATOM    503  HE  ARG A  29       1.773  -3.908  10.553  0.00  0.00    +0.000 HD
ATOM    504 HH11 ARG A  29       1.307  -6.895   8.827  0.00  0.00    +0.000 HD
ATOM    505 HH12 ARG A  29       2.543  -7.742   9.697  0.00  0.00    +0.000 HD
ATOM    506 HH21 ARG A  29       3.403  -5.013  11.705  0.00  0.00    +0.000 HD
ATOM    507 HH22 ARG A  29       3.734  -6.671  11.334  0.00  0.00    +0.000 HD
ENDBRANCH 498 499
ENDBRANCH 497 498
ENDBRANCH 496 497
ENDBRANCH   1 496
TORSDOF 212
