REMARK  Name = /Users/acegid/Desktop/Smoking_Research/Docking/Docking_All_PDB/All_PDB/2CRC_H.pdb
REMARK  189 active torsions:
REMARK  status: ('A' for Active; 'I' for Inactive)
REMARK    1  A    between atoms: N_1  and  CA_4
REMARK    2  A    between atoms: CA_4  and  C_5
REMARK    3  A    between atoms: N_10  and  CA_11
REMARK    4  A    between atoms: CA_11  and  C_12
REMARK    5  A    between atoms: CA_11  and  CB_14
REMARK    6  A    between atoms: CB_14  and  OG_15
REMARK    7  A    between atoms: N_21  and  CA_22
REMARK    8  A    between atoms: CA_22  and  C_23
REMARK    9  A    between atoms: CA_22  and  CB_25
REMARK   10  A    between atoms: CB_25  and  OG_26
REMARK   11  A    between atoms: N_32  and  CA_33
REMARK   12  A    between atoms: CA_33  and  C_34
REMARK   13  A    between atoms: N_39  and  CA_40
REMARK   14  A    between atoms: CA_40  and  C_41
REMARK   15  A    between atoms: CA_40  and  CB_43
REMARK   16  A    between atoms: CB_43  and  OG_44
REMARK   17  A    between atoms: N_50  and  CA_51
REMARK   18  A    between atoms: CA_51  and  C_52
REMARK   19  A    between atoms: CA_51  and  CB_54
REMARK   20  A    between atoms: CB_54  and  OG_55
REMARK   21  A    between atoms: N_61  and  CA_62
REMARK   22  A    between atoms: CA_62  and  C_63
REMARK   23  A    between atoms: CA_69  and  C_70
REMARK   24  A    between atoms: N_82  and  CA_83
REMARK   25  A    between atoms: CA_83  and  C_84
REMARK   26  A    between atoms: CA_83  and  CB_86
REMARK   27  A    between atoms: CB_86  and  CG1_87
REMARK   28  A    between atoms: CB_86  and  CG2_88
REMARK   29  A    between atoms: N_98  and  CA_99
REMARK   30  A    between atoms: CA_99  and  C_100
REMARK   31  A    between atoms: N_105  and  CA_106
REMARK   32  A    between atoms: CA_106  and  C_107
REMARK   33  A    between atoms: CA_106  and  CB_109
REMARK   34  A    between atoms: CB_109  and  CG_110
REMARK   35  A    between atoms: N_129  and  CA_130
REMARK   36  A    between atoms: CA_130  and  C_131
REMARK   37  A    between atoms: CA_130  and  CB_133
REMARK   38  A    between atoms: CB_133  and  CG_134
REMARK   39  A    between atoms: CG_134  and  CD_135
REMARK   40  A    between atoms: N_146  and  CA_147
REMARK   41  A    between atoms: CA_147  and  C_148
REMARK   42  A    between atoms: CA_147  and  CB_150
REMARK   43  A    between atoms: CB_150  and  SG_151
REMARK   44  A    between atoms: CA_158  and  C_159
REMARK   45  A    between atoms: N_171  and  CA_172
REMARK   46  A    between atoms: CA_172  and  C_173
REMARK   47  A    between atoms: N_178  and  CA_179
REMARK   48  A    between atoms: CA_179  and  C_180
REMARK   49  A    between atoms: CA_179  and  CB_182
REMARK   50  A    between atoms: CB_182  and  SG_183
REMARK   51  A    between atoms: N_189  and  CA_190
REMARK   52  A    between atoms: CA_190  and  C_191
REMARK   53  A    between atoms: CA_190  and  CB_193
REMARK   54  A    between atoms: CB_193  and  OG1_194
REMARK   55  A    between atoms: CB_193  and  CG2_195
REMARK   56  A    between atoms: N_203  and  CA_204
REMARK   57  A    between atoms: CA_204  and  C_205
REMARK   58  A    between atoms: CA_204  and  CB_207
REMARK   59  A    between atoms: CB_207  and  CG_208
REMARK   60  A    between atoms: N_223  and  CA_224
REMARK   61  A    between atoms: CA_224  and  C_225
REMARK   62  A    between atoms: CA_224  and  CB_227
REMARK   63  A    between atoms: CB_227  and  CG1_228
REMARK   64  A    between atoms: CB_227  and  CG2_229
REMARK   65  A    between atoms: CG1_228  and  CD1_230
REMARK   66  A    between atoms: N_242  and  CA_243
REMARK   67  A    between atoms: CA_243  and  C_244
REMARK   68  A    between atoms: CA_243  and  CB_246
REMARK   69  A    between atoms: CB_246  and  CG_247
REMARK   70  A    between atoms: N_256  and  CA_257
REMARK   71  A    between atoms: CA_257  and  C_258
REMARK   72  A    between atoms: CA_257  and  CB_260
REMARK   73  A    between atoms: CB_260  and  CG_261
REMARK   74  A    between atoms: CG_261  and  CD_262
REMARK   75  A    between atoms: CD_262  and  CE_263
REMARK   76  A    between atoms: CE_263  and  NZ_264
REMARK   77  A    between atoms: CA_279  and  C_280
REMARK   78  A    between atoms: N_292  and  CA_293
REMARK   79  A    between atoms: CA_293  and  C_294
REMARK   80  A    between atoms: CA_293  and  CB_296
REMARK   81  A    between atoms: CB_296  and  OG1_297
REMARK   82  A    between atoms: CB_296  and  CG2_298
REMARK   83  A    between atoms: N_306  and  CA_307
REMARK   84  A    between atoms: CA_307  and  C_308
REMARK   85  A    between atoms: CA_307  and  CB_310
REMARK   86  A    between atoms: CB_310  and  CG_311
REMARK   87  A    between atoms: CG_311  and  CD_312
REMARK   88  A    between atoms: CD_312  and  NE_313
REMARK   89  A    between atoms: CA_331  and  C_332
REMARK   90  A    between atoms: N_344  and  CA_345
REMARK   91  A    between atoms: CA_345  and  C_346
REMARK   92  A    between atoms: N_351  and  CA_352
REMARK   93  A    between atoms: CA_352  and  C_353
REMARK   94  A    between atoms: CA_352  and  CB_355
REMARK   95  A    between atoms: CB_355  and  SG_356
REMARK   96  A    between atoms: N_362  and  CA_363
REMARK   97  A    between atoms: CA_363  and  C_364
REMARK   98  A    between atoms: CA_363  and  CB_366
REMARK   99  A    between atoms: CB_366  and  CG_367
REMARK  100  A    between atoms: CG_367  and  CD_368
REMARK  101  A    between atoms: N_377  and  CA_378
REMARK  102  A    between atoms: CA_378  and  C_379
REMARK  103  A    between atoms: CA_378  and  CB_381
REMARK  104  A    between atoms: CB_381  and  CG_382
REMARK  105  A    between atoms: CG_382  and  SD_383
REMARK  106  A    between atoms: SD_383  and  CE_384
REMARK  107  A    between atoms: N_394  and  CA_395
REMARK  108  A    between atoms: CA_395  and  C_396
REMARK  109  A    between atoms: CA_395  and  CB_398
REMARK  110  A    between atoms: CB_398  and  SG_399
REMARK  111  A    between atoms: N_405  and  CA_406
REMARK  112  A    between atoms: CA_406  and  C_407
REMARK  113  A    between atoms: CA_406  and  CB_409
REMARK  114  A    between atoms: CB_409  and  SG_410
REMARK  115  A    between atoms: N_416  and  CA_417
REMARK  116  A    between atoms: CA_417  and  C_418
REMARK  117  A    between atoms: CA_417  and  CB_420
REMARK  118  A    between atoms: CB_420  and  CG_421
REMARK  119  A    between atoms: CG_421  and  CD_422
REMARK  120  A    between atoms: CD_422  and  NE_423
REMARK  121  A    between atoms: N_440  and  CA_441
REMARK  122  A    between atoms: CA_441  and  C_442
REMARK  123  A    between atoms: CA_441  and  CB_444
REMARK  124  A    between atoms: N_450  and  CA_451
REMARK  125  A    between atoms: CA_451  and  C_452
REMARK  126  A    between atoms: CA_451  and  CB_454
REMARK  127  A    between atoms: CB_454  and  CG_455
REMARK  128  A    between atoms: CG_455  and  CD_456
REMARK  129  A    between atoms: CD_456  and  NE_457
REMARK  130  A    between atoms: CA_475  and  C_476
REMARK  131  A    between atoms: N_488  and  CA_489
REMARK  132  A    between atoms: CA_489  and  C_490
REMARK  133  A    between atoms: CA_489  and  CB_492
REMARK  134  A    between atoms: CB_492  and  CG_493
REMARK  135  A    between atoms: CG_493  and  CD_494
REMARK  136  A    between atoms: N_503  and  CA_504
REMARK  137  A    between atoms: CA_504  and  C_505
REMARK  138  A    between atoms: CA_504  and  CB_507
REMARK  139  A    between atoms: N_513  and  CA_514
REMARK  140  A    between atoms: CA_514  and  C_515
REMARK  141  A    between atoms: CA_514  and  CB_517
REMARK  142  A    between atoms: CB_517  and  CG_518
REMARK  143  A    between atoms: CZ_523  and  OH_524
REMARK  144  A    between atoms: N_534  and  CA_535
REMARK  145  A    between atoms: CA_535  and  C_536
REMARK  146  A    between atoms: CA_535  and  CB_538
REMARK  147  A    between atoms: CB_538  and  CG_539
REMARK  148  A    between atoms: CG_539  and  CD_540
REMARK  149  A    between atoms: N_551  and  CA_552
REMARK  150  A    between atoms: CA_552  and  C_553
REMARK  151  A    between atoms: CA_552  and  CB_555
REMARK  152  A    between atoms: CB_555  and  CG1_556
REMARK  153  A    between atoms: CB_555  and  CG2_557
REMARK  154  A    between atoms: CA_568  and  C_569
REMARK  155  A    between atoms: N_581  and  CA_582
REMARK  156  A    between atoms: CA_582  and  C_583
REMARK  157  A    between atoms: CA_582  and  CB_585
REMARK  158  A    between atoms: N_591  and  CA_592
REMARK  159  A    between atoms: CA_592  and  C_593
REMARK  160  A    between atoms: CA_592  and  CB_595
REMARK  161  A    between atoms: CB_595  and  OG_596
REMARK  162  A    between atoms: N_602  and  CA_603
REMARK  163  A    between atoms: CA_603  and  C_604
REMARK  164  A    between atoms: CA_603  and  CB_606
REMARK  165  A    between atoms: CB_606  and  CG_607
REMARK  166  A    between atoms: CZ_612  and  OH_613
REMARK  167  A    between atoms: N_623  and  CA_624
REMARK  168  A    between atoms: CA_624  and  C_625
REMARK  169  A    between atoms: CA_624  and  CB_627
REMARK  170  A    between atoms: CB_627  and  CG_628
REMARK  171  A    between atoms: CG_628  and  CD_629
REMARK  172  A    between atoms: CA_641  and  C_642
REMARK  173  A    between atoms: N_654  and  CA_655
REMARK  174  A    between atoms: CA_655  and  C_656
REMARK  175  A    between atoms: CA_655  and  CB_658
REMARK  176  A    between atoms: CB_658  and  OG_659
REMARK  177  A    between atoms: N_665  and  CA_666
REMARK  178  A    between atoms: CA_666  and  C_667
REMARK  179  A    between atoms: CA_673  and  C_674
REMARK  180  A    between atoms: N_686  and  CA_687
REMARK  181  A    between atoms: CA_687  and  C_688
REMARK  182  A    between atoms: CA_687  and  CB_690
REMARK  183  A    between atoms: CB_690  and  OG_691
REMARK  184  A    between atoms: N_697  and  CA_698
REMARK  185  A    between atoms: CA_698  and  C_699
REMARK  186  A    between atoms: CA_698  and  CB_701
REMARK  187  A    between atoms: CB_701  and  OG_702
REMARK  188  A    between atoms: N_708  and  CA_709
REMARK  189  A    between atoms: CA_709  and  C_710
REMARK                            x       y       z     vdW  Elec       q    Type
REMARK                         _______ _______ _______ _____ _____    ______ ____
ROOT
ATOM      1  CA  CYS A  27       3.246  -5.704  -2.713  0.00  0.00    +0.000 C 
ENDROOT
BRANCH   1   2
ATOM      2  C   CYS A  27       4.196  -6.237  -1.645  0.00  0.00    +0.000 C 
ATOM      3  O   CYS A  27       5.411  -6.062  -1.737  0.00  0.00    +0.000 OA
ATOM      4  N   GLU A  28       3.633  -6.888  -0.632  0.00  0.00    +0.000 N 
ATOM      5  H   GLU A  28       2.659  -6.995  -0.614  0.00  0.00    +0.000 HD
BRANCH   4   6
ATOM      6  CA  GLU A  28       4.430  -7.446   0.454  0.00  0.00    +0.000 C 
BRANCH   6   7
ATOM      7  C   GLU A  28       4.539  -8.963   0.325  0.00  0.00    +0.000 C 
ATOM      8  O   GLU A  28       5.598  -9.542   0.568  0.00  0.00    +0.000 OA
ATOM      9  N   MET A  29       3.437  -9.599  -0.058  0.00  0.00    +0.000 N 
ATOM     10  H   MET A  29       2.624  -9.083  -0.238  0.00  0.00    +0.000 HD
BRANCH   9  11
ATOM     11  CA  MET A  29       3.409 -11.048  -0.221  0.00  0.00    +0.000 C 
BRANCH  11  12
ATOM     12  C   MET A  29       4.231 -11.475  -1.433  0.00  0.00    +0.000 C 
ATOM     13  O   MET A  29       5.356 -11.956  -1.295  0.00  0.00    +0.000 OA
ATOM     14  N   CYS A  30       3.661 -11.298  -2.620  0.00  0.00    +0.000 N 
ATOM     15  H   CYS A  30       2.761 -10.909  -2.666  0.00  0.00    +0.000 HD
BRANCH  14  16
ATOM     16  CA  CYS A  30       4.340 -11.665  -3.857  0.00  0.00    +0.000 C 
BRANCH  16  17
ATOM     17  C   CYS A  30       5.110 -10.479  -4.428  0.00  0.00    +0.000 C 
ATOM     18  O   CYS A  30       5.496 -10.480  -5.598  0.00  0.00    +0.000 OA
ATOM     19  N   CYS A  31       5.331  -9.468  -3.595  0.00  0.00    +0.000 N 
ATOM     20  H   CYS A  31       4.999  -9.525  -2.675  0.00  0.00    +0.000 HD
BRANCH  19  21
ATOM     21  CA  CYS A  31       6.055  -8.274  -4.017  0.00  0.00    +0.000 C 
BRANCH  21  22
ATOM     22  C   CYS A  31       5.759  -7.945  -5.477  0.00  0.00    +0.000 C 
ATOM     23  O   CYS A  31       6.617  -7.430  -6.194  0.00  0.00    +0.000 OA
ATOM     24  N   ARG A  32       4.540  -8.248  -5.910  0.00  0.00    +0.000 N 
ATOM     25  H   ARG A  32       3.900  -8.657  -5.291  0.00  0.00    +0.000 HD
BRANCH  24  26
ATOM     26  CA  ARG A  32       4.131  -7.988  -7.285  0.00  0.00    +0.000 C 
BRANCH  26  27
ATOM     27  C   ARG A  32       3.819  -6.508  -7.489  0.00  0.00    +0.000 C 
ATOM     28  O   ARG A  32       2.891  -5.971  -6.884  0.00  0.00    +0.000 OA
ATOM     29  N   ALA A  33       4.599  -5.856  -8.343  0.00  0.00    +0.000 N 
ATOM     30  H   ALA A  33       5.322  -6.339  -8.795  0.00  0.00    +0.000 HD
BRANCH  29  31
ATOM     31  CA  ALA A  33       4.405  -4.439  -8.628  0.00  0.00    +0.000 C 
ATOM     32  CB  ALA A  33       5.031  -4.079  -9.966  0.00  0.00    +0.000 C 
BRANCH  31  33
ATOM     33  C   ALA A  33       2.924  -4.076  -8.619  0.00  0.00    +0.000 C 
ATOM     34  O   ALA A  33       2.070  -4.906  -8.928  0.00  0.00    +0.000 OA
ATOM     35  N   ARG A  34       2.627  -2.830  -8.263  0.00  0.00    +0.000 N 
ATOM     36  H   ARG A  34       3.353  -2.214  -8.027  0.00  0.00    +0.000 HD
BRANCH  35  37
ATOM     37  CA  ARG A  34       1.249  -2.358  -8.212  0.00  0.00    +0.000 C 
BRANCH  37  38
ATOM     38  C   ARG A  34       0.703  -2.124  -9.618  0.00  0.00    +0.000 C 
ATOM     39  O   ARG A  34       1.392  -1.616 -10.502  0.00  0.00    +0.000 OA
ATOM     40  N   PRO A  35      -0.566  -2.504  -9.830  0.00  0.00    +0.000 N 
ATOM     41  CA  PRO A  35      -1.233  -2.346 -11.126  0.00  0.00    +0.000 C 
ATOM     42  CB  PRO A  35      -2.546  -3.112 -10.945  0.00  0.00    +0.000 C 
ATOM     43  CG  PRO A  35      -2.800  -3.087  -9.477  0.00  0.00    +0.000 C 
ATOM     44  CD  PRO A  35      -1.447  -3.116  -8.822  0.00  0.00    +0.000 C 
BRANCH  41  45
ATOM     45  C   PRO A  35      -1.511  -0.884 -11.460  0.00  0.00    +0.000 C 
ATOM     46  O   PRO A  35      -2.434  -0.279 -10.916  0.00  0.00    +0.000 OA
ATOM     47  N   GLU A  36      -0.708  -0.324 -12.358  0.00  0.00    +0.000 N 
ATOM     48  H   GLU A  36       0.010  -0.858 -12.757  0.00  0.00    +0.000 HD
BRANCH  47  49
ATOM     49  CA  GLU A  36      -0.869   1.068 -12.764  0.00  0.00    +0.000 C 
BRANCH  49  50
ATOM     50  C   GLU A  36      -2.345   1.421 -12.924  0.00  0.00    +0.000 C 
ATOM     51  O   GLU A  36      -2.804   2.453 -12.435  0.00  0.00    +0.000 OA
ATOM     52  N   ALA A  37      -3.082   0.555 -13.612  0.00  0.00    +0.000 N 
ATOM     53  H   ALA A  37      -2.659  -0.249 -13.977  0.00  0.00    +0.000 HD
BRANCH  52  54
ATOM     54  CA  ALA A  37      -4.506   0.774 -13.836  0.00  0.00    +0.000 C 
ATOM     55  CB  ALA A  37      -5.179  -0.523 -14.259  0.00  0.00    +0.000 C 
BRANCH  54  56
ATOM     56  C   ALA A  37      -5.178   1.338 -12.588  0.00  0.00    +0.000 C 
ATOM     57  O   ALA A  37      -5.905   2.329 -12.658  0.00  0.00    +0.000 OA
ATOM     58  N   TYR A  38      -4.930   0.702 -11.449  0.00  0.00    +0.000 N 
ATOM     59  H   TYR A  38      -4.342  -0.082 -11.458  0.00  0.00    +0.000 HD
BRANCH  58  60
ATOM     60  CA  TYR A  38      -5.513   1.139 -10.187  0.00  0.00    +0.000 C 
BRANCH  60  61
ATOM     61  C   TYR A  38      -5.394   2.651 -10.026  0.00  0.00    +0.000 C 
ATOM     62  O   TYR A  38      -4.592   3.296 -10.701  0.00  0.00    +0.000 OA
ATOM     63  N   GLN A  39      -6.198   3.209  -9.127  0.00  0.00    +0.000 N 
ATOM     64  H   GLN A  39      -6.815   2.642  -8.620  0.00  0.00    +0.000 HD
BRANCH  63  65
ATOM     65  CA  GLN A  39      -6.184   4.646  -8.877  0.00  0.00    +0.000 C 
BRANCH  65  66
ATOM     66  C   GLN A  39      -6.059   4.937  -7.385  0.00  0.00    +0.000 C 
ATOM     67  O   GLN A  39      -6.786   4.370  -6.569  0.00  0.00    +0.000 OA
ATOM     68  N   VAL A  40      -5.134   5.825  -7.036  0.00  0.00    +0.000 N 
ATOM     69  H   VAL A  40      -4.586   6.244  -7.732  0.00  0.00    +0.000 HD
BRANCH  68  70
ATOM     70  CA  VAL A  40      -4.915   6.193  -5.642  0.00  0.00    +0.000 C 
BRANCH  70  71
ATOM     71  C   VAL A  40      -5.414   7.606  -5.362  0.00  0.00    +0.000 C 
ATOM     72  O   VAL A  40      -5.210   8.531  -6.149  0.00  0.00    +0.000 OA
ATOM     73  N   PRO A  41      -6.083   7.780  -4.212  0.00  0.00    +0.000 N 
ATOM     74  CA  PRO A  41      -6.624   9.079  -3.800  0.00  0.00    +0.000 C 
ATOM     75  CB  PRO A  41      -7.476   8.735  -2.575  0.00  0.00    +0.000 C 
ATOM     76  CG  PRO A  41      -6.875   7.484  -2.035  0.00  0.00    +0.000 C 
ATOM     77  CD  PRO A  41      -6.362   6.723  -3.226  0.00  0.00    +0.000 C 
BRANCH  74  78
ATOM     78  C   PRO A  41      -5.529  10.071  -3.426  0.00  0.00    +0.000 C 
ATOM     79  O   PRO A  41      -5.096  10.128  -2.276  0.00  0.00    +0.000 OA
ATOM     80  N   ALA A  42      -5.085  10.852  -4.406  0.00  0.00    +0.000 N 
ATOM     81  H   ALA A  42      -5.469  10.760  -5.302  0.00  0.00    +0.000 HD
BRANCH  80  82
ATOM     82  CA  ALA A  42      -4.041  11.844  -4.178  0.00  0.00    +0.000 C 
ATOM     83  CB  ALA A  42      -3.993  12.834  -5.333  0.00  0.00    +0.000 C 
BRANCH  82  84
ATOM     84  C   ALA A  42      -4.260  12.578  -2.859  0.00  0.00    +0.000 C 
ATOM     85  O   ALA A  42      -5.346  12.528  -2.283  0.00  0.00    +0.000 OA
ATOM     86  N   SER A  43      -3.220  13.257  -2.387  0.00  0.00    +0.000 N 
ATOM     87  H   SER A  43      -2.380  13.259  -2.892  0.00  0.00    +0.000 HD
BRANCH  86  88
ATOM     88  CA  SER A  43      -3.297  13.998  -1.133  0.00  0.00    +0.000 C 
BRANCH  88  89
ATOM     89  C   SER A  43      -3.562  13.057   0.039  0.00  0.00    +0.000 C 
ATOM     90  O   SER A  43      -4.320  13.382   0.952  0.00  0.00    +0.000 OA
ATOM     91  N   TYR A  44      -2.931  11.888   0.004  0.00  0.00    +0.000 N 
ATOM     92  H   TYR A  44      -2.339  11.686  -0.750  0.00  0.00    +0.000 HD
BRANCH  91  93
ATOM     93  CA  TYR A  44      -3.099  10.897   1.061  0.00  0.00    +0.000 C 
BRANCH  93  94
ATOM     94  C   TYR A  44      -1.850  10.812   1.931  0.00  0.00    +0.000 C 
ATOM     95  O   TYR A  44      -0.733  11.013   1.454  0.00  0.00    +0.000 OA
ATOM     96  N   GLN A  45      -2.047  10.511   3.211  0.00  0.00    +0.000 N 
ATOM     97  H   GLN A  45      -2.961  10.361   3.531  0.00  0.00    +0.000 HD
BRANCH  96  98
ATOM     98  CA  GLN A  45      -0.937  10.398   4.149  0.00  0.00    +0.000 C 
BRANCH  98  99
ATOM     99  C   GLN A  45      -1.049   9.121   4.975  0.00  0.00    +0.000 C 
ATOM    100  O   GLN A  45      -2.128   8.552   5.139  0.00  0.00    +0.000 OA
ATOM    101  N   PRO A  46       0.092   8.657   5.507  0.00  0.00    +0.000 N 
ATOM    102  CA  PRO A  46       0.147   7.442   6.325  0.00  0.00    +0.000 C 
ATOM    103  CB  PRO A  46       1.648   7.202   6.502  0.00  0.00    +0.000 C 
ATOM    104  CG  PRO A  46       2.268   8.547   6.347  0.00  0.00    +0.000 C 
ATOM    105  CD  PRO A  46       1.415   9.285   5.352  0.00  0.00    +0.000 C 
BRANCH 102 106
ATOM    106  C   PRO A  46      -0.526   7.625   7.681  0.00  0.00    +0.000 C 
ATOM    107  O   PRO A  46      -0.521   6.719   8.514  0.00  0.00    +0.000 OA
ATOM    108  N   SER A  47      -1.106   8.802   7.895  0.00  0.00    +0.000 N 
ATOM    109  H   SER A  47      -1.076   9.484   7.192  0.00  0.00    +0.000 HD
BRANCH 108 110
ATOM    110  CA  SER A  47      -1.781   9.104   9.152  0.00  0.00    +0.000 C 
BRANCH 110 111
ATOM    111  C   SER A  47      -0.801   9.053  10.320  0.00  0.00    +0.000 C 
ATOM    112  O   SER A  47      -1.097   8.480  11.368  0.00  0.00    +0.000 OA
ATOM    113  N   GLY A  48       0.368   9.658  10.131  0.00  0.00    +0.000 N 
ATOM    114  H   GLY A  48       0.549  10.098   9.275  0.00  0.00    +0.000 HD
BRANCH 113 115
ATOM    115  CA  GLY A  48       1.374   9.670  11.177  0.00  0.00    +0.000 C 
BRANCH 115 116
ATOM    116  C   GLY A  48       0.935  10.459  12.395  0.00  0.00    +0.000 C 
ATOM    117  O   GLY A  48       0.021  11.281  12.332  0.00  0.00    +0.000 OA
ATOM    118  N   PRO A  49       1.594  10.209  13.536  0.00  0.00    +0.000 N 
ATOM    119  CA  PRO A  49       1.283  10.891  14.796  0.00  0.00    +0.000 C 
ATOM    120  CB  PRO A  49       2.116  10.127  15.828  0.00  0.00    +0.000 C 
ATOM    121  CG  PRO A  49       3.246   9.548  15.049  0.00  0.00    +0.000 C 
ATOM    122  CD  PRO A  49       2.695   9.242  13.684  0.00  0.00    +0.000 C 
BRANCH 119 123
ATOM    123  C   PRO A  49       1.682  12.362  14.773  0.00  0.00    +0.000 C 
ATOM    124  O   PRO A  49       2.434  12.797  13.900  0.00  0.00    +0.000 OA
ATOM    125  N   SER A  50       1.175  13.124  15.737  0.00  0.00    +0.000 N 
ATOM    126  H   SER A  50       0.581  12.718  16.403  0.00  0.00    +0.000 HD
BRANCH 125 127
ATOM    127  CA  SER A  50       1.477  14.547  15.825  0.00  0.00    +0.000 C 
BRANCH 127 128
ATOM    128  C   SER A  50       1.544  14.999  17.280  0.00  0.00    +0.000 C 
ATOM    129  O   SER A  50       1.405  14.193  18.199  0.00  0.00    +0.000 OA
ATOM    130  N   SER A  51       1.759  16.296  17.481  0.00  0.00    +0.000 N 
ATOM    131  H   SER A  51       1.862  16.889  16.707  0.00  0.00    +0.000 HD
BRANCH 130 132
ATOM    132  CA  SER A  51       1.849  16.856  18.825  0.00  0.00    +0.000 C 
BRANCH 132 133
ATOM    133  C   SER A  51       2.952  16.171  19.626  0.00  0.00    +0.000 C 
ATOM    134  O   SER A  51       2.767  15.833  20.794  0.00  0.00    +0.000 OA
ATOM    135  N   GLY A  52       4.101  15.970  18.988  0.00  0.00    +0.000 N 
ATOM    136  H   GLY A  52       4.191  16.261  18.056  0.00  0.00    +0.000 HD
BRANCH 135 137
ATOM    137  CA  GLY A  52       5.217  15.326  19.655  0.00  0.00    +0.000 C 
BRANCH 137 138
ATOM    138  C   GLY A  52       4.838  13.990  20.263  0.00  0.00    +0.000 C 
ATOM    139  O   GLY A  52       4.716  13.900  21.483  0.00  0.00    +0.000 OA
ATOM    140  OXT GLY A  52       4.842  13.546  19.140  0.00  0.00    +0.000 OA
ENDBRANCH 137 138
ENDBRANCH 135 137
ENDBRANCH 132 133
BRANCH 132 141
ATOM    141  CB  SER A  51       0.511  16.712  19.551  0.00  0.00    +0.000 C 
BRANCH 141 142
ATOM    142  OG  SER A  51      -0.344  17.806  19.266  0.00  0.00    +0.000 OA
ATOM    143  HG  SER A  51      -1.198  17.478  18.975  0.00  0.00    +0.000 HD
ENDBRANCH 141 142
ENDBRANCH 132 141
ENDBRANCH 130 132
ENDBRANCH 127 128
BRANCH 127 144
ATOM    144  CB  SER A  50       0.421  15.361  15.074  0.00  0.00    +0.000 C 
BRANCH 144 145
ATOM    145  OG  SER A  50       0.920  16.638  14.717  0.00  0.00    +0.000 OA
ATOM    146  HG  SER A  50       1.578  16.543  14.024  0.00  0.00    +0.000 HD
ENDBRANCH 144 145
ENDBRANCH 127 144
ENDBRANCH 125 127
ENDBRANCH 119 123
ENDBRANCH 115 116
ENDBRANCH 113 115
ENDBRANCH 110 111
BRANCH 110 147
ATOM    147  CB  SER A  47      -2.927   8.119   9.389  0.00  0.00    +0.000 C 
BRANCH 147 148
ATOM    148  OG  SER A  47      -4.043   8.429   8.574  0.00  0.00    +0.000 OA
ATOM    149  HG  SER A  47      -4.808   8.598   9.129  0.00  0.00    +0.000 HD
ENDBRANCH 147 148
ENDBRANCH 110 147
ENDBRANCH 108 110
ENDBRANCH 102 106
ENDBRANCH  98  99
BRANCH  98 150
ATOM    150  CB  GLN A  45      -0.898  11.616   5.074  0.00  0.00    +0.000 C 
BRANCH 150 151
ATOM    151  CG  GLN A  45      -0.206  12.823   4.462  0.00  0.00    +0.000 C 
BRANCH 151 152
ATOM    152  CD  GLN A  45       1.304  12.755   4.585  0.00  0.00    +0.000 C 
ATOM    153  OE1 GLN A  45       1.962  11.993   3.877  0.00  0.00    +0.000 OA
ATOM    154  NE2 GLN A  45       1.861  13.555   5.486  0.00  0.00    +0.000 N 
ATOM    155 HE21 GLN A  45       1.273  14.136   6.015  0.00  0.00    +0.000 HD
ATOM    156 HE22 GLN A  45       2.834  13.532   5.588  0.00  0.00    +0.000 HD
ENDBRANCH 151 152
ENDBRANCH 150 151
ENDBRANCH  98 150
ENDBRANCH  96  98
ENDBRANCH  93  94
BRANCH  93 157
ATOM    157  CB  TYR A  44      -3.410   9.526   0.458  0.00  0.00    +0.000 C 
BRANCH 157 158
ATOM    158  CG  TYR A  44      -3.963   8.536   1.458  0.00  0.00    +0.000 A 
ATOM    159  CD1 TYR A  44      -5.318   8.511   1.764  0.00  0.00    +0.000 A 
ATOM    160  CD2 TYR A  44      -3.130   7.626   2.097  0.00  0.00    +0.000 A 
ATOM    161  CE1 TYR A  44      -5.827   7.609   2.678  0.00  0.00    +0.000 A 
ATOM    162  CE2 TYR A  44      -3.631   6.719   3.011  0.00  0.00    +0.000 A 
ATOM    163  CZ  TYR A  44      -4.980   6.715   3.298  0.00  0.00    +0.000 A 
BRANCH 163 164
ATOM    164  OH  TYR A  44      -5.484   5.813   4.208  0.00  0.00    +0.000 OA
ATOM    165  HH  TYR A  44      -5.543   4.946   3.800  0.00  0.00    +0.000 HD
ENDBRANCH 163 164
ENDBRANCH 157 158
ENDBRANCH  93 157
ENDBRANCH  91  93
ENDBRANCH  88  89
BRANCH  88 166
ATOM    166  CB  SER A  43      -4.397  15.058  -1.209  0.00  0.00    +0.000 C 
BRANCH 166 167
ATOM    167  OG  SER A  43      -3.930  16.232  -1.849  0.00  0.00    +0.000 OA
ATOM    168  HG  SER A  43      -4.648  16.633  -2.346  0.00  0.00    +0.000 HD
ENDBRANCH 166 167
ENDBRANCH  88 166
ENDBRANCH  86  88
ENDBRANCH  82  84
ENDBRANCH  80  82
ENDBRANCH  74  78
ENDBRANCH  70  71
BRANCH  70 169
ATOM    169  CB  VAL A  40      -3.424   6.103  -5.265  0.00  0.00    +0.000 C 
ATOM    170  CG1 VAL A  40      -2.576   6.900  -6.245  0.00  0.00    +0.000 C 
ATOM    171  CG2 VAL A  40      -3.205   6.587  -3.840  0.00  0.00    +0.000 C 
ENDBRANCH  70 169
ENDBRANCH  68  70
ENDBRANCH  65  66
BRANCH  65 172
ATOM    172  CB  GLN A  39      -7.453   5.294  -9.432  0.00  0.00    +0.000 C 
BRANCH 172 173
ATOM    173  CG  GLN A  39      -8.735   4.678  -8.895  0.00  0.00    +0.000 C 
BRANCH 173 174
ATOM    174  CD  GLN A  39      -9.067   3.353  -9.552  0.00  0.00    +0.000 C 
ATOM    175  OE1 GLN A  39      -8.862   3.175 -10.753  0.00  0.00    +0.000 OA
ATOM    176  NE2 GLN A  39      -9.581   2.415  -8.767  0.00  0.00    +0.000 N 
ATOM    177 HE21 GLN A  39      -9.718   2.628  -7.820  0.00  0.00    +0.000 HD
ATOM    178 HE22 GLN A  39      -9.806   1.549  -9.166  0.00  0.00    +0.000 HD
ENDBRANCH 173 174
ENDBRANCH 172 173
ENDBRANCH  65 172
ENDBRANCH  63  65
ENDBRANCH  60  61
BRANCH  60 179
ATOM    179  CB  TYR A  38      -4.829   0.435  -9.014  0.00  0.00    +0.000 C 
BRANCH 179 180
ATOM    180  CG  TYR A  38      -5.080   1.098  -7.679  0.00  0.00    +0.000 A 
ATOM    181  CD1 TYR A  38      -6.288   0.929  -7.013  0.00  0.00    +0.000 A 
ATOM    182  CD2 TYR A  38      -4.110   1.894  -7.083  0.00  0.00    +0.000 A 
ATOM    183  CE1 TYR A  38      -6.522   1.535  -5.794  0.00  0.00    +0.000 A 
ATOM    184  CE2 TYR A  38      -4.335   2.502  -5.863  0.00  0.00    +0.000 A 
ATOM    185  CZ  TYR A  38      -5.543   2.320  -5.223  0.00  0.00    +0.000 A 
BRANCH 185 186
ATOM    186  OH  TYR A  38      -5.772   2.924  -4.007  0.00  0.00    +0.000 OA
ATOM    187  HH  TYR A  38      -6.503   3.541  -4.090  0.00  0.00    +0.000 HD
ENDBRANCH 185 186
ENDBRANCH 179 180
ENDBRANCH  60 179
ENDBRANCH  58  60
ENDBRANCH  54  56
ENDBRANCH  52  54
ENDBRANCH  49  50
BRANCH  49 188
ATOM    188  CB  GLU A  36      -0.125   1.329 -14.075  0.00  0.00    +0.000 C 
BRANCH 188 189
ATOM    189  CG  GLU A  36       1.377   1.475 -13.905  0.00  0.00    +0.000 C 
BRANCH 189 190
ATOM    190  CD  GLU A  36       2.098   1.671 -15.224  0.00  0.00    +0.000 C 
ATOM    191  OE1 GLU A  36       2.152   0.710 -16.020  0.00  0.00    +0.000 OA
ATOM    192  OE2 GLU A  36       2.608   2.787 -15.461  0.00  0.00    +0.000 OA
ENDBRANCH 189 190
ENDBRANCH 188 189
ENDBRANCH  49 188
ENDBRANCH  47  49
ENDBRANCH  41  45
ENDBRANCH  37  38
BRANCH  37 193
ATOM    193  CB  ARG A  34       1.160  -1.066  -7.397  0.00  0.00    +0.000 C 
BRANCH 193 194
ATOM    194  CG  ARG A  34      -0.219  -0.426  -7.420  0.00  0.00    +0.000 C 
BRANCH 194 195
ATOM    195  CD  ARG A  34      -0.141   1.073  -7.178  0.00  0.00    +0.000 C 
BRANCH 195 196
ATOM    196  NE  ARG A  34       0.243   1.803  -8.384  0.00  0.00    +0.000 N 
ATOM    197  CZ  ARG A  34      -0.030   3.087  -8.584  0.00  0.00    +0.000 C 
ATOM    198  NH1 ARG A  34      -0.684   3.781  -7.662  0.00  0.00    +0.000 N 
ATOM    199  NH2 ARG A  34       0.352   3.681  -9.707  0.00  0.00    +0.000 N 
ATOM    200  HE  ARG A  34       0.727   1.310  -9.078  0.00  0.00    +0.000 HD
ATOM    201 HH11 ARG A  34      -0.972   3.336  -6.814  0.00  0.00    +0.000 HD
ATOM    202 HH12 ARG A  34      -0.887   4.748  -7.814  0.00  0.00    +0.000 HD
ATOM    203 HH21 ARG A  34       0.846   3.162 -10.404  0.00  0.00    +0.000 HD
ATOM    204 HH22 ARG A  34       0.147   4.648  -9.856  0.00  0.00    +0.000 HD
ENDBRANCH 195 196
ENDBRANCH 194 195
ENDBRANCH 193 194
ENDBRANCH  37 193
ENDBRANCH  35  37
ENDBRANCH  31  33
ENDBRANCH  29  31
ENDBRANCH  26  27
BRANCH  26 205
ATOM    205  CB  ARG A  32       2.907  -8.832  -7.645  0.00  0.00    +0.000 C 
BRANCH 205 206
ATOM    206  CG  ARG A  32       2.375  -8.568  -9.044  0.00  0.00    +0.000 C 
BRANCH 206 207
ATOM    207  CD  ARG A  32       1.160  -9.430  -9.349  0.00  0.00    +0.000 C 
BRANCH 207 208
ATOM    208  NE  ARG A  32       1.459 -10.855  -9.243  0.00  0.00    +0.000 N 
ATOM    209  CZ  ARG A  32       2.125 -11.537 -10.169  0.00  0.00    +0.000 C 
ATOM    210  NH1 ARG A  32       2.558 -10.926 -11.263  0.00  0.00    +0.000 N 
ATOM    211  NH2 ARG A  32       2.359 -12.832 -10.001  0.00  0.00    +0.000 N 
ATOM    212  HE  ARG A  32       1.148 -11.326  -8.443  0.00  0.00    +0.000 HD
ATOM    213 HH11 ARG A  32       2.385  -9.950 -11.392  0.00  0.00    +0.000 HD
ATOM    214 HH12 ARG A  32       3.061 -11.441 -11.958  0.00  0.00    +0.000 HD
ATOM    215 HH21 ARG A  32       2.034 -13.296  -9.177  0.00  0.00    +0.000 HD
ATOM    216 HH22 ARG A  32       2.860 -13.344 -10.698  0.00  0.00    +0.000 HD
ENDBRANCH 207 208
ENDBRANCH 206 207
ENDBRANCH 205 206
ENDBRANCH  26 205
ENDBRANCH  24  26
ENDBRANCH  21  22
BRANCH  21 217
ATOM    217  CB  CYS A  31       7.559  -8.468  -3.821  0.00  0.00    +0.000 C 
BRANCH 217 218
ATOM    218  SG  CYS A  31       8.536  -6.966  -4.063  0.00  0.00    +0.000 S 
ATOM    219  HG  CYS A  31       9.344  -6.832  -3.023  0.00  0.00    +0.000 HD
ENDBRANCH 217 218
ENDBRANCH  21 217
ENDBRANCH  19  21
ENDBRANCH  16  17
BRANCH  16 220
ATOM    220  CB  CYS A  30       3.328 -12.174  -4.886  0.00  0.00    +0.000 C 
BRANCH 220 221
ATOM    221  SG  CYS A  30       2.139 -10.913  -5.446  0.00  0.00    +0.000 S 
ATOM    222  HG  CYS A  30       1.380 -11.610  -6.017  0.00  0.00    +0.000 HD
ENDBRANCH 220 221
ENDBRANCH  16 220
ENDBRANCH  14  16
ENDBRANCH  11  12
BRANCH  11 223
ATOM    223  CB  MET A  29       1.968 -11.538  -0.368  0.00  0.00    +0.000 C 
BRANCH 223 224
ATOM    224  CG  MET A  29       1.152 -11.419   0.909  0.00  0.00    +0.000 C 
BRANCH 224 225
ATOM    225  SD  MET A  29       1.526 -12.722   2.097  0.00  0.00    +0.000 S 
ATOM    226  CE  MET A  29       0.726 -12.082   3.566  0.00  0.00    +0.000 C 
ENDBRANCH 224 225
ENDBRANCH 223 224
ENDBRANCH  11 223
ENDBRANCH   9  11
ENDBRANCH   6   7
BRANCH   6 227
ATOM    227  CB  GLU A  28       3.815  -7.082   1.807  0.00  0.00    +0.000 C 
BRANCH 227 228
ATOM    228  CG  GLU A  28       4.574  -7.651   2.994  0.00  0.00    +0.000 C 
BRANCH 228 229
ATOM    229  CD  GLU A  28       6.071  -7.433   2.888  0.00  0.00    +0.000 C 
ATOM    230  OE1 GLU A  28       6.749  -8.266   2.251  0.00  0.00    +0.000 OA
ATOM    231  OE2 GLU A  28       6.564  -6.429   3.444  0.00  0.00    +0.000 OA
ENDBRANCH 228 229
ENDBRANCH 227 228
ENDBRANCH   6 227
ENDBRANCH   4   6
ENDBRANCH   1   2
BRANCH   1 234
ATOM    232  C   GLY A  26       3.752  -3.393  -3.287  0.00  0.00    +0.000 C 
ATOM    233  O   GLY A  26       3.060  -2.960  -2.365  0.00  0.00    +0.000 OA
ATOM    234  N   CYS A  27       3.901  -4.690  -3.532  0.00  0.00    +0.000 N 
ATOM    235  H   CYS A  27       4.466  -4.974  -4.282  0.00  0.00    +0.000 HD
BRANCH 232 236
ATOM    236  CA  GLY A  26       4.485  -2.444  -4.215  0.00  0.00    +0.000 C 
BRANCH 236 239
ATOM    237  C   PRO A  25       3.654  -0.369  -5.135  0.00  0.00    +0.000 C 
ATOM    238  O   PRO A  25       3.657  -0.826  -6.277  0.00  0.00    +0.000 OA
ATOM    239  N   GLY A  26       4.036  -1.072  -4.073  0.00  0.00    +0.000 N 
ATOM    240  H   GLY A  26       4.013  -0.655  -3.186  0.00  0.00    +0.000 HD
BRANCH 237 244
ATOM    241  C   ARG A  24       2.591   0.927  -2.485  0.00  0.00    +0.000 C 
ATOM    242  O   ARG A  24       1.709   0.099  -2.710  0.00  0.00    +0.000 OA
ATOM    243  N   PRO A  25       3.354   1.442  -3.460  0.00  0.00    +0.000 N 
ATOM    244  CA  PRO A  25       3.201   1.063  -4.868  0.00  0.00    +0.000 C 
ATOM    245  CB  PRO A  25       4.105   2.056  -5.603  0.00  0.00    +0.000 C 
ATOM    246  CG  PRO A  25       5.126   2.457  -4.595  0.00  0.00    +0.000 C 
ATOM    247  CD  PRO A  25       4.425   2.434  -3.265  0.00  0.00    +0.000 C 
BRANCH 241 248
ATOM    248  CA  ARG A  24       2.877   1.427  -1.072  0.00  0.00    +0.000 C 
BRANCH 248 251
ATOM    249  C   THR A  23       2.115   3.707  -0.690  0.00  0.00    +0.000 C 
ATOM    250  O   THR A  23       3.183   4.182  -1.078  0.00  0.00    +0.000 OA
ATOM    251  N   ARG A  24       1.876   2.400  -0.652  0.00  0.00    +0.000 N 
ATOM    252  H   ARG A  24       1.005   2.082  -0.333  0.00  0.00    +0.000 HD
BRANCH 249 253
ATOM    253  CA  THR A  23       0.982   4.613  -0.223  0.00  0.00    +0.000 C 
BRANCH 253 256
ATOM    254  C   PRO A  22      -1.226   4.084  -1.098  0.00  0.00    +0.000 C 
ATOM    255  O   PRO A  22      -1.097   4.873  -2.036  0.00  0.00    +0.000 OA
ATOM    256  N   THR A  23      -0.284   3.892  -0.181  0.00  0.00    +0.000 N 
ATOM    257  H   THR A  23      -0.446   3.251   0.542  0.00  0.00    +0.000 HD
BRANCH 254 261
ATOM    258  C   LYS A  21      -1.643   1.284   0.250  0.00  0.00    +0.000 C 
ATOM    259  O   LYS A  21      -0.908   0.983  -0.690  0.00  0.00    +0.000 OA
ATOM    260  N   PRO A  22      -2.441   2.362   0.217  0.00  0.00    +0.000 N 
ATOM    261  CA  PRO A  22      -2.503   3.266  -0.935  0.00  0.00    +0.000 C 
ATOM    262  CB  PRO A  22      -3.685   4.180  -0.605  0.00  0.00    +0.000 C 
ATOM    263  CG  PRO A  22      -3.779   4.157   0.882  0.00  0.00    +0.000 C 
ATOM    264  CD  PRO A  22      -3.344   2.781   1.303  0.00  0.00    +0.000 C 
BRANCH 258 265
ATOM    265  CA  LYS A  21      -1.694   0.446   1.524  0.00  0.00    +0.000 C 
BRANCH 265 268
ATOM    266  C   ASN A  20      -2.037  -1.565   0.196  0.00  0.00    +0.000 C 
ATOM    267  O   ASN A  20      -2.802  -0.984  -0.576  0.00  0.00    +0.000 OA
ATOM    268  N   LYS A  21      -1.460  -0.962   1.229  0.00  0.00    +0.000 N 
ATOM    269  H   LYS A  21      -0.860  -1.478   1.809  0.00  0.00    +0.000 HD
BRANCH 266 270
ATOM    270  CA  ASN A  20      -1.702  -3.041   0.003  0.00  0.00    +0.000 C 
BRANCH 270 273
ATOM    271  C   ILE A  19      -3.633  -4.386   0.627  0.00  0.00    +0.000 C 
ATOM    272  O   ILE A  19      -3.357  -4.316   1.824  0.00  0.00    +0.000 OA
ATOM    273  N   ASN A  20      -2.900  -3.808  -0.319  0.00  0.00    +0.000 N 
ATOM    274  H   ASN A  20      -3.170  -3.900  -1.257  0.00  0.00    +0.000 HD
BRANCH 271 275
ATOM    275  CA  ILE A  19      -4.859  -5.157   0.151  0.00  0.00    +0.000 C 
BRANCH 275 278
ATOM    276  C   PHE A  18      -3.350  -6.958  -0.478  0.00  0.00    +0.000 C 
ATOM    277  O   PHE A  18      -2.433  -6.173  -0.720  0.00  0.00    +0.000 OA
ATOM    278  N   ILE A  19      -4.547  -6.565  -0.057  0.00  0.00    +0.000 N 
ATOM    279  H   ILE A  19      -5.237  -7.239   0.119  0.00  0.00    +0.000 HD
BRANCH 276 280
ATOM    280  CA  PHE A  18      -3.158  -8.462  -0.653  0.00  0.00    +0.000 C 
BRANCH 280 283
ATOM    281  C   THR A  17      -4.777  -9.398  -2.210  0.00  0.00    +0.000 C 
ATOM    282  O   THR A  17      -5.619  -9.545  -1.324  0.00  0.00    +0.000 OA
ATOM    283  N   PHE A  18      -3.571  -8.887  -1.985  0.00  0.00    +0.000 N 
ATOM    284  H   PHE A  18      -2.944  -8.795  -2.732  0.00  0.00    +0.000 HD
BRANCH 281 285
ATOM    285  CA  THR A  17      -5.079  -9.802  -3.649  0.00  0.00    +0.000 C 
BRANCH 285 288
ATOM    286  C   CYS A  16      -3.315 -11.476  -3.576  0.00  0.00    +0.000 C 
ATOM    287  O   CYS A  16      -3.619 -11.817  -2.432  0.00  0.00    +0.000 OA
ATOM    288  N   THR A  17      -3.957 -10.521  -4.239  0.00  0.00    +0.000 N 
ATOM    289  H   THR A  17      -3.668 -10.294  -5.148  0.00  0.00    +0.000 HD
BRANCH 286 290
ATOM    290  CA  CYS A  16      -2.159 -12.147  -4.312  0.00  0.00    +0.000 C 
BRANCH 290 293
ATOM    291  C   GLY A  15      -2.124 -12.086  -6.745  0.00  0.00    +0.000 C 
ATOM    292  O   GLY A  15      -2.565 -13.233  -6.829  0.00  0.00    +0.000 OA
ATOM    293  N   CYS A  16      -1.898 -11.482  -5.584  0.00  0.00    +0.000 N 
ATOM    294  H   CYS A  16      -1.545 -10.567  -5.581  0.00  0.00    +0.000 HD
BRANCH 291 295
ATOM    295  CA  GLY A  15      -1.808 -11.285  -7.993  0.00  0.00    +0.000 C 
BRANCH 295 298
ATOM    296  C   PRO A  14      -3.112  -9.463  -8.901  0.00  0.00    +0.000 C 
ATOM    297  O   PRO A  14      -3.432 -10.127  -9.885  0.00  0.00    +0.000 OA
ATOM    298  N   GLY A  15      -2.332  -9.934  -7.932  0.00  0.00    +0.000 N 
ATOM    299  H   GLY A  15      -2.111  -9.358  -7.170  0.00  0.00    +0.000 HD
BRANCH 296 303
ATOM    300  C   CYS A  13      -3.325  -7.717  -6.304  0.00  0.00    +0.000 C 
ATOM    301  O   CYS A  13      -4.129  -8.614  -6.049  0.00  0.00    +0.000 OA
ATOM    302  N   PRO A  14      -3.016  -7.372  -7.562  0.00  0.00    +0.000 N 
ATOM    303  CA  PRO A  14      -3.605  -8.030  -8.732  0.00  0.00    +0.000 C 
ATOM    304  CB  PRO A  14      -3.135  -7.161  -9.902  0.00  0.00    +0.000 C 
ATOM    305  CG  PRO A  14      -1.880  -6.520  -9.418  0.00  0.00    +0.000 C 
ATOM    306  CD  PRO A  14      -2.065  -6.312  -7.940  0.00  0.00    +0.000 C 
BRANCH 300 307
ATOM    307  CA  CYS A  13      -2.623  -6.935  -5.198  0.00  0.00    +0.000 C 
BRANCH 307 310
ATOM    308  C   GLN A  12      -4.716  -5.808  -4.676  0.00  0.00    +0.000 C 
ATOM    309  O   GLN A  12      -5.018  -5.711  -5.866  0.00  0.00    +0.000 OA
ATOM    310  N   CYS A  13      -3.590  -6.378  -4.261  0.00  0.00    +0.000 N 
ATOM    311  H   CYS A  13      -3.404  -6.425  -3.299  0.00  0.00    +0.000 HD
BRANCH 308 312
ATOM    312  CA  GLN A  12      -5.638  -5.266  -3.589  0.00  0.00    +0.000 C 
BRANCH 312 315
ATOM    313  C   TRP A  11      -4.706  -3.022  -3.438  0.00  0.00    +0.000 C 
ATOM    314  O   TRP A  11      -3.593  -3.451  -3.134  0.00  0.00    +0.000 OA
ATOM    315  N   GLN A  12      -5.747  -3.814  -3.675  0.00  0.00    +0.000 N 
ATOM    316  H   GLN A  12      -6.608  -3.413  -3.913  0.00  0.00    +0.000 HD
BRANCH 313 317
ATOM    317  CA  TRP A  11      -4.957  -1.524  -3.562  0.00  0.00    +0.000 C 
BRANCH 317 320
ATOM    318  C   GLY A  10      -5.596  -0.613  -1.399  0.00  0.00    +0.000 C 
ATOM    319  O   GLY A  10      -6.769  -0.958  -1.544  0.00  0.00    +0.000 OA
ATOM    320  N   TRP A  11      -4.657  -0.840  -2.309  0.00  0.00    +0.000 N 
ATOM    321  H   TRP A  11      -3.740  -0.541  -2.136  0.00  0.00    +0.000 HD
BRANCH 318 322
ATOM    322  CA  GLY A  10      -5.154   0.108  -0.141  0.00  0.00    +0.000 C 
BRANCH 322 325
ATOM    323  C   VAL A   9      -7.218   0.305   1.104  0.00  0.00    +0.000 C 
ATOM    324  O   VAL A   9      -7.298  -0.914   1.243  0.00  0.00    +0.000 OA
ATOM    325  N   GLY A  10      -6.220   0.895   0.452  0.00  0.00    +0.000 N 
ATOM    326  H   GLY A  10      -6.208   1.872   0.372  0.00  0.00    +0.000 HD
BRANCH 323 327
ATOM    327  CA  VAL A   9      -8.281   1.230   1.686  0.00  0.00    +0.000 C 
BRANCH 327 330
ATOM    328  C   PRO A   8     -10.249  -0.187   1.884  0.00  0.00    +0.000 C 
ATOM    329  O   PRO A   8     -10.409  -0.222   0.664  0.00  0.00    +0.000 OA
ATOM    330  N   VAL A   9      -9.259   0.482   2.466  0.00  0.00    +0.000 N 
ATOM    331  H   VAL A   9      -9.184   0.472   3.443  0.00  0.00    +0.000 HD
BRANCH 328 335
ATOM    332  C   GLY A   7     -13.329  -0.706   1.595  0.00  0.00    +0.000 C 
ATOM    333  O   GLY A   7     -13.306   0.522   1.686  0.00  0.00    +0.000 OA
ATOM    334  N   PRO A   8     -12.360  -1.479   2.109  0.00  0.00    +0.000 N 
ATOM    335  CA  PRO A   8     -11.201  -0.928   2.817  0.00  0.00    +0.000 C 
ATOM    336  CB  PRO A   8     -10.519  -2.169   3.400  0.00  0.00    +0.000 C 
ATOM    337  CG  PRO A   8     -10.932  -3.285   2.503  0.00  0.00    +0.000 C 
ATOM    338  CD  PRO A   8     -12.322  -2.949   2.038  0.00  0.00    +0.000 C 
BRANCH 332 339
ATOM    339  CA  GLY A   7     -14.462  -1.426   0.893  0.00  0.00    +0.000 C 
BRANCH 339 342
ATOM    340  C   SER A   6     -14.497   0.100  -0.983  0.00  0.00    +0.000 C 
ATOM    341  O   SER A   6     -13.274   0.042  -1.106  0.00  0.00    +0.000 OA
ATOM    342  N   GLY A   7     -15.163  -0.572  -0.049  0.00  0.00    +0.000 N 
ATOM    343  H   GLY A   7     -16.138  -0.487   0.001  0.00  0.00    +0.000 HD
BRANCH 340 344
ATOM    344  CA  SER A   6     -15.338   0.965  -1.917  0.00  0.00    +0.000 C 
BRANCH 344 347
ATOM    345  C   SER A   5     -16.249  -0.930  -3.142  0.00  0.00    +0.000 C 
ATOM    346  O   SER A   5     -15.131  -1.408  -3.333  0.00  0.00    +0.000 OA
ATOM    347  N   SER A   6     -16.448   0.202  -2.473  0.00  0.00    +0.000 N 
ATOM    348  H   SER A   6     -17.363   0.532  -2.354  0.00  0.00    +0.000 HD
BRANCH 345 349
ATOM    349  CA  SER A   5     -17.499  -1.625  -3.674  0.00  0.00    +0.000 C 
BRANCH 349 352
ATOM    350  C   GLY A   4     -19.722  -0.634  -3.725  0.00  0.00    +0.000 C 
ATOM    351  O   GLY A   4     -20.150  -1.428  -2.886  0.00  0.00    +0.000 OA
ATOM    352  N   SER A   5     -18.467  -0.650  -4.162  0.00  0.00    +0.000 N 
ATOM    353  H   SER A   5     -18.187   0.009  -4.832  0.00  0.00    +0.000 HD
BRANCH 350 354
ATOM    354  CA  GLY A   4     -20.629   0.427  -4.317  0.00  0.00    +0.000 C 
BRANCH 354 357
ATOM    355  C   SER A   3     -21.767  -0.975  -5.925  0.00  0.00    +0.000 C 
ATOM    356  O   SER A   3     -22.124  -1.761  -5.048  0.00  0.00    +0.000 OA
ATOM    357  N   GLY A   4     -21.042   0.110  -5.672  0.00  0.00    +0.000 N 
ATOM    358  H   GLY A   4     -20.786   0.701  -6.411  0.00  0.00    +0.000 HD
BRANCH 355 359
ATOM    359  CA  SER A   3     -22.143  -1.207  -7.386  0.00  0.00    +0.000 C 
BRANCH 359 362
ATOM    360  C   SER A   2     -20.278  -2.455  -8.329  0.00  0.00    +0.000 C 
ATOM    361  O   SER A   2     -19.551  -1.461  -8.336  0.00  0.00    +0.000 OA
ATOM    362  N   SER A   3     -21.532  -2.431  -7.891  0.00  0.00    +0.000 N 
ATOM    363  H   SER A   3     -22.061  -3.256  -7.911  0.00  0.00    +0.000 HD
BRANCH 360 364
ATOM    364  CA  SER A   2     -19.768  -3.801  -8.834  0.00  0.00    +0.000 C 
BRANCH 364 367
ATOM    365  C   GLY A   1     -19.671  -4.155 -11.241  0.00  0.00    +0.000 C 
ATOM    366  O   GLY A   1     -20.743  -4.760 -11.245  0.00  0.00    +0.000 OA
ATOM    367  N   SER A   2     -19.125  -3.657 -10.136  0.00  0.00    +0.000 N 
ATOM    368  H   SER A   2     -18.268  -3.185 -10.197  0.00  0.00    +0.000 HD
BRANCH 365 369
ATOM    369  CA  GLY A   1     -18.899  -3.942 -12.528  0.00  0.00    +0.000 C 
BRANCH 369 370
ATOM    370  N   GLY A   1     -19.764  -3.622 -13.648  0.00  0.00    +0.000 N 
ATOM    371  H2  GLY A   1     -20.926  -3.449 -13.381  0.00  0.00    +0.000 HD
ATOM    372  H3  GLY A   1     -19.846  -4.579 -14.377  0.00  0.00    +0.000 HD
ATOM    373  H   GLY A   1     -19.562  -2.849 -14.215  0.00  0.00    +0.000 HD
ENDBRANCH 369 370
ENDBRANCH 365 369
ENDBRANCH 364 367
BRANCH 364 374
ATOM    374  CB  SER A   2     -18.790  -4.401  -7.822  0.00  0.00    +0.000 C 
BRANCH 374 375
ATOM    375  OG  SER A   2     -19.437  -4.687  -6.595  0.00  0.00    +0.000 OA
ATOM    376  HG  SER A   2     -19.707  -3.866  -6.176  0.00  0.00    +0.000 HD
ENDBRANCH 374 375
ENDBRANCH 364 374
ENDBRANCH 360 364
ENDBRANCH 359 362
BRANCH 359 377
ATOM    377  CB  SER A   3     -23.664  -1.274  -7.528  0.00  0.00    +0.000 C 
BRANCH 377 378
ATOM    378  OG  SER A   3     -24.264  -0.037  -7.184  0.00  0.00    +0.000 OA
ATOM    379  HG  SER A   3     -24.993  -0.191  -6.579  0.00  0.00    +0.000 HD
ENDBRANCH 377 378
ENDBRANCH 359 377
ENDBRANCH 355 359
ENDBRANCH 354 357
ENDBRANCH 350 354
ENDBRANCH 349 352
BRANCH 349 380
ATOM    380  CB  SER A   5     -17.119  -2.600  -4.789  0.00  0.00    +0.000 C 
BRANCH 380 381
ATOM    381  OG  SER A   5     -16.845  -1.912  -5.997  0.00  0.00    +0.000 OA
ATOM    382  HG  SER A   5     -17.668  -1.601  -6.382  0.00  0.00    +0.000 HD
ENDBRANCH 380 381
ENDBRANCH 349 380
ENDBRANCH 345 349
ENDBRANCH 344 347
BRANCH 344 383
ATOM    383  CB  SER A   6     -15.861   2.189  -1.162  0.00  0.00    +0.000 C 
BRANCH 383 384
ATOM    384  OG  SER A   6     -14.793   2.985  -0.678  0.00  0.00    +0.000 OA
ATOM    385  HG  SER A   6     -14.013   2.437  -0.560  0.00  0.00    +0.000 HD
ENDBRANCH 383 384
ENDBRANCH 344 383
ENDBRANCH 340 344
ENDBRANCH 339 342
ENDBRANCH 332 339
ENDBRANCH 328 335
ENDBRANCH 327 330
BRANCH 327 386
ATOM    386  CB  VAL A   9      -7.593   2.313   2.538  0.00  0.00    +0.000 C 
ATOM    387  CG1 VAL A   9      -8.370   3.619   2.472  0.00  0.00    +0.000 C 
ATOM    388  CG2 VAL A   9      -7.445   1.843   3.977  0.00  0.00    +0.000 C 
ENDBRANCH 327 386
ENDBRANCH 323 327
ENDBRANCH 322 325
ENDBRANCH 318 322
ENDBRANCH 317 320
BRANCH 317 389
ATOM    389  CB  TRP A  11      -4.112  -0.945  -4.698  0.00  0.00    +0.000 C 
BRANCH 389 390
ATOM    390  CG  TRP A  11      -2.649  -0.878  -4.376  0.00  0.00    +0.000 A 
ATOM    391  CD1 TRP A  11      -1.991   0.152  -3.768  0.00  0.00    +0.000 A 
ATOM    392  CD2 TRP A  11      -1.665  -1.882  -4.646  0.00  0.00    +0.000 A 
ATOM    393  NE1 TRP A  11      -0.656  -0.151  -3.644  0.00  0.00    +0.000 N 
ATOM    394  CE2 TRP A  11      -0.431  -1.393  -4.174  0.00  0.00    +0.000 A 
ATOM    395  CE3 TRP A  11      -1.707  -3.147  -5.239  0.00  0.00    +0.000 A 
ATOM    396  CZ2 TRP A  11       0.748  -2.126  -4.279  0.00  0.00    +0.000 A 
ATOM    397  CZ3 TRP A  11      -0.535  -3.872  -5.342  0.00  0.00    +0.000 A 
ATOM    398  CH2 TRP A  11       0.679  -3.361  -4.864  0.00  0.00    +0.000 A 
ATOM    399  HE1 TRP A  11       0.023   0.429  -3.240  0.00  0.00    +0.000 HD
ENDBRANCH 389 390
ENDBRANCH 317 389
ENDBRANCH 313 317
ENDBRANCH 312 315
BRANCH 312 400
ATOM    400  CB  GLN A  12      -7.020  -5.910  -3.708  0.00  0.00    +0.000 C 
BRANCH 400 401
ATOM    401  CG  GLN A  12      -7.181  -7.163  -2.862  0.00  0.00    +0.000 C 
BRANCH 401 402
ATOM    402  CD  GLN A  12      -8.621  -7.417  -2.464  0.00  0.00    +0.000 C 
ATOM    403  OE1 GLN A  12      -8.929  -7.596  -1.285  0.00  0.00    +0.000 OA
ATOM    404  NE2 GLN A  12      -9.514  -7.434  -3.447  0.00  0.00    +0.000 N 
ATOM    405 HE21 GLN A  12      -9.196  -7.285  -4.363  0.00  0.00    +0.000 HD
ATOM    406 HE22 GLN A  12     -10.452  -7.597  -3.218  0.00  0.00    +0.000 HD
ENDBRANCH 401 402
ENDBRANCH 400 401
ENDBRANCH 312 400
ENDBRANCH 308 312
ENDBRANCH 307 310
BRANCH 307 407
ATOM    407  CB  CYS A  13      -1.634  -7.843  -4.464  0.00  0.00    +0.000 C 
BRANCH 407 408
ATOM    408  SG  CYS A  13      -0.003  -7.968  -5.266  0.00  0.00    +0.000 S 
ATOM    409  HG  CYS A  13       0.576  -7.306  -6.047  0.00  0.00    +0.000 HD
ENDBRANCH 407 408
ENDBRANCH 307 407
ENDBRANCH 300 307
ENDBRANCH 296 303
ENDBRANCH 295 298
ENDBRANCH 291 295
ENDBRANCH 290 293
BRANCH 290 410
ATOM    410  CB  CYS A  16      -0.904 -12.130  -3.437  0.00  0.00    +0.000 C 
BRANCH 410 411
ATOM    411  SG  CYS A  16      -0.531 -10.505  -2.702  0.00  0.00    +0.000 S 
ATOM    412  HG  CYS A  16       0.266 -10.137  -3.485  0.00  0.00    +0.000 HD
ENDBRANCH 410 411
ENDBRANCH 290 410
ENDBRANCH 286 290
ENDBRANCH 285 288
BRANCH 285 413
ATOM    413  CB  THR A  17      -6.365 -10.649  -3.673  0.00  0.00    +0.000 C 
ATOM    414  CG2 THR A  17      -6.724 -11.047  -5.096  0.00  0.00    +0.000 C 
BRANCH 413 415
ATOM    415  OG1 THR A  17      -6.192 -11.824  -2.873  0.00  0.00    +0.000 OA
ATOM    416  HG1 THR A  17      -5.703 -12.482  -3.372  0.00  0.00    +0.000 HD
ENDBRANCH 413 415
ENDBRANCH 285 413
ENDBRANCH 281 285
ENDBRANCH 280 283
BRANCH 280 417
ATOM    417  CB  PHE A  18      -1.694  -8.833  -0.407  0.00  0.00    +0.000 C 
BRANCH 417 418
ATOM    418  CG  PHE A  18      -1.160  -8.330   0.904  0.00  0.00    +0.000 A 
ATOM    419  CD1 PHE A  18      -1.617  -8.858   2.101  0.00  0.00    +0.000 A 
ATOM    420  CD2 PHE A  18      -0.202  -7.330   0.940  0.00  0.00    +0.000 A 
ATOM    421  CE1 PHE A  18      -1.128  -8.398   3.310  0.00  0.00    +0.000 A 
ATOM    422  CE2 PHE A  18       0.291  -6.867   2.145  0.00  0.00    +0.000 A 
ATOM    423  CZ  PHE A  18      -0.173  -7.401   3.331  0.00  0.00    +0.000 A 
ENDBRANCH 417 418
ENDBRANCH 280 417
ENDBRANCH 276 280
ENDBRANCH 275 278
BRANCH 275 424
ATOM    424  CB  ILE A  19      -5.994  -4.977   1.176  0.00  0.00    +0.000 C 
ATOM    425  CG2 ILE A  19      -6.215  -3.500   1.468  0.00  0.00    +0.000 C 
BRANCH 424 426
ATOM    426  CG1 ILE A  19      -7.283  -5.623   0.662  0.00  0.00    +0.000 C 
ATOM    427  CD1 ILE A  19      -7.997  -4.796  -0.385  0.00  0.00    +0.000 C 
ENDBRANCH 424 426
ENDBRANCH 275 424
ENDBRANCH 271 275
ENDBRANCH 270 273
BRANCH 270 428
ATOM    428  CB  ASN A  20      -0.657  -3.198  -1.103  0.00  0.00    +0.000 C 
BRANCH 428 429
ATOM    429  CG  ASN A  20       0.165  -4.463  -0.947  0.00  0.00    +0.000 C 
ATOM    430  OD1 ASN A  20       0.999  -4.567  -0.047  0.00  0.00    +0.000 OA
ATOM    431  ND2 ASN A  20      -0.068  -5.432  -1.824  0.00  0.00    +0.000 N 
ATOM    432 HD21 ASN A  20      -0.748  -5.279  -2.514  0.00  0.00    +0.000 HD
ATOM    433 HD22 ASN A  20       0.448  -6.261  -1.746  0.00  0.00    +0.000 HD
ENDBRANCH 428 429
ENDBRANCH 270 428
ENDBRANCH 266 270
ENDBRANCH 265 268
BRANCH 265 434
ATOM    434  CB  LYS A  21      -0.658   0.959   2.526  0.00  0.00    +0.000 C 
BRANCH 434 435
ATOM    435  CG  LYS A  21      -0.782   0.332   3.904  0.00  0.00    +0.000 C 
BRANCH 435 436
ATOM    436  CD  LYS A  21       0.117   1.024   4.915  0.00  0.00    +0.000 C 
BRANCH 436 437
ATOM    437  CE  LYS A  21      -0.494   2.328   5.403  0.00  0.00    +0.000 C 
BRANCH 437 438
ATOM    438  NZ  LYS A  21      -1.564   2.096   6.413  0.00  0.00    +0.000 N 
ATOM    439  HZ1 LYS A  21      -2.006   2.999   6.679  0.00  0.00    +0.000 HD
ATOM    440  HZ2 LYS A  21      -1.162   1.655   7.264  0.00  0.00    +0.000 HD
ATOM    441  HZ3 LYS A  21      -2.294   1.467   6.021  0.00  0.00    +0.000 HD
ENDBRANCH 437 438
ENDBRANCH 436 437
ENDBRANCH 435 436
ENDBRANCH 434 435
ENDBRANCH 265 434
ENDBRANCH 258 265
ENDBRANCH 254 261
ENDBRANCH 253 256
BRANCH 253 442
ATOM    442  CB  THR A  23       1.343   5.197   1.156  0.00  0.00    +0.000 C 
ATOM    443  CG2 THR A  23       0.313   6.228   1.593  0.00  0.00    +0.000 C 
BRANCH 442 444
ATOM    444  OG1 THR A  23       1.417   4.148   2.128  0.00  0.00    +0.000 OA
ATOM    445  HG1 THR A  23       2.046   3.484   1.835  0.00  0.00    +0.000 HD
ENDBRANCH 442 444
ENDBRANCH 253 442
ENDBRANCH 249 253
ENDBRANCH 248 251
BRANCH 248 446
ATOM    446  CB  ARG A  24       2.912   0.247  -0.099  0.00  0.00    +0.000 C 
BRANCH 446 447
ATOM    447  CG  ARG A  24       4.209  -0.543  -0.145  0.00  0.00    +0.000 C 
BRANCH 447 448
ATOM    448  CD  ARG A  24       4.047  -1.919   0.481  0.00  0.00    +0.000 C 
BRANCH 448 449
ATOM    449  NE  ARG A  24       5.320  -2.462   0.948  0.00  0.00    +0.000 N 
ATOM    450  CZ  ARG A  24       6.304  -2.830   0.136  0.00  0.00    +0.000 C 
ATOM    451  NH1 ARG A  24       6.162  -2.715  -1.177  0.00  0.00    +0.000 N 
ATOM    452  NH2 ARG A  24       7.433  -3.315   0.637  0.00  0.00    +0.000 N 
ATOM    453  HE  ARG A  24       5.445  -2.555   1.915  0.00  0.00    +0.000 HD
ATOM    454 HH11 ARG A  24       5.313  -2.349  -1.557  0.00  0.00    +0.000 HD
ATOM    455 HH12 ARG A  24       6.905  -2.992  -1.787  0.00  0.00    +0.000 HD
ATOM    456 HH21 ARG A  24       7.543  -3.404   1.626  0.00  0.00    +0.000 HD
ATOM    457 HH22 ARG A  24       8.173  -3.593   0.025  0.00  0.00    +0.000 HD
ENDBRANCH 448 449
ENDBRANCH 447 448
ENDBRANCH 446 447
ENDBRANCH 248 446
ENDBRANCH 241 248
ENDBRANCH 237 244
ENDBRANCH 236 239
ENDBRANCH 232 236
ENDBRANCH   1 234
BRANCH   1 458
ATOM    458  CB  CYS A  27       2.750  -6.855  -3.590  0.00  0.00    +0.000 C 
BRANCH 458 459
ATOM    459  SG  CYS A  27       2.547  -8.432  -2.702  0.00  0.00    +0.000 S 
ATOM    460  HG  CYS A  27       1.415  -8.579  -2.421  0.00  0.00    +0.000 HD
ENDBRANCH 458 459
ENDBRANCH   1 458
TORSDOF 177
