REMARK  Name = /Users/acegid/Desktop/Smoking_Research/Docking/Docking_All_PDB/All_PDB/2JY8_H.pdb
REMARK  231 active torsions:
REMARK  status: ('A' for Active; 'I' for Inactive)
REMARK    1  A    between atoms: N_1  and  CA_2
REMARK    2  A    between atoms: CA_2  and  C_3
REMARK    3  A    between atoms: N_10  and  CA_11
REMARK    4  A    between atoms: CA_11  and  C_12
REMARK    5  A    between atoms: CA_11  and  CB_14
REMARK    6  A    between atoms: CB_14  and  OG_15
REMARK    7  A    between atoms: CA_22  and  C_23
REMARK    8  A    between atoms: CA_36  and  C_37
REMARK    9  A    between atoms: N_49  and  CA_50
REMARK   10  A    between atoms: CA_50  and  C_51
REMARK   11  A    between atoms: CA_50  and  CB_53
REMARK   12  A    between atoms: CB_53  and  CG_54
REMARK   13  A    between atoms: CG_54  and  CD_55
REMARK   14  A    between atoms: N_64  and  CA_65
REMARK   15  A    between atoms: CA_65  and  C_66
REMARK   16  A    between atoms: CA_65  and  CB_68
REMARK   17  A    between atoms: N_74  and  CA_75
REMARK   18  A    between atoms: CA_75  and  C_76
REMARK   19  A    between atoms: CA_75  and  CB_78
REMARK   20  A    between atoms: CB_78  and  CG_79
REMARK   21  A    between atoms: CA_87  and  C_88
REMARK   22  A    between atoms: N_100  and  CA_101
REMARK   23  A    between atoms: CA_101  and  C_102
REMARK   24  A    between atoms: CA_101  and  CB_104
REMARK   25  A    between atoms: CB_104  and  CG_105
REMARK   26  A    between atoms: CG_105  and  CD_106
REMARK   27  A    between atoms: CD_106  and  NE_107
REMARK   28  A    between atoms: N_124  and  CA_125
REMARK   29  A    between atoms: CA_125  and  C_126
REMARK   30  A    between atoms: CA_125  and  CB_128
REMARK   31  A    between atoms: CB_128  and  CG_129
REMARK   32  A    between atoms: CG_129  and  CD1_130
REMARK   33  A    between atoms: CG_129  and  CD2_131
REMARK   34  A    between atoms: N_143  and  CA_144
REMARK   35  A    between atoms: CA_144  and  C_145
REMARK   36  A    between atoms: CA_144  and  CB_147
REMARK   37  A    between atoms: CB_147  and  CG1_148
REMARK   38  A    between atoms: CB_147  and  CG2_149
REMARK   39  A    between atoms: CG1_148  and  CD1_150
REMARK   40  A    between atoms: N_162  and  CA_163
REMARK   41  A    between atoms: CA_163  and  C_164
REMARK   42  A    between atoms: CA_163  and  CB_166
REMARK   43  A    between atoms: CB_166  and  CG_167
REMARK   44  A    between atoms: CG_167  and  CD_168
REMARK   45  A    between atoms: N_177  and  CA_178
REMARK   46  A    between atoms: CA_178  and  C_179
REMARK   47  A    between atoms: CA_178  and  CB_181
REMARK   48  A    between atoms: CB_181  and  OG_182
REMARK   49  A    between atoms: N_188  and  CA_189
REMARK   50  A    between atoms: CA_189  and  C_190
REMARK   51  A    between atoms: CA_189  and  CB_192
REMARK   52  A    between atoms: CB_192  and  CG_193
REMARK   53  A    between atoms: CG_193  and  CD1_194
REMARK   54  A    between atoms: CG_193  and  CD2_195
REMARK   55  A    between atoms: N_207  and  CA_208
REMARK   56  A    between atoms: CA_208  and  C_209
REMARK   57  A    between atoms: CA_208  and  CB_211
REMARK   58  A    between atoms: CB_211  and  OG_212
REMARK   59  A    between atoms: N_218  and  CA_219
REMARK   60  A    between atoms: CA_219  and  C_220
REMARK   61  A    between atoms: CA_219  and  CB_222
REMARK   62  A    between atoms: CB_222  and  CG_223
REMARK   63  A    between atoms: CG_223  and  CD_224
REMARK   64  A    between atoms: N_235  and  CA_236
REMARK   65  A    between atoms: CA_236  and  C_237
REMARK   66  A    between atoms: CA_236  and  CB_239
REMARK   67  A    between atoms: CB_239  and  CG_240
REMARK   68  A    between atoms: CG_240  and  SD_241
REMARK   69  A    between atoms: SD_241  and  CE_242
REMARK   70  A    between atoms: N_252  and  CA_253
REMARK   71  A    between atoms: CA_253  and  C_254
REMARK   72  A    between atoms: CA_253  and  CB_256
REMARK   73  A    between atoms: CB_256  and  CG_257
REMARK   74  A    between atoms: CG_257  and  CD1_258
REMARK   75  A    between atoms: CG_257  and  CD2_259
REMARK   76  A    between atoms: N_271  and  CA_272
REMARK   77  A    between atoms: CA_272  and  C_273
REMARK   78  A    between atoms: CA_272  and  CB_275
REMARK   79  A    between atoms: CB_275  and  OG_276
REMARK   80  A    between atoms: N_282  and  CA_283
REMARK   81  A    between atoms: CA_283  and  C_284
REMARK   82  A    between atoms: CA_283  and  CB_286
REMARK   83  A    between atoms: CB_286  and  CG_287
REMARK   84  A    between atoms: CG_287  and  SD_288
REMARK   85  A    between atoms: SD_288  and  CE_289
REMARK   86  A    between atoms: N_299  and  CA_300
REMARK   87  A    between atoms: CA_300  and  C_301
REMARK   88  A    between atoms: N_306  and  CA_307
REMARK   89  A    between atoms: CA_307  and  C_308
REMARK   90  A    between atoms: CA_307  and  CB_310
REMARK   91  A    between atoms: CB_310  and  CG_311
REMARK   92  A    between atoms: N_326  and  CA_327
REMARK   93  A    between atoms: CA_327  and  C_328
REMARK   94  A    between atoms: CA_327  and  CB_330
REMARK   95  A    between atoms: CB_330  and  OG_331
REMARK   96  A    between atoms: N_337  and  CA_338
REMARK   97  A    between atoms: CA_338  and  C_339
REMARK   98  A    between atoms: CA_338  and  CB_341
REMARK   99  A    between atoms: CB_341  and  CG_342
REMARK  100  A    between atoms: N_349  and  CA_350
REMARK  101  A    between atoms: CA_350  and  C_351
REMARK  102  A    between atoms: CA_350  and  CB_353
REMARK  103  A    between atoms: CB_353  and  CG_354
REMARK  104  A    between atoms: CG_354  and  CD_355
REMARK  105  A    between atoms: N_364  and  CA_365
REMARK  106  A    between atoms: CA_365  and  C_366
REMARK  107  A    between atoms: N_371  and  CA_372
REMARK  108  A    between atoms: CA_372  and  C_373
REMARK  109  A    between atoms: N_378  and  CA_379
REMARK  110  A    between atoms: CA_379  and  C_380
REMARK  111  A    between atoms: CA_379  and  CB_382
REMARK  112  A    between atoms: CB_382  and  CG_383
REMARK  113  A    between atoms: N_402  and  CA_403
REMARK  114  A    between atoms: CA_403  and  C_404
REMARK  115  A    between atoms: CA_403  and  CB_406
REMARK  116  A    between atoms: CB_406  and  CG_407
REMARK  117  A    between atoms: CG_407  and  CD1_408
REMARK  118  A    between atoms: CG_407  and  CD2_409
REMARK  119  A    between atoms: N_421  and  CA_422
REMARK  120  A    between atoms: CA_422  and  C_423
REMARK  121  A    between atoms: CA_422  and  CB_425
REMARK  122  A    between atoms: CB_425  and  OG1_426
REMARK  123  A    between atoms: CB_425  and  CG2_427
REMARK  124  A    between atoms: N_435  and  CA_436
REMARK  125  A    between atoms: CA_436  and  C_437
REMARK  126  A    between atoms: CA_436  and  CB_439
REMARK  127  A    between atoms: CB_439  and  CG_440
REMARK  128  A    between atoms: CG_440  and  CD_441
REMARK  129  A    between atoms: CD_441  and  NE_442
REMARK  130  A    between atoms: N_459  and  CA_460
REMARK  131  A    between atoms: CA_460  and  C_461
REMARK  132  A    between atoms: CA_460  and  CB_463
REMARK  133  A    between atoms: CB_463  and  CG_464
REMARK  134  A    between atoms: CG_464  and  CD1_465
REMARK  135  A    between atoms: CG_464  and  CD2_466
REMARK  136  A    between atoms: N_478  and  CA_479
REMARK  137  A    between atoms: CA_479  and  C_480
REMARK  138  A    between atoms: CA_479  and  CB_482
REMARK  139  A    between atoms: CB_482  and  CG_483
REMARK  140  A    between atoms: CG_483  and  CD1_484
REMARK  141  A    between atoms: CG_483  and  CD2_485
REMARK  142  A    between atoms: N_497  and  CA_498
REMARK  143  A    between atoms: CA_498  and  C_499
REMARK  144  A    between atoms: CA_498  and  CB_501
REMARK  145  A    between atoms: CB_501  and  CG_502
REMARK  146  A    between atoms: CG_502  and  CD_503
REMARK  147  A    between atoms: N_514  and  CA_515
REMARK  148  A    between atoms: CA_515  and  C_516
REMARK  149  A    between atoms: CA_515  and  CB_518
REMARK  150  A    between atoms: CB_518  and  OG1_519
REMARK  151  A    between atoms: CB_518  and  CG2_520
REMARK  152  A    between atoms: N_528  and  CA_529
REMARK  153  A    between atoms: CA_529  and  C_530
REMARK  154  A    between atoms: CA_529  and  CB_532
REMARK  155  A    between atoms: CB_532  and  CG_533
REMARK  156  A    between atoms: CG_533  and  CD_534
REMARK  157  A    between atoms: CD_534  and  CE_535
REMARK  158  A    between atoms: CE_535  and  NZ_536
REMARK  159  A    between atoms: N_550  and  CA_551
REMARK  160  A    between atoms: CA_551  and  C_552
REMARK  161  A    between atoms: CA_551  and  CB_554
REMARK  162  A    between atoms: CB_554  and  CG_555
REMARK  163  A    between atoms: N_564  and  CA_565
REMARK  164  A    between atoms: CA_565  and  C_566
REMARK  165  A    between atoms: CA_565  and  CB_568
REMARK  166  A    between atoms: CB_568  and  CG_569
REMARK  167  A    between atoms: CZ_574  and  OH_575
REMARK  168  A    between atoms: N_585  and  CA_586
REMARK  169  A    between atoms: CA_586  and  C_587
REMARK  170  A    between atoms: CA_586  and  CB_589
REMARK  171  A    between atoms: CB_589  and  CG_590
REMARK  172  A    between atoms: N_597  and  CA_598
REMARK  173  A    between atoms: CA_598  and  C_599
REMARK  174  A    between atoms: CA_598  and  CB_601
REMARK  175  A    between atoms: CB_601  and  CG1_602
REMARK  176  A    between atoms: CB_601  and  CG2_603
REMARK  177  A    between atoms: CG1_602  and  CD1_604
REMARK  178  A    between atoms: N_616  and  CA_617
REMARK  179  A    between atoms: CA_617  and  C_618
REMARK  180  A    between atoms: N_623  and  CA_624
REMARK  181  A    between atoms: CA_624  and  C_625
REMARK  182  A    between atoms: CA_624  and  CB_627
REMARK  183  A    between atoms: N_633  and  CA_634
REMARK  184  A    between atoms: CA_634  and  C_635
REMARK  185  A    between atoms: CA_634  and  CB_637
REMARK  186  A    between atoms: N_643  and  CA_644
REMARK  187  A    between atoms: CA_644  and  C_645
REMARK  188  A    between atoms: CA_644  and  CB_647
REMARK  189  A    between atoms: CB_647  and  CG_648
REMARK  190  A    between atoms: CG_648  and  CD1_649
REMARK  191  A    between atoms: CG_648  and  CD2_650
REMARK  192  A    between atoms: N_662  and  CA_663
REMARK  193  A    between atoms: CA_663  and  C_664
REMARK  194  A    between atoms: CA_663  and  CB_666
REMARK  195  A    between atoms: CB_666  and  CG_667
REMARK  196  A    between atoms: N_674  and  CA_675
REMARK  197  A    between atoms: CA_675  and  C_676
REMARK  198  A    between atoms: CA_675  and  CB_678
REMARK  199  A    between atoms: CB_678  and  OG1_679
REMARK  200  A    between atoms: CB_678  and  CG2_680
REMARK  201  A    between atoms: N_688  and  CA_689
REMARK  202  A    between atoms: CA_689  and  C_690
REMARK  203  A    between atoms: CA_689  and  CB_692
REMARK  204  A    between atoms: CB_692  and  CG1_693
REMARK  205  A    between atoms: CB_692  and  CG2_694
REMARK  206  A    between atoms: CG1_693  and  CD1_695
REMARK  207  A    between atoms: N_707  and  CA_708
REMARK  208  A    between atoms: CA_708  and  C_709
REMARK  209  A    between atoms: CA_708  and  CB_711
REMARK  210  A    between atoms: CB_711  and  CG_712
REMARK  211  A    between atoms: CG_712  and  CD_713
REMARK  212  A    between atoms: N_724  and  CA_725
REMARK  213  A    between atoms: CA_725  and  C_726
REMARK  214  A    between atoms: CA_725  and  CB_728
REMARK  215  A    between atoms: CB_728  and  CG_729
REMARK  216  A    between atoms: CZ_734  and  OH_735
REMARK  217  A    between atoms: N_745  and  CA_746
REMARK  218  A    between atoms: CA_746  and  C_747
REMARK  219  A    between atoms: CA_746  and  CB_749
REMARK  220  A    between atoms: CB_749  and  OG_750
REMARK  221  A    between atoms: N_756  and  CA_757
REMARK  222  A    between atoms: CA_757  and  C_758
REMARK  223  A    between atoms: CA_757  and  CB_760
REMARK  224  A    between atoms: CB_760  and  CG_761
REMARK  225  A    between atoms: CG_761  and  CD_762
REMARK  226  A    between atoms: CD_762  and  CE_763
REMARK  227  A    between atoms: CE_763  and  NZ_764
REMARK  228  A    between atoms: N_778  and  CA_779
REMARK  229  A    between atoms: CA_779  and  C_780
REMARK  230  A    between atoms: CA_779  and  CB_782
REMARK  231  A    between atoms: CB_782  and  CG_783
REMARK                            x       y       z     vdW  Elec       q    Type
REMARK                         _______ _______ _______ _____ _____    ______ ____
ROOT
ATOM      1  CA  TRP A  28      40.203  -6.018  -9.390  0.00  0.00    +0.000 C 
ENDROOT
BRANCH   1   4
ATOM      2  C   GLY A  27      37.920  -5.170  -9.427  0.00  0.00    +0.000 C 
ATOM      3  O   GLY A  27      37.515  -6.103  -8.735  0.00  0.00    +0.000 OA
ATOM      4  N   TRP A  28      39.192  -5.044  -9.792  0.00  0.00    +0.000 N 
ATOM      5  H   TRP A  28      39.458  -4.283 -10.350  0.00  0.00    +0.000 HD
BRANCH   2   6
ATOM      6  CA  GLY A  27      36.958  -4.099  -9.913  0.00  0.00    +0.000 C 
BRANCH   6   9
ATOM      7  C   GLY A  26      38.061  -3.236 -11.889  0.00  0.00    +0.000 C 
ATOM      8  O   GLY A  26      37.953  -4.314 -12.472  0.00  0.00    +0.000 OA
ATOM      9  N   GLY A  27      37.612  -3.033 -10.653  0.00  0.00    +0.000 N 
ATOM     10  H   GLY A  27      37.718  -2.149 -10.243  0.00  0.00    +0.000 HD
BRANCH   7  11
ATOM     11  CA  GLY A  26      38.718  -2.051 -12.570  0.00  0.00    +0.000 C 
BRANCH  11  14
ATOM     12  C   GLU A  25      38.143   0.082 -11.587  0.00  0.00    +0.000 C 
ATOM     13  O   GLU A  25      37.128   0.174 -12.278  0.00  0.00    +0.000 OA
ATOM     14  N   GLY A  26      38.974  -0.954 -11.655  0.00  0.00    +0.000 N 
ATOM     15  H   GLY A  26      39.767  -0.973 -11.080  0.00  0.00    +0.000 HD
BRANCH  12  16
ATOM     16  CA  GLU A  25      38.512   1.178 -10.589  0.00  0.00    +0.000 C 
BRANCH  16  19
ATOM     17  C   ASP A  24      39.386   0.258  -8.511  0.00  0.00    +0.000 C 
ATOM     18  O   ASP A  24      38.259   0.145  -8.029  0.00  0.00    +0.000 OA
ATOM     19  N   GLU A  25      39.604   0.746  -9.728  0.00  0.00    +0.000 N 
ATOM     20  H   GLU A  25      40.526   0.843 -10.044  0.00  0.00    +0.000 HD
BRANCH  17  21
ATOM     21  CA  ASP A  24      40.635  -0.145  -7.726  0.00  0.00    +0.000 C 
BRANCH  21  24
ATOM     22  C   SER A  23      41.710   1.894  -6.999  0.00  0.00    +0.000 C 
ATOM     23  O   SER A  23      42.131   2.113  -8.130  0.00  0.00    +0.000 OA
ATOM     24  N   ASP A  24      40.978   0.832  -6.703  0.00  0.00    +0.000 N 
ATOM     25  H   ASP A  24      40.682   0.693  -5.780  0.00  0.00    +0.000 HD
BRANCH  22  26
ATOM     26  CA  SER A  23      42.040   2.842  -5.857  0.00  0.00    +0.000 C 
BRANCH  26  29
ATOM     27  C   PHE A  22      44.398   3.424  -5.744  0.00  0.00    +0.000 C 
ATOM     28  O   PHE A  22      44.649   2.498  -4.973  0.00  0.00    +0.000 OA
ATOM     29  N   SER A  23      43.182   3.666  -6.219  0.00  0.00    +0.000 N 
ATOM     30  H   SER A  23      43.053   4.410  -6.841  0.00  0.00    +0.000 HD
BRANCH  27  31
ATOM     31  CA  PHE A  22      45.497   4.363  -6.223  0.00  0.00    +0.000 C 
BRANCH  31  34
ATOM     32  C   GLY A  21      47.145   5.716  -5.053  0.00  0.00    +0.000 C 
ATOM     33  O   GLY A  21      46.949   6.689  -5.780  0.00  0.00    +0.000 OA
ATOM     34  N   PHE A  22      46.500   4.564  -5.188  0.00  0.00    +0.000 N 
ATOM     35  H   PHE A  22      46.708   3.830  -4.572  0.00  0.00    +0.000 HD
BRANCH  32  36
ATOM     36  CA  GLY A  21      48.172   5.769  -3.944  0.00  0.00    +0.000 C 
BRANCH  36  39
ATOM     37  C   MET A  20      50.292   4.698  -4.416  0.00  0.00    +0.000 C 
ATOM     38  O   MET A  20      50.797   5.746  -4.820  0.00  0.00    +0.000 OA
ATOM     39  N   GLY A  21      49.041   4.608  -3.975  0.00  0.00    +0.000 N 
ATOM     40  H   GLY A  21      48.712   3.730  -3.693  0.00  0.00    +0.000 HD
BRANCH  37  41
ATOM     41  CA  MET A  20      51.077   3.388  -4.412  0.00  0.00    +0.000 C 
BRANCH  41  44
ATOM     42  C   SER A  19      51.605   2.307  -2.290  0.00  0.00    +0.000 C 
ATOM     43  O   SER A  19      52.776   2.682  -2.340  0.00  0.00    +0.000 OA
ATOM     44  N   MET A  20      50.717   2.598  -3.240  0.00  0.00    +0.000 N 
ATOM     45  H   MET A  20      49.791   2.319  -3.125  0.00  0.00    +0.000 HD
BRANCH  42  46
ATOM     46  CA  SER A  19      51.095   1.507  -1.083  0.00  0.00    +0.000 C 
BRANCH  46  49
ATOM     47  C   LEU A  18      48.838   2.430  -1.144  0.00  0.00    +0.000 C 
ATOM     48  O   LEU A  18      49.275   3.579  -1.185  0.00  0.00    +0.000 OA
ATOM     49  N   SER A  19      49.640   1.368  -1.093  0.00  0.00    +0.000 N 
ATOM     50  H   SER A  19      49.254   0.473  -1.060  0.00  0.00    +0.000 HD
BRANCH  47  51
ATOM     51  CA  LEU A  18      47.326   2.175  -1.161  0.00  0.00    +0.000 C 
BRANCH  51  54
ATOM     52  C   MET A  17      47.556   0.110  -2.454  0.00  0.00    +0.000 C 
ATOM     53  O   MET A  17      48.398   0.606  -3.203  0.00  0.00    +0.000 OA
ATOM     54  N   LEU A  18      46.991   0.781  -1.454  0.00  0.00    +0.000 N 
ATOM     55  H   LEU A  18      46.311   0.340  -0.903  0.00  0.00    +0.000 HD
BRANCH  52  56
ATOM     56  CA  MET A  17      47.095  -1.333  -2.645  0.00  0.00    +0.000 C 
BRANCH  56  59
ATOM     57  C   GLN A  16      48.289  -2.845  -1.139  0.00  0.00    +0.000 C 
ATOM     58  O   GLN A  16      49.230  -2.964  -1.923  0.00  0.00    +0.000 OA
ATOM     59  N   MET A  17      47.223  -2.086  -1.397  0.00  0.00    +0.000 N 
ATOM     60  H   MET A  17      46.506  -2.023  -0.733  0.00  0.00    +0.000 HD
BRANCH  57  61
ATOM     61  CA  GLN A  16      48.297  -3.574   0.206  0.00  0.00    +0.000 C 
BRANCH  61  64
ATOM     62  C   SER A  15      48.373  -1.788   1.873  0.00  0.00    +0.000 C 
ATOM     63  O   SER A  15      49.548  -1.514   1.627  0.00  0.00    +0.000 OA
ATOM     64  N   GLN A  16      47.697  -2.748   1.250  0.00  0.00    +0.000 N 
ATOM     65  H   GLN A  16      46.765  -2.877   1.507  0.00  0.00    +0.000 HD
BRANCH  62  66
ATOM     66  CA  SER A  15      47.578  -1.013   2.926  0.00  0.00    +0.000 C 
BRANCH  66  69
ATOM     67  C   LEU A  14      45.690  -0.939   1.396  0.00  0.00    +0.000 C 
ATOM     68  O   LEU A  14      46.426  -0.731   0.433  0.00  0.00    +0.000 OA
ATOM     69  N   SER A  15      46.150  -1.087   2.633  0.00  0.00    +0.000 N 
ATOM     70  H   SER A  15      45.513  -1.249   3.359  0.00  0.00    +0.000 HD
BRANCH  67  71
ATOM     71  CA  LEU A  14      44.182  -1.052   1.213  0.00  0.00    +0.000 C 
BRANCH  71  74
ATOM     72  C   SER A  13      43.657  -3.241   2.174  0.00  0.00    +0.000 C 
ATOM     73  O   SER A  13      44.233  -3.837   1.267  0.00  0.00    +0.000 OA
ATOM     74  N   LEU A  14      43.578  -1.906   2.236  0.00  0.00    +0.000 N 
ATOM     75  H   LEU A  14      43.076  -1.477   2.967  0.00  0.00    +0.000 HD
BRANCH  72  76
ATOM     76  CA  SER A  13      42.960  -4.008   3.293  0.00  0.00    +0.000 C 
BRANCH  76  79
ATOM     77  C   GLU A  12      43.972  -2.476   4.838  0.00  0.00    +0.000 C 
ATOM     78  O   GLU A  12      45.018  -2.483   4.197  0.00  0.00    +0.000 OA
ATOM     79  N   SER A  13      42.916  -3.186   4.484  0.00  0.00    +0.000 N 
ATOM     80  H   SER A  13      42.097  -3.153   5.025  0.00  0.00    +0.000 HD
BRANCH  77  81
ATOM     81  CA  GLU A  12      43.842  -1.626   6.077  0.00  0.00    +0.000 C 
BRANCH  81  84
ATOM     82  C   ILE A  11      42.926   0.461   5.265  0.00  0.00    +0.000 C 
ATOM     83  O   ILE A  11      43.996   0.762   4.736  0.00  0.00    +0.000 OA
ATOM     84  N   GLU A  12      42.753  -0.674   5.937  0.00  0.00    +0.000 N 
ATOM     85  H   GLU A  12      41.886  -0.885   6.341  0.00  0.00    +0.000 HD
BRANCH  82  86
ATOM     86  CA  ILE A  11      41.730   1.405   5.179  0.00  0.00    +0.000 C 
BRANCH  86  89
ATOM     87  C   LEU A  10      39.939  -0.244   5.097  0.00  0.00    +0.000 C 
ATOM     88  O   LEU A  10      40.366  -0.734   4.051  0.00  0.00    +0.000 OA
ATOM     89  N   ILE A  11      40.524   0.782   5.711  0.00  0.00    +0.000 N 
ATOM     90  H   ILE A  11      40.134   1.127   6.541  0.00  0.00    +0.000 HD
BRANCH  87  91
ATOM     91  CA  LEU A  10      38.689  -0.801   5.771  0.00  0.00    +0.000 C 
BRANCH  91  94
ATOM     92  C   ARG A   9      39.361  -2.228   7.611  0.00  0.00    +0.000 C 
ATOM     93  O   ARG A   9      39.537  -3.188   6.861  0.00  0.00    +0.000 OA
ATOM     94  N   LEU A  10      38.954  -1.040   7.179  0.00  0.00    +0.000 N 
ATOM     95  H   LEU A  10      38.853  -0.309   7.820  0.00  0.00    +0.000 HD
BRANCH  92  96
ATOM     96  CA  ARG A   9      39.633  -2.345   9.107  0.00  0.00    +0.000 C 
BRANCH  96  99
ATOM     97  C   PRO A   8      40.612  -0.114   9.259  0.00  0.00    +0.000 C 
ATOM     98  O   PRO A   8      41.336  -0.307   8.284  0.00  0.00    +0.000 OA
ATOM     99  N   ARG A   9      39.765  -1.029   9.725  0.00  0.00    +0.000 N 
ATOM    100  H   ARG A   9      39.226  -0.821  10.514  0.00  0.00    +0.000 HD
BRANCH  97 104
ATOM    101  C   ASP A   7      39.081   2.437   8.556  0.00  0.00    +0.000 C 
ATOM    102  O   ASP A   7      39.768   2.198   7.564  0.00  0.00    +0.000 OA
ATOM    103  N   PRO A   8      39.432   1.999   9.779  0.00  0.00    +0.000 N 
ATOM    104  CA  PRO A   8      40.648   1.213  10.009  0.00  0.00    +0.000 C 
ATOM    105  CB  PRO A   8      40.659   0.976  11.527  0.00  0.00    +0.000 C 
ATOM    106  CG  PRO A   8      39.709   1.980  12.088  0.00  0.00    +0.000 C 
ATOM    107  CD  PRO A   8      38.679   2.222  11.022  0.00  0.00    +0.000 C 
BRANCH 101 108
ATOM    108  CA  ASP A   7      37.787   3.245   8.428  0.00  0.00    +0.000 C 
BRANCH 108 111
ATOM    109  C   ALA A   6      35.418   2.678   8.400  0.00  0.00    +0.000 C 
ATOM    110  O   ALA A   6      35.164   3.545   7.564  0.00  0.00    +0.000 OA
ATOM    111  N   ASP A   7      36.642   2.460   8.873  0.00  0.00    +0.000 N 
ATOM    112  H   ASP A   7      36.779   1.750   9.534  0.00  0.00    +0.000 HD
BRANCH 109 113
ATOM    113  CA  ALA A   6      34.318   1.778   8.953  0.00  0.00    +0.000 C 
ATOM    114  CB  ALA A   6      32.981   2.504   8.942  0.00  0.00    +0.000 C 
BRANCH 113 117
ATOM    115  C   GLU A   5      34.752   0.057  10.621  0.00  0.00    +0.000 C 
ATOM    116  O   GLU A   5      34.580  -0.856   9.812  0.00  0.00    +0.000 OA
ATOM    117  N   ALA A   6      34.647   1.342  10.303  0.00  0.00    +0.000 N 
ATOM    118  H   ALA A   6      34.799   2.018  10.994  0.00  0.00    +0.000 HD
BRANCH 115 119
ATOM    119  CA  GLU A   5      35.111  -0.237  12.073  0.00  0.00    +0.000 C 
BRANCH 119 122
ATOM    120  C   PRO A   4      34.669   1.796  13.342  0.00  0.00    +0.000 C 
ATOM    121  O   PRO A   4      33.457   1.582  13.365  0.00  0.00    +0.000 OA
ATOM    122  N   GLU A   5      35.538   0.984  12.748  0.00  0.00    +0.000 N 
ATOM    123  H   GLU A   5      36.490   1.216  12.752  0.00  0.00    +0.000 HD
BRANCH 120 127
ATOM    124  C   PRO A   3      34.958   4.797  12.297  0.00  0.00    +0.000 C 
ATOM    125  O   PRO A   3      35.804   4.283  11.566  0.00  0.00    +0.000 OA
ATOM    126  N   PRO A   4      34.630   4.266  13.485  0.00  0.00    +0.000 N 
ATOM    127  CA  PRO A   4      35.247   3.044  13.999  0.00  0.00    +0.000 C 
ATOM    128  CB  PRO A   4      34.894   3.069  15.482  0.00  0.00    +0.000 C 
ATOM    129  CG  PRO A   4      33.616   3.835  15.561  0.00  0.00    +0.000 C 
ATOM    130  CD  PRO A   4      33.621   4.812  14.411  0.00  0.00    +0.000 C 
BRANCH 124 134
ATOM    131  C   SER A   2      35.677   8.054  11.991  0.00  0.00    +0.000 C 
ATOM    132  O   SER A   2      35.489   8.181  13.201  0.00  0.00    +0.000 OA
ATOM    133  N   PRO A   3      35.107   7.066  11.282  0.00  0.00    +0.000 N 
ATOM    134  CA  PRO A   3      34.224   6.065  11.871  0.00  0.00    +0.000 C 
ATOM    135  CB  PRO A   3      33.294   5.763  10.705  0.00  0.00    +0.000 C 
ATOM    136  CG  PRO A   3      34.186   5.835   9.508  0.00  0.00    +0.000 C 
ATOM    137  CD  PRO A   3      35.261   6.850   9.832  0.00  0.00    +0.000 C 
BRANCH 131 138
ATOM    138  CA  SER A   2      36.563   9.035  11.229  0.00  0.00    +0.000 C 
BRANCH 138 141
ATOM    139  C   GLY A   1      35.530  10.671   9.750  0.00  0.00    +0.000 C 
ATOM    140  O   GLY A   1      35.803  10.012   8.747  0.00  0.00    +0.000 OA
ATOM    141  N   SER A   2      35.853  10.284  10.980  0.00  0.00    +0.000 N 
ATOM    142  H   SER A   2      35.607  10.854  11.739  0.00  0.00    +0.000 HD
BRANCH 139 143
ATOM    143  CA  GLY A   1      34.793  11.991   9.631  0.00  0.00    +0.000 C 
BRANCH 143 144
ATOM    144  N   GLY A   1      33.439  11.836   9.032  0.00  0.00    +0.000 N 
ATOM    145  H   GLY A   1      33.490  11.238   8.182  0.00  0.00    +0.000 HD
ATOM    146  H2  GLY A   1      33.057  12.765   8.765  0.00  0.00    +0.000 HD
ATOM    147  H3  GLY A   1      32.794  11.392   9.717  0.00  0.00    +0.000 HD
ENDBRANCH 143 144
ENDBRANCH 139 143
ENDBRANCH 138 141
BRANCH 138 148
ATOM    148  CB  SER A   2      37.848   9.306  12.014  0.00  0.00    +0.000 C 
BRANCH 148 149
ATOM    149  OG  SER A   2      38.775  10.045  11.236  0.00  0.00    +0.000 OA
ATOM    150  HG  SER A   2      38.488  10.961  11.179  0.00  0.00    +0.000 HD
ENDBRANCH 148 149
ENDBRANCH 138 148
ENDBRANCH 131 138
ENDBRANCH 124 134
ENDBRANCH 120 127
ENDBRANCH 119 122
BRANCH 119 151
ATOM    151  CB  GLU A   5      33.919  -0.866  12.799  0.00  0.00    +0.000 C 
BRANCH 151 152
ATOM    152  CG  GLU A   5      34.070  -0.883  14.312  0.00  0.00    +0.000 C 
BRANCH 152 153
ATOM    153  CD  GLU A   5      33.470  -2.122  14.945  0.00  0.00    +0.000 C 
ATOM    154  OE1 GLU A   5      33.550  -3.203  14.324  0.00  0.00    +0.000 OA
ATOM    155  OE2 GLU A   5      32.919  -2.012  16.060  0.00  0.00    +0.000 OA
ENDBRANCH 152 153
ENDBRANCH 151 152
ENDBRANCH 119 151
ENDBRANCH 115 119
ENDBRANCH 113 117
ENDBRANCH 109 113
ENDBRANCH 108 111
BRANCH 108 156
ATOM    156  CB  ASP A   7      37.870   4.564   9.215  0.00  0.00    +0.000 C 
BRANCH 156 157
ATOM    157  CG  ASP A   7      39.294   4.989   9.528  0.00  0.00    +0.000 C 
ATOM    158  OD1 ASP A   7      40.173   4.805   8.660  0.00  0.00    +0.000 OA
ATOM    159  OD2 ASP A   7      39.528   5.505  10.641  0.00  0.00    +0.000 OA
ENDBRANCH 156 157
ENDBRANCH 108 156
ENDBRANCH 101 108
ENDBRANCH  97 104
ENDBRANCH  96  99
BRANCH  96 160
ATOM    160  CB  ARG A   9      38.516  -3.137   9.786  0.00  0.00    +0.000 C 
BRANCH 160 161
ATOM    161  CG  ARG A   9      38.908  -3.686  11.148  0.00  0.00    +0.000 C 
BRANCH 161 162
ATOM    162  CD  ARG A   9      38.754  -2.636  12.238  0.00  0.00    +0.000 C 
BRANCH 162 163
ATOM    163  NE  ARG A   9      39.054  -3.166  13.566  0.00  0.00    +0.000 N 
ATOM    164  CZ  ARG A   9      40.277  -3.511  13.959  0.00  0.00    +0.000 C 
ATOM    165  NH1 ARG A   9      41.303  -3.378  13.131  0.00  0.00    +0.000 N 
ATOM    166  NH2 ARG A   9      40.475  -3.985  15.183  0.00  0.00    +0.000 N 
ATOM    167  HE  ARG A   9      38.309  -3.266  14.194  0.00  0.00    +0.000 HD
ATOM    168 HH11 ARG A   9      41.158  -3.018  12.210  0.00  0.00    +0.000 HD
ATOM    169 HH12 ARG A   9      42.222  -3.637  13.428  0.00  0.00    +0.000 HD
ATOM    170 HH21 ARG A   9      39.704  -4.085  15.812  0.00  0.00    +0.000 HD
ATOM    171 HH22 ARG A   9      41.396  -4.242  15.476  0.00  0.00    +0.000 HD
ENDBRANCH 162 163
ENDBRANCH 161 162
ENDBRANCH 160 161
ENDBRANCH  96 160
ENDBRANCH  92  96
ENDBRANCH  91  94
BRANCH  91 172
ATOM    172  CB  LEU A  10      37.512   0.166   5.592  0.00  0.00    +0.000 C 
BRANCH 172 173
ATOM    173  CG  LEU A  10      36.422  -0.297   4.615  0.00  0.00    +0.000 C 
ATOM    174  CD1 LEU A  10      35.798   0.891   3.903  0.00  0.00    +0.000 C 
ATOM    175  CD2 LEU A  10      36.988  -1.282   3.604  0.00  0.00    +0.000 C 
ENDBRANCH 172 173
ENDBRANCH  91 172
ENDBRANCH  87  91
ENDBRANCH  86  89
BRANCH  86 176
ATOM    176  CB  ILE A  11      42.076   2.727   5.913  0.00  0.00    +0.000 C 
ATOM    177  CG2 ILE A  11      43.044   2.481   7.067  0.00  0.00    +0.000 C 
BRANCH 176 178
ATOM    178  CG1 ILE A  11      42.676   3.732   4.929  0.00  0.00    +0.000 C 
ATOM    179  CD1 ILE A  11      42.693   5.154   5.447  0.00  0.00    +0.000 C 
ENDBRANCH 176 178
ENDBRANCH  86 176
ENDBRANCH  82  86
ENDBRANCH  81  84
BRANCH  81 180
ATOM    180  CB  GLU A  12      43.650  -2.508   7.312  0.00  0.00    +0.000 C 
BRANCH 180 181
ATOM    181  CG  GLU A  12      43.965  -1.803   8.622  0.00  0.00    +0.000 C 
BRANCH 181 182
ATOM    182  CD  GLU A  12      45.061  -0.765   8.480  0.00  0.00    +0.000 C 
ATOM    183  OE1 GLU A  12      44.793   0.306   7.895  0.00  0.00    +0.000 OA
ATOM    184  OE2 GLU A  12      46.187  -1.022   8.955  0.00  0.00    +0.000 OA
ENDBRANCH 181 182
ENDBRANCH 180 181
ENDBRANCH  81 180
ENDBRANCH  77  81
ENDBRANCH  76  79
BRANCH  76 185
ATOM    185  CB  SER A  13      41.550  -4.405   2.861  0.00  0.00    +0.000 C 
BRANCH 185 186
ATOM    186  OG  SER A  13      41.566  -5.027   1.587  0.00  0.00    +0.000 OA
ATOM    187  HG  SER A  13      40.771  -5.555   1.479  0.00  0.00    +0.000 HD
ENDBRANCH 185 186
ENDBRANCH  76 185
ENDBRANCH  72  76
ENDBRANCH  71  74
BRANCH  71 188
ATOM    188  CB  LEU A  14      43.546   0.338   1.237  0.00  0.00    +0.000 C 
BRANCH 188 189
ATOM    189  CG  LEU A  14      42.189   0.434   0.536  0.00  0.00    +0.000 C 
ATOM    190  CD1 LEU A  14      41.283  -0.705   0.972  0.00  0.00    +0.000 C 
ATOM    191  CD2 LEU A  14      41.534   1.776   0.824  0.00  0.00    +0.000 C 
ENDBRANCH 188 189
ENDBRANCH  71 188
ENDBRANCH  67  71
ENDBRANCH  66  69
BRANCH  66 192
ATOM    192  CB  SER A  15      47.872  -1.575   4.320  0.00  0.00    +0.000 C 
BRANCH 192 193
ATOM    193  OG  SER A  15      48.331  -0.559   5.194  0.00  0.00    +0.000 OA
ATOM    194  HG  SER A  15      49.240  -0.740   5.446  0.00  0.00    +0.000 HD
ENDBRANCH 192 193
ENDBRANCH  66 192
ENDBRANCH  62  66
ENDBRANCH  61  64
BRANCH  61 195
ATOM    195  CB  GLN A  16      47.558  -4.908   0.079  0.00  0.00    +0.000 C 
BRANCH 195 196
ATOM    196  CG  GLN A  16      46.081  -4.760  -0.238  0.00  0.00    +0.000 C 
BRANCH 196 197
ATOM    197  CD  GLN A  16      45.739  -5.200  -1.647  0.00  0.00    +0.000 C 
ATOM    198  OE1 GLN A  16      46.584  -5.731  -2.367  0.00  0.00    +0.000 OA
ATOM    199  NE2 GLN A  16      44.493  -4.979  -2.049  0.00  0.00    +0.000 N 
ATOM    200 HE21 GLN A  16      43.872  -4.549  -1.420  0.00  0.00    +0.000 HD
ATOM    201 HE22 GLN A  16      44.243  -5.255  -2.958  0.00  0.00    +0.000 HD
ENDBRANCH 196 197
ENDBRANCH 195 196
ENDBRANCH  61 195
ENDBRANCH  57  61
ENDBRANCH  56  59
BRANCH  56 202
ATOM    202  CB  MET A  17      45.640  -1.364  -3.133  0.00  0.00    +0.000 C 
BRANCH 202 203
ATOM    203  CG  MET A  17      45.333  -0.382  -4.261  0.00  0.00    +0.000 C 
BRANCH 203 204
ATOM    204  SD  MET A  17      46.762  -0.045  -5.308  0.00  0.00    +0.000 S 
ATOM    205  CE  MET A  17      47.069  -1.672  -5.993  0.00  0.00    +0.000 C 
ENDBRANCH 203 204
ENDBRANCH 202 203
ENDBRANCH  56 202
ENDBRANCH  52  56
ENDBRANCH  51  54
BRANCH  51 206
ATOM    206  CB  LEU A  18      46.708   2.587   0.177  0.00  0.00    +0.000 C 
BRANCH 206 207
ATOM    207  CG  LEU A  18      46.977   4.031   0.610  0.00  0.00    +0.000 C 
ATOM    208  CD1 LEU A  18      46.992   4.966  -0.590  0.00  0.00    +0.000 C 
ATOM    209  CD2 LEU A  18      45.930   4.479   1.614  0.00  0.00    +0.000 C 
ENDBRANCH 206 207
ENDBRANCH  51 206
ENDBRANCH  47  51
ENDBRANCH  46  49
BRANCH  46 210
ATOM    210  CB  SER A  19      51.747   0.127  -1.062  0.00  0.00    +0.000 C 
BRANCH 210 211
ATOM    211  OG  SER A  19      51.875  -0.397  -2.373  0.00  0.00    +0.000 OA
ATOM    212  HG  SER A  19      51.613  -1.321  -2.376  0.00  0.00    +0.000 HD
ENDBRANCH 210 211
ENDBRANCH  46 210
ENDBRANCH  42  46
ENDBRANCH  41  44
BRANCH  41 213
ATOM    213  CB  MET A  20      50.795   2.605  -5.697  0.00  0.00    +0.000 C 
BRANCH 213 214
ATOM    214  CG  MET A  20      50.993   3.424  -6.963  0.00  0.00    +0.000 C 
BRANCH 214 215
ATOM    215  SD  MET A  20      51.066   2.403  -8.448  0.00  0.00    +0.000 S 
ATOM    216  CE  MET A  20      49.529   1.493  -8.312  0.00  0.00    +0.000 C 
ENDBRANCH 214 215
ENDBRANCH 213 214
ENDBRANCH  41 213
ENDBRANCH  37  41
ENDBRANCH  36  39
ENDBRANCH  32  36
ENDBRANCH  31  34
BRANCH  31 217
ATOM    217  CB  PHE A  22      46.157   3.801  -7.484  0.00  0.00    +0.000 C 
BRANCH 217 218
ATOM    218  CG  PHE A  22      45.186   3.232  -8.479  0.00  0.00    +0.000 A 
ATOM    219  CD1 PHE A  22      44.259   4.047  -9.107  0.00  0.00    +0.000 A 
ATOM    220  CD2 PHE A  22      45.204   1.881  -8.789  0.00  0.00    +0.000 A 
ATOM    221  CE1 PHE A  22      43.369   3.527 -10.028  0.00  0.00    +0.000 A 
ATOM    222  CE2 PHE A  22      44.316   1.355  -9.708  0.00  0.00    +0.000 A 
ATOM    223  CZ  PHE A  22      43.398   2.179 -10.329  0.00  0.00    +0.000 A 
ENDBRANCH 217 218
ENDBRANCH  31 217
ENDBRANCH  27  31
ENDBRANCH  26  29
BRANCH  26 224
ATOM    224  CB  SER A  23      40.836   3.721  -5.533  0.00  0.00    +0.000 C 
BRANCH 224 225
ATOM    225  OG  SER A  23      41.251   4.994  -5.071  0.00  0.00    +0.000 OA
ATOM    226  HG  SER A  23      40.998   5.097  -4.151  0.00  0.00    +0.000 HD
ENDBRANCH 224 225
ENDBRANCH  26 224
ENDBRANCH  22  26
ENDBRANCH  21  24
BRANCH  21 227
ATOM    227  CB  ASP A  24      40.471  -1.526  -7.080  0.00  0.00    +0.000 C 
BRANCH 227 228
ATOM    228  CG  ASP A  24      39.027  -1.908  -6.809  0.00  0.00    +0.000 C 
ATOM    229  OD1 ASP A  24      38.349  -1.173  -6.062  0.00  0.00    +0.000 OA
ATOM    230  OD2 ASP A  24      38.576  -2.942  -7.345  0.00  0.00    +0.000 OA
ENDBRANCH 227 228
ENDBRANCH  21 227
ENDBRANCH  17  21
ENDBRANCH  16  19
BRANCH  16 231
ATOM    231  CB  GLU A  25      38.905   2.455 -11.336  0.00  0.00    +0.000 C 
BRANCH 231 232
ATOM    232  CG  GLU A  25      38.325   3.720 -10.726  0.00  0.00    +0.000 C 
BRANCH 232 233
ATOM    233  CD  GLU A  25      39.156   4.950 -11.034  0.00  0.00    +0.000 C 
ATOM    234  OE1 GLU A  25      39.016   5.498 -12.148  0.00  0.00    +0.000 OA
ATOM    235  OE2 GLU A  25      39.945   5.368 -10.161  0.00  0.00    +0.000 OA
ENDBRANCH 232 233
ENDBRANCH 231 232
ENDBRANCH  16 231
ENDBRANCH  12  16
ENDBRANCH  11  14
ENDBRANCH   7  11
ENDBRANCH   6   9
ENDBRANCH   2   6
ENDBRANCH   1   4
BRANCH   1 236
ATOM    236  C   TRP A  28      40.288  -6.141  -7.867  0.00  0.00    +0.000 C 
ATOM    237  O   TRP A  28      40.172  -7.235  -7.316  0.00  0.00    +0.000 OA
ATOM    238  N   LEU A  29      40.505  -5.014  -7.197  0.00  0.00    +0.000 N 
ATOM    239  H   LEU A  29      40.602  -4.182  -7.703  0.00  0.00    +0.000 HD
BRANCH 238 240
ATOM    240  CA  LEU A  29      40.622  -4.999  -5.741  0.00  0.00    +0.000 C 
BRANCH 240 241
ATOM    241  C   LEU A  29      39.294  -5.344  -5.076  0.00  0.00    +0.000 C 
ATOM    242  O   LEU A  29      39.254  -6.130  -4.129  0.00  0.00    +0.000 OA
ATOM    243  N   THR A  30      38.213  -4.747  -5.572  0.00  0.00    +0.000 N 
ATOM    244  H   THR A  30      38.315  -4.125  -6.323  0.00  0.00    +0.000 HD
BRANCH 243 245
ATOM    245  CA  THR A  30      36.880  -4.987  -5.025  0.00  0.00    +0.000 C 
BRANCH 245 246
ATOM    246  C   THR A  30      36.754  -6.411  -4.494  0.00  0.00    +0.000 C 
ATOM    247  O   THR A  30      36.406  -6.621  -3.333  0.00  0.00    +0.000 OA
ATOM    248  N   ARG A  31      37.048  -7.387  -5.349  0.00  0.00    +0.000 N 
ATOM    249  H   ARG A  31      37.325  -7.159  -6.261  0.00  0.00    +0.000 HD
BRANCH 248 250
ATOM    250  CA  ARG A  31      36.975  -8.788  -4.953  0.00  0.00    +0.000 C 
BRANCH 250 251
ATOM    251  C   ARG A  31      37.719  -9.003  -3.642  0.00  0.00    +0.000 C 
ATOM    252  O   ARG A  31      37.198  -9.616  -2.710  0.00  0.00    +0.000 OA
ATOM    253  N   LEU A  32      38.941  -8.482  -3.578  0.00  0.00    +0.000 N 
ATOM    254  H   LEU A  32      39.292  -7.998  -4.354  0.00  0.00    +0.000 HD
BRANCH 253 255
ATOM    255  CA  LEU A  32      39.764  -8.601  -2.382  0.00  0.00    +0.000 C 
BRANCH 255 256
ATOM    256  C   LEU A  32      39.053  -7.988  -1.184  0.00  0.00    +0.000 C 
ATOM    257  O   LEU A  32      38.608  -8.697  -0.281  0.00  0.00    +0.000 OA
ATOM    258  N   LEU A  33      38.947  -6.664  -1.186  0.00  0.00    +0.000 N 
ATOM    259  H   LEU A  33      39.320  -6.155  -1.937  0.00  0.00    +0.000 HD
BRANCH 258 260
ATOM    260  CA  LEU A  33      38.288  -5.949  -0.103  0.00  0.00    +0.000 C 
BRANCH 260 261
ATOM    261  C   LEU A  33      37.023  -6.673   0.333  0.00  0.00    +0.000 C 
ATOM    262  O   LEU A  33      36.702  -6.722   1.521  0.00  0.00    +0.000 OA
ATOM    263  N   GLN A  34      36.309  -7.245  -0.632  0.00  0.00    +0.000 N 
ATOM    264  H   GLN A  34      36.617  -7.181  -1.561  0.00  0.00    +0.000 HD
BRANCH 263 265
ATOM    265  CA  GLN A  34      35.086  -7.976  -0.334  0.00  0.00    +0.000 C 
BRANCH 265 266
ATOM    266  C   GLN A  34      35.329  -8.954   0.806  0.00  0.00    +0.000 C 
ATOM    267  O   GLN A  34      34.401  -9.350   1.511  0.00  0.00    +0.000 OA
ATOM    268  N   THR A  35      36.593  -9.317   0.994  0.00  0.00    +0.000 N 
ATOM    269  H   THR A  35      37.284  -8.946   0.409  0.00  0.00    +0.000 HD
BRANCH 268 270
ATOM    270  CA  THR A  35      36.967 -10.222   2.065  0.00  0.00    +0.000 C 
BRANCH 270 271
ATOM    271  C   THR A  35      36.380  -9.724   3.378  0.00  0.00    +0.000 C 
ATOM    272  O   THR A  35      36.086 -10.509   4.279  0.00  0.00    +0.000 OA
ATOM    273  N   LYS A  36      36.221  -8.404   3.481  0.00  0.00    +0.000 N 
ATOM    274  H   LYS A  36      36.496  -7.827   2.738  0.00  0.00    +0.000 HD
BRANCH 273 275
ATOM    275  CA  LYS A  36      35.679  -7.789   4.686  0.00  0.00    +0.000 C 
BRANCH 275 276
ATOM    276  C   LYS A  36      34.209  -8.148   4.854  0.00  0.00    +0.000 C 
ATOM    277  O   LYS A  36      33.676  -8.081   5.961  0.00  0.00    +0.000 OA
ATOM    278  N   ASN A  37      33.575  -8.539   3.744  0.00  0.00    +0.000 N 
ATOM    279  H   ASN A  37      34.070  -8.562   2.904  0.00  0.00    +0.000 HD
BRANCH 278 280
ATOM    280  CA  ASN A  37      32.177  -8.938   3.728  0.00  0.00    +0.000 C 
BRANCH 280 281
ATOM    281  C   ASN A  37      31.289  -7.832   3.185  0.00  0.00    +0.000 C 
ATOM    282  O   ASN A  37      30.086  -8.035   3.022  0.00  0.00    +0.000 OA
ATOM    283  N   TYR A  38      31.855  -6.656   2.902  0.00  0.00    +0.000 N 
ATOM    284  H   TYR A  38      32.815  -6.509   3.046  0.00  0.00    +0.000 HD
BRANCH 283 285
ATOM    285  CA  TYR A  38      31.037  -5.582   2.387  0.00  0.00    +0.000 C 
BRANCH 285 286
ATOM    286  C   TYR A  38      31.549  -5.068   1.045  0.00  0.00    +0.000 C 
ATOM    287  O   TYR A  38      31.625  -5.834   0.084  0.00  0.00    +0.000 OA
ATOM    288  N   ASP A  39      31.880  -3.781   0.951  0.00  0.00    +0.000 N 
ATOM    289  H   ASP A  39      31.806  -3.194   1.730  0.00  0.00    +0.000 HD
BRANCH 288 290
ATOM    290  CA  ASP A  39      32.347  -3.247  -0.319  0.00  0.00    +0.000 C 
BRANCH 290 291
ATOM    291  C   ASP A  39      33.561  -2.342  -0.198  0.00  0.00    +0.000 C 
ATOM    292  O   ASP A  39      33.730  -1.607   0.774  0.00  0.00    +0.000 OA
ATOM    293  N   ILE A  40      34.386  -2.401  -1.237  0.00  0.00    +0.000 N 
ATOM    294  H   ILE A  40      34.167  -2.996  -1.970  0.00  0.00    +0.000 HD
BRANCH 293 295
ATOM    295  CA  ILE A  40      35.582  -1.597  -1.335  0.00  0.00    +0.000 C 
BRANCH 295 296
ATOM    296  C   ILE A  40      35.215  -0.171  -1.701  0.00  0.00    +0.000 C 
ATOM    297  O   ILE A  40      35.976   0.758  -1.449  0.00  0.00    +0.000 OA
ATOM    298  N   GLY A  41      34.025   0.008  -2.274  0.00  0.00    +0.000 N 
ATOM    299  H   GLY A  41      33.441  -0.763  -2.435  0.00  0.00    +0.000 HD
BRANCH 298 300
ATOM    300  CA  GLY A  41      33.592   1.346  -2.618  0.00  0.00    +0.000 C 
BRANCH 300 301
ATOM    301  C   GLY A  41      33.904   2.276  -1.479  0.00  0.00    +0.000 C 
ATOM    302  O   GLY A  41      34.443   3.367  -1.663  0.00  0.00    +0.000 OA
ATOM    303  N   ALA A  42      33.586   1.798  -0.290  0.00  0.00    +0.000 N 
ATOM    304  H   ALA A  42      33.177   0.913  -0.241  0.00  0.00    +0.000 HD
BRANCH 303 305
ATOM    305  CA  ALA A  42      33.848   2.526   0.935  0.00  0.00    +0.000 C 
ATOM    306  CB  ALA A  42      33.108   1.886   2.100  0.00  0.00    +0.000 C 
BRANCH 305 307
ATOM    307  C   ALA A  42      35.345   2.546   1.204  0.00  0.00    +0.000 C 
ATOM    308  O   ALA A  42      35.885   3.532   1.706  0.00  0.00    +0.000 OA
ATOM    309  N   ALA A  43      36.019   1.446   0.858  0.00  0.00    +0.000 N 
ATOM    310  H   ALA A  43      35.533   0.678   0.451  0.00  0.00    +0.000 HD
BRANCH 309 311
ATOM    311  CA  ALA A  43      37.463   1.357   1.062  0.00  0.00    +0.000 C 
ATOM    312  CB  ALA A  43      37.931  -0.087   0.973  0.00  0.00    +0.000 C 
BRANCH 311 313
ATOM    313  C   ALA A  43      38.214   2.218   0.051  0.00  0.00    +0.000 C 
ATOM    314  O   ALA A  43      38.884   3.184   0.417  0.00  0.00    +0.000 OA
ATOM    315  N   LEU A  44      38.099   1.861  -1.224  0.00  0.00    +0.000 N 
ATOM    316  H   LEU A  44      37.551   1.082  -1.452  0.00  0.00    +0.000 HD
BRANCH 315 317
ATOM    317  CA  LEU A  44      38.765   2.597  -2.291  0.00  0.00    +0.000 C 
BRANCH 317 318
ATOM    318  C   LEU A  44      38.498   4.095  -2.157  0.00  0.00    +0.000 C 
ATOM    319  O   LEU A  44      39.317   4.922  -2.559  0.00  0.00    +0.000 OA
ATOM    320  N   ASP A  45      37.346   4.435  -1.594  0.00  0.00    +0.000 N 
ATOM    321  H   ASP A  45      36.731   3.732  -1.297  0.00  0.00    +0.000 HD
BRANCH 320 322
ATOM    322  CA  ASP A  45      36.973   5.830  -1.411  0.00  0.00    +0.000 C 
BRANCH 322 323
ATOM    323  C   ASP A  45      37.955   6.543  -0.486  0.00  0.00    +0.000 C 
ATOM    324  O   ASP A  45      37.956   7.770  -0.395  0.00  0.00    +0.000 OA
ATOM    325  N   THR A  46      38.783   5.766   0.208  0.00  0.00    +0.000 N 
ATOM    326  H   THR A  46      38.732   4.793   0.100  0.00  0.00    +0.000 HD
BRANCH 325 327
ATOM    327  CA  THR A  46      39.758   6.332   1.135  0.00  0.00    +0.000 C 
BRANCH 327 328
ATOM    328  C   THR A  46      41.116   6.543   0.478  0.00  0.00    +0.000 C 
ATOM    329  O   THR A  46      41.898   7.384   0.922  0.00  0.00    +0.000 OA
ATOM    330  N   ILE A  47      41.398   5.796  -0.580  0.00  0.00    +0.000 N 
ATOM    331  H   ILE A  47      40.741   5.146  -0.901  0.00  0.00    +0.000 HD
BRANCH 330 332
ATOM    332  CA  ILE A  47      42.672   5.947  -1.272  0.00  0.00    +0.000 C 
BRANCH 332 333
ATOM    333  C   ILE A  47      42.726   7.320  -1.929  0.00  0.00    +0.000 C 
ATOM    334  O   ILE A  47      43.793   7.808  -2.301  0.00  0.00    +0.000 OA
ATOM    335  N   GLN A  48      41.553   7.939  -2.053  0.00  0.00    +0.000 N 
ATOM    336  H   GLN A  48      40.743   7.480  -1.732  0.00  0.00    +0.000 HD
BRANCH 335 337
ATOM    337  CA  GLN A  48      41.439   9.265  -2.649  0.00  0.00    +0.000 C 
BRANCH 337 338
ATOM    338  C   GLN A  48      40.092   9.892  -2.296  0.00  0.00    +0.000 C 
ATOM    339  O   GLN A  48      39.929  10.404  -1.189  0.00  0.00    +0.000 OA
ATOM    340  N   TYR A  49      39.137   9.849  -3.237  0.00  0.00    +0.000 N 
ATOM    341  H   TYR A  49      39.326   9.433  -4.101  0.00  0.00    +0.000 HD
BRANCH 340 342
ATOM    342  CA  TYR A  49      37.794  10.408  -3.042  0.00  0.00    +0.000 C 
BRANCH 342 343
ATOM    343  C   TYR A  49      37.584  10.993  -1.647  0.00  0.00    +0.000 C 
ATOM    344  O   TYR A  49      36.853  10.432  -0.831  0.00  0.00    +0.000 OA
ATOM    345  N   SER A  50      38.224  12.130  -1.383  0.00  0.00    +0.000 N 
ATOM    346  H   SER A  50      38.790  12.530  -2.076  0.00  0.00    +0.000 HD
BRANCH 345 347
ATOM    347  CA  SER A  50      38.101  12.798  -0.092  0.00  0.00    +0.000 C 
BRANCH 347 348
ATOM    348  C   SER A  50      39.153  13.901   0.055  0.00  0.00    +0.000 C 
ATOM    349  O   SER A  50      39.060  14.939  -0.600  0.00  0.00    +0.000 OA
ATOM    350  N   LYS A  51      40.151  13.682   0.911  0.00  0.00    +0.000 N 
ATOM    351  H   LYS A  51      40.183  12.843   1.413  0.00  0.00    +0.000 HD
BRANCH 350 352
ATOM    352  CA  LYS A  51      41.200  14.673   1.123  0.00  0.00    +0.000 C 
BRANCH 352 353
ATOM    353  C   LYS A  51      42.541  13.996   1.386  0.00  0.00    +0.000 C 
ATOM    354  O   LYS A  51      42.605  12.951   2.034  0.00  0.00    +0.000 OA
ATOM    355  N   HIS A  52      43.610  14.597   0.875  0.00  0.00    +0.000 N 
ATOM    356  H   HIS A  52      43.493  15.426   0.366  0.00  0.00    +0.000 HD
BRANCH 355 357
ATOM    357  CA  HIS A  52      44.952  14.054   1.050  0.00  0.00    +0.000 C 
BRANCH 357 358
ATOM    358  C   HIS A  52      45.581  14.558   2.344  0.00  0.00    +0.000 C 
ATOM    359  O   HIS A  52      45.731  13.748   3.283  0.00  0.00    +0.000 OA
ATOM    360  OXT HIS A  52      45.921  15.758   2.407  0.00  0.00    +0.000 OA
ENDBRANCH 357 358
BRANCH 357 361
ATOM    361  CB  HIS A  52      45.834  14.435  -0.141  0.00  0.00    +0.000 C 
BRANCH 361 362
ATOM    362  CG  HIS A  52      47.126  13.681  -0.198  0.00  0.00    +0.000 A 
ATOM    363  ND1 HIS A  52      47.371  12.520   0.501  0.00  0.00    +0.000 N 
ATOM    364  CD2 HIS A  52      48.260  13.944  -0.896  0.00  0.00    +0.000 A 
ATOM    365  CE1 HIS A  52      48.618  12.123   0.215  0.00  0.00    +0.000 A 
ATOM    366  NE2 HIS A  52      49.201  12.954  -0.629  0.00  0.00    +0.000 NA
ATOM    367  HD1 HIS A  52      46.744  12.064   1.102  0.00  0.00    +0.000 HD
ENDBRANCH 361 362
ENDBRANCH 357 361
ENDBRANCH 355 357
ENDBRANCH 352 353
BRANCH 352 368
ATOM    368  CB  LYS A  51      40.833  15.589   2.293  0.00  0.00    +0.000 C 
BRANCH 368 369
ATOM    369  CG  LYS A  51      42.024  16.310   2.902  0.00  0.00    +0.000 C 
BRANCH 369 370
ATOM    370  CD  LYS A  51      41.703  17.766   3.202  0.00  0.00    +0.000 C 
BRANCH 370 371
ATOM    371  CE  LYS A  51      42.128  18.677   2.062  0.00  0.00    +0.000 C 
BRANCH 371 372
ATOM    372  NZ  LYS A  51      41.544  20.040   2.192  0.00  0.00    +0.000 N 
ATOM    373  HZ1 LYS A  51      41.813  20.624   1.374  0.00  0.00    +0.000 HD
ATOM    374  HZ2 LYS A  51      41.893  20.498   3.059  0.00  0.00    +0.000 HD
ATOM    375  HZ3 LYS A  51      40.507  19.981   2.238  0.00  0.00    +0.000 HD
ENDBRANCH 371 372
ENDBRANCH 370 371
ENDBRANCH 369 370
ENDBRANCH 368 369
ENDBRANCH 352 368
ENDBRANCH 350 352
ENDBRANCH 347 348
BRANCH 347 376
ATOM    376  CB  SER A  50      38.215  11.782   1.048  0.00  0.00    +0.000 C 
BRANCH 376 377
ATOM    377  OG  SER A  50      38.406  12.430   2.294  0.00  0.00    +0.000 OA
ATOM    378  HG  SER A  50      37.912  13.254   2.307  0.00  0.00    +0.000 HD
ENDBRANCH 376 377
ENDBRANCH 347 376
ENDBRANCH 345 347
ENDBRANCH 342 343
BRANCH 342 379
ATOM    379  CB  TYR A  49      36.744   9.329  -3.316  0.00  0.00    +0.000 C 
BRANCH 379 380
ATOM    380  CG  TYR A  49      37.181   8.302  -4.341  0.00  0.00    +0.000 A 
ATOM    381  CD1 TYR A  49      38.163   7.365  -4.042  0.00  0.00    +0.000 A 
ATOM    382  CD2 TYR A  49      36.608   8.266  -5.607  0.00  0.00    +0.000 A 
ATOM    383  CE1 TYR A  49      38.560   6.422  -4.973  0.00  0.00    +0.000 A 
ATOM    384  CE2 TYR A  49      37.001   7.328  -6.543  0.00  0.00    +0.000 A 
ATOM    385  CZ  TYR A  49      37.977   6.409  -6.221  0.00  0.00    +0.000 A 
BRANCH 385 386
ATOM    386  OH  TYR A  49      38.370   5.472  -7.150  0.00  0.00    +0.000 OA
ATOM    387  HH  TYR A  49      37.598   5.127  -7.604  0.00  0.00    +0.000 HD
ENDBRANCH 385 386
ENDBRANCH 379 380
ENDBRANCH 342 379
ENDBRANCH 340 342
ENDBRANCH 337 338
BRANCH 337 388
ATOM    388  CB  GLN A  48      41.635   9.190  -4.167  0.00  0.00    +0.000 C 
BRANCH 388 389
ATOM    389  CG  GLN A  48      41.332   7.819  -4.749  0.00  0.00    +0.000 C 
BRANCH 389 390
ATOM    390  CD  GLN A  48      40.977   7.873  -6.222  0.00  0.00    +0.000 C 
ATOM    391  OE1 GLN A  48      41.062   8.925  -6.856  0.00  0.00    +0.000 OA
ATOM    392  NE2 GLN A  48      40.574   6.734  -6.776  0.00  0.00    +0.000 N 
ATOM    393 HE21 GLN A  48      40.527   5.933  -6.207  0.00  0.00    +0.000 HD
ATOM    394 HE22 GLN A  48      40.340   6.740  -7.731  0.00  0.00    +0.000 HD
ENDBRANCH 389 390
ENDBRANCH 388 389
ENDBRANCH 337 388
ENDBRANCH 335 337
ENDBRANCH 332 333
BRANCH 332 395
ATOM    395  CB  ILE A  47      42.897   4.852  -2.339  0.00  0.00    +0.000 C 
ATOM    396  CG2 ILE A  47      44.367   4.461  -2.379  0.00  0.00    +0.000 C 
BRANCH 395 397
ATOM    397  CG1 ILE A  47      42.020   3.626  -2.056  0.00  0.00    +0.000 C 
ATOM    398  CD1 ILE A  47      42.596   2.324  -2.576  0.00  0.00    +0.000 C 
ENDBRANCH 395 397
ENDBRANCH 332 395
ENDBRANCH 330 332
ENDBRANCH 327 328
BRANCH 327 399
ATOM    399  CB  THR A  46      39.909   5.441   2.365  0.00  0.00    +0.000 C 
ATOM    400  CG2 THR A  46      40.865   4.291   2.145  0.00  0.00    +0.000 C 
BRANCH 399 401
ATOM    401  OG1 THR A  46      40.378   6.188   3.474  0.00  0.00    +0.000 OA
ATOM    402  HG1 THR A  46      41.279   6.474   3.309  0.00  0.00    +0.000 HD
ENDBRANCH 399 401
ENDBRANCH 327 399
ENDBRANCH 325 327
ENDBRANCH 322 323
BRANCH 322 403
ATOM    403  CB  ASP A  45      35.555   5.931  -0.849  0.00  0.00    +0.000 C 
BRANCH 403 404
ATOM    404  CG  ASP A  45      34.564   6.447  -1.874  0.00  0.00    +0.000 C 
ATOM    405  OD1 ASP A  45      35.006   7.031  -2.886  0.00  0.00    +0.000 OA
ATOM    406  OD2 ASP A  45      33.345   6.267  -1.666  0.00  0.00    +0.000 OA
ENDBRANCH 403 404
ENDBRANCH 322 403
ENDBRANCH 320 322
ENDBRANCH 317 318
BRANCH 317 407
ATOM    407  CB  LEU A  44      38.297   2.081  -3.660  0.00  0.00    +0.000 C 
BRANCH 407 408
ATOM    408  CG  LEU A  44      37.840   3.152  -4.657  0.00  0.00    +0.000 C 
ATOM    409  CD1 LEU A  44      37.830   2.598  -6.073  0.00  0.00    +0.000 C 
ATOM    410  CD2 LEU A  44      36.463   3.677  -4.275  0.00  0.00    +0.000 C 
ENDBRANCH 407 408
ENDBRANCH 317 407
ENDBRANCH 315 317
ENDBRANCH 311 313
ENDBRANCH 309 311
ENDBRANCH 305 307
ENDBRANCH 303 305
ENDBRANCH 300 301
ENDBRANCH 298 300
ENDBRANCH 295 296
BRANCH 295 411
ATOM    411  CB  ILE A  40      36.551  -2.165  -2.391  0.00  0.00    +0.000 C 
ATOM    412  CG2 ILE A  40      36.047  -1.840  -3.790  0.00  0.00    +0.000 C 
BRANCH 411 413
ATOM    413  CG1 ILE A  40      37.968  -1.622  -2.164  0.00  0.00    +0.000 C 
ATOM    414  CD1 ILE A  40      38.720  -1.285  -3.436  0.00  0.00    +0.000 C 
ENDBRANCH 411 413
ENDBRANCH 295 411
ENDBRANCH 293 295
ENDBRANCH 290 291
BRANCH 290 415
ATOM    415  CB  ASP A  39      31.213  -2.508  -1.034  0.00  0.00    +0.000 C 
BRANCH 415 416
ATOM    416  CG  ASP A  39      31.128  -2.862  -2.506  0.00  0.00    +0.000 C 
ATOM    417  OD1 ASP A  39      30.960  -4.060  -2.819  0.00  0.00    +0.000 OA
ATOM    418  OD2 ASP A  39      31.228  -1.943  -3.345  0.00  0.00    +0.000 OA
ENDBRANCH 415 416
ENDBRANCH 290 415
ENDBRANCH 288 290
ENDBRANCH 285 286
BRANCH 285 419
ATOM    419  CB  TYR A  38      30.883  -4.450   3.410  0.00  0.00    +0.000 C 
BRANCH 419 420
ATOM    420  CG  TYR A  38      32.171  -4.009   4.066  0.00  0.00    +0.000 A 
ATOM    421  CD1 TYR A  38      33.401  -4.240   3.467  0.00  0.00    +0.000 A 
ATOM    422  CD2 TYR A  38      32.151  -3.355   5.292  0.00  0.00    +0.000 A 
ATOM    423  CE1 TYR A  38      34.574  -3.835   4.074  0.00  0.00    +0.000 A 
ATOM    424  CE2 TYR A  38      33.319  -2.947   5.904  0.00  0.00    +0.000 A 
ATOM    425  CZ  TYR A  38      34.528  -3.189   5.290  0.00  0.00    +0.000 A 
BRANCH 425 426
ATOM    426  OH  TYR A  38      35.696  -2.786   5.896  0.00  0.00    +0.000 OA
ATOM    427  HH  TYR A  38      36.186  -3.557   6.191  0.00  0.00    +0.000 HD
ENDBRANCH 425 426
ENDBRANCH 419 420
ENDBRANCH 285 419
ENDBRANCH 283 285
ENDBRANCH 280 281
BRANCH 280 428
ATOM    428  CB  ASN A  37      31.693  -9.367   5.117  0.00  0.00    +0.000 C 
BRANCH 428 429
ATOM    429  CG  ASN A  37      32.615 -10.385   5.763  0.00  0.00    +0.000 C 
ATOM    430  OD1 ASN A  37      32.772 -10.409   6.983  0.00  0.00    +0.000 OA
ATOM    431  ND2 ASN A  37      33.236 -11.228   4.944  0.00  0.00    +0.000 N 
ATOM    432 HD21 ASN A  37      33.066 -11.145   3.977  0.00  0.00    +0.000 HD
ATOM    433 HD22 ASN A  37      33.839 -11.899   5.341  0.00  0.00    +0.000 HD
ENDBRANCH 428 429
ENDBRANCH 280 428
ENDBRANCH 278 280
ENDBRANCH 275 276
BRANCH 275 434
ATOM    434  CB  LYS A  36      35.821  -6.269   4.612  0.00  0.00    +0.000 C 
BRANCH 434 435
ATOM    435  CG  LYS A  36      37.161  -5.745   5.101  0.00  0.00    +0.000 C 
BRANCH 435 436
ATOM    436  CD  LYS A  36      38.320  -6.442   4.408  0.00  0.00    +0.000 C 
BRANCH 436 437
ATOM    437  CE  LYS A  36      39.573  -6.425   5.268  0.00  0.00    +0.000 C 
BRANCH 437 438
ATOM    438  NZ  LYS A  36      39.558  -7.507   6.292  0.00  0.00    +0.000 N 
ATOM    439  HZ1 LYS A  36      40.243  -7.297   7.045  0.00  0.00    +0.000 HD
ATOM    440  HZ2 LYS A  36      39.808  -8.417   5.855  0.00  0.00    +0.000 HD
ATOM    441  HZ3 LYS A  36      38.610  -7.588   6.713  0.00  0.00    +0.000 HD
ENDBRANCH 437 438
ENDBRANCH 436 437
ENDBRANCH 435 436
ENDBRANCH 434 435
ENDBRANCH 275 434
ENDBRANCH 273 275
ENDBRANCH 270 271
BRANCH 270 442
ATOM    442  CB  THR A  35      38.489 -10.330   2.169  0.00  0.00    +0.000 C 
ATOM    443  CG2 THR A  35      38.951 -11.312   3.224  0.00  0.00    +0.000 C 
BRANCH 442 444
ATOM    444  OG1 THR A  35      39.047 -10.737   0.931  0.00  0.00    +0.000 OA
ATOM    445  HG1 THR A  35      39.987 -10.547   0.924  0.00  0.00    +0.000 HD
ENDBRANCH 442 444
ENDBRANCH 270 442
ENDBRANCH 268 270
ENDBRANCH 265 266
BRANCH 265 446
ATOM    446  CB  GLN A  34      34.588  -8.720  -1.574  0.00  0.00    +0.000 C 
BRANCH 446 447
ATOM    447  CG  GLN A  34      33.236  -8.233  -2.067  0.00  0.00    +0.000 C 
BRANCH 447 448
ATOM    448  CD  GLN A  34      33.339  -6.969  -2.900  0.00  0.00    +0.000 C 
ATOM    449  OE1 GLN A  34      32.966  -6.953  -4.073  0.00  0.00    +0.000 OA
ATOM    450  NE2 GLN A  34      33.850  -5.900  -2.296  0.00  0.00    +0.000 N 
ATOM    451 HE21 GLN A  34      34.131  -5.987  -1.356  0.00  0.00    +0.000 HD
ATOM    452 HE22 GLN A  34      33.924  -5.066  -2.815  0.00  0.00    +0.000 HD
ENDBRANCH 447 448
ENDBRANCH 446 447
ENDBRANCH 265 446
ENDBRANCH 263 265
ENDBRANCH 260 261
BRANCH 260 453
ATOM    453  CB  LEU A  33      37.946  -4.527  -0.532  0.00  0.00    +0.000 C 
BRANCH 453 454
ATOM    454  CG  LEU A  33      37.839  -3.528   0.616  0.00  0.00    +0.000 C 
ATOM    455  CD1 LEU A  33      37.036  -4.121   1.759  0.00  0.00    +0.000 C 
ATOM    456  CD2 LEU A  33      39.221  -3.112   1.091  0.00  0.00    +0.000 C 
ENDBRANCH 453 454
ENDBRANCH 260 453
ENDBRANCH 258 260
ENDBRANCH 255 256
BRANCH 255 457
ATOM    457  CB  LEU A  32      41.109  -7.904  -2.596  0.00  0.00    +0.000 C 
BRANCH 457 458
ATOM    458  CG  LEU A  32      42.324  -8.629  -2.012  0.00  0.00    +0.000 C 
ATOM    459  CD1 LEU A  32      43.562  -7.756  -2.128  0.00  0.00    +0.000 C 
ATOM    460  CD2 LEU A  32      42.076  -9.011  -0.559  0.00  0.00    +0.000 C 
ENDBRANCH 457 458
ENDBRANCH 255 457
ENDBRANCH 253 255
ENDBRANCH 250 251
BRANCH 250 461
ATOM    461  CB  ARG A  31      37.567  -9.684  -6.042  0.00  0.00    +0.000 C 
BRANCH 461 462
ATOM    462  CG  ARG A  31      37.646 -11.149  -5.645  0.00  0.00    +0.000 C 
BRANCH 462 463
ATOM    463  CD  ARG A  31      36.270 -11.715  -5.331  0.00  0.00    +0.000 C 
BRANCH 463 464
ATOM    464  NE  ARG A  31      35.471 -11.905  -6.537  0.00  0.00    +0.000 N 
ATOM    465  CZ  ARG A  31      34.318 -12.564  -6.560  0.00  0.00    +0.000 C 
ATOM    466  NH1 ARG A  31      33.828 -13.086  -5.443  0.00  0.00    +0.000 N 
ATOM    467  NH2 ARG A  31      33.652 -12.699  -7.698  0.00  0.00    +0.000 N 
ATOM    468  HE  ARG A  31      35.812 -11.523  -7.373  0.00  0.00    +0.000 HD
ATOM    469 HH11 ARG A  31      34.327 -12.983  -4.583  0.00  0.00    +0.000 HD
ATOM    470 HH12 ARG A  31      32.960 -13.581  -5.462  0.00  0.00    +0.000 HD
ATOM    471 HH21 ARG A  31      34.019 -12.305  -8.541  0.00  0.00    +0.000 HD
ATOM    472 HH22 ARG A  31      32.784 -13.196  -7.715  0.00  0.00    +0.000 HD
ENDBRANCH 463 464
ENDBRANCH 462 463
ENDBRANCH 461 462
ENDBRANCH 250 461
ENDBRANCH 248 250
ENDBRANCH 245 246
BRANCH 245 473
ATOM    473  CB  THR A  30      35.814  -4.732  -6.090  0.00  0.00    +0.000 C 
ATOM    474  CG2 THR A  30      34.432  -4.523  -5.512  0.00  0.00    +0.000 C 
BRANCH 473 475
ATOM    475  OG1 THR A  30      36.135  -3.586  -6.857  0.00  0.00    +0.000 OA
ATOM    476  HG1 THR A  30      35.427  -3.411  -7.481  0.00  0.00    +0.000 HD
ENDBRANCH 473 475
ENDBRANCH 245 473
ENDBRANCH 243 245
ENDBRANCH 240 241
BRANCH 240 477
ATOM    477  CB  LEU A  29      41.110  -3.634  -5.261  0.00  0.00    +0.000 C 
BRANCH 477 478
ATOM    478  CG  LEU A  29      41.899  -3.641  -3.950  0.00  0.00    +0.000 C 
ATOM    479  CD1 LEU A  29      41.757  -2.306  -3.234  0.00  0.00    +0.000 C 
ATOM    480  CD2 LEU A  29      41.441  -4.777  -3.049  0.00  0.00    +0.000 C 
ENDBRANCH 477 478
ENDBRANCH 240 477
ENDBRANCH 238 240
ENDBRANCH   1 236
BRANCH   1 481
ATOM    481  CB  TRP A  28      41.571  -5.636  -9.969  0.00  0.00    +0.000 C 
BRANCH 481 482
ATOM    482  CG  TRP A  28      42.104  -4.332  -9.453  0.00  0.00    +0.000 A 
ATOM    483  CD1 TRP A  28      41.975  -3.102 -10.034  0.00  0.00    +0.000 A 
ATOM    484  CD2 TRP A  28      42.853  -4.130  -8.249  0.00  0.00    +0.000 A 
ATOM    485  NE1 TRP A  28      42.597  -2.147  -9.263  0.00  0.00    +0.000 N 
ATOM    486  CE2 TRP A  28      43.142  -2.754  -8.162  0.00  0.00    +0.000 A 
ATOM    487  CE3 TRP A  28      43.304  -4.978  -7.234  0.00  0.00    +0.000 A 
ATOM    488  CZ2 TRP A  28      43.861  -2.211  -7.102  0.00  0.00    +0.000 A 
ATOM    489  CZ3 TRP A  28      44.018  -4.437  -6.182  0.00  0.00    +0.000 A 
ATOM    490  CH2 TRP A  28      44.291  -3.064  -6.123  0.00  0.00    +0.000 A 
ATOM    491  HE1 TRP A  28      42.642  -1.187  -9.466  0.00  0.00    +0.000 HD
ENDBRANCH 481 482
ENDBRANCH   1 481
TORSDOF 203
