REMARK  Name = /Users/acegid/Desktop/Smoking_Research/Docking/Docking_All_PDB/All_PDB/2KGI_H.pdb
REMARK  268 active torsions:
REMARK  status: ('A' for Active; 'I' for Inactive)
REMARK    1  A    between atoms: N_1  and  CA_5
REMARK    2  A    between atoms: CA_5  and  C_6
REMARK    3  A    between atoms: CA_5  and  CB_8
REMARK    4  A    between atoms: CB_8  and  OG_9
REMARK    5  A    between atoms: N_14  and  CA_15
REMARK    6  A    between atoms: CA_15  and  C_16
REMARK    7  A    between atoms: CA_15  and  CB_18
REMARK    8  A    between atoms: CB_18  and  CG1_19
REMARK    9  A    between atoms: CB_18  and  CG2_20
REMARK   10  A    between atoms: N_30  and  CA_31
REMARK   11  A    between atoms: CA_31  and  C_32
REMARK   12  A    between atoms: CA_31  and  CB_34
REMARK   13  A    between atoms: CB_34  and  SG_35
REMARK   14  A    between atoms: N_41  and  CA_42
REMARK   15  A    between atoms: CA_42  and  C_43
REMARK   16  A    between atoms: CA_42  and  CB_45
REMARK   17  A    between atoms: N_51  and  CA_52
REMARK   18  A    between atoms: CA_52  and  C_53
REMARK   19  A    between atoms: CA_52  and  CB_55
REMARK   20  A    between atoms: N_61  and  CA_62
REMARK   21  A    between atoms: CA_62  and  C_63
REMARK   22  A    between atoms: CA_62  and  CB_65
REMARK   23  A    between atoms: CB_65  and  CG_66
REMARK   24  A    between atoms: CG_66  and  CD_67
REMARK   25  A    between atoms: N_78  and  CA_79
REMARK   26  A    between atoms: CA_79  and  C_80
REMARK   27  A    between atoms: CA_79  and  CB_82
REMARK   28  A    between atoms: CB_82  and  CG_83
REMARK   29  A    between atoms: N_92  and  CA_93
REMARK   30  A    between atoms: CA_93  and  C_94
REMARK   31  A    between atoms: CA_93  and  CB_96
REMARK   32  A    between atoms: CB_96  and  SG_97
REMARK   33  A    between atoms: N_103  and  CA_104
REMARK   34  A    between atoms: CA_104  and  C_105
REMARK   35  A    between atoms: CA_104  and  CB_107
REMARK   36  A    between atoms: CB_107  and  CG_108
REMARK   37  A    between atoms: CG_108  and  CD_109
REMARK   38  A    between atoms: N_120  and  CA_121
REMARK   39  A    between atoms: CA_121  and  C_122
REMARK   40  A    between atoms: CA_121  and  CB_124
REMARK   41  A    between atoms: CB_124  and  CG_125
REMARK   42  A    between atoms: CG_125  and  CD_126
REMARK   43  A    between atoms: CD_126  and  NE_127
REMARK   44  A    between atoms: CA_145  and  C_146
REMARK   45  A    between atoms: N_158  and  CA_159
REMARK   46  A    between atoms: CA_159  and  C_160
REMARK   47  A    between atoms: CA_159  and  CB_162
REMARK   48  A    between atoms: CB_162  and  SG_163
REMARK   49  A    between atoms: N_169  and  CA_170
REMARK   50  A    between atoms: CA_170  and  C_171
REMARK   51  A    between atoms: CA_170  and  CB_173
REMARK   52  A    between atoms: CB_173  and  CG_174
REMARK   53  A    between atoms: CG_174  and  CD_175
REMARK   54  A    between atoms: CD_175  and  CE_176
REMARK   55  A    between atoms: CE_176  and  NZ_177
REMARK   56  A    between atoms: N_191  and  CA_192
REMARK   57  A    between atoms: CA_192  and  C_193
REMARK   58  A    between atoms: CA_192  and  CB_195
REMARK   59  A    between atoms: CB_195  and  CG_196
REMARK   60  A    between atoms: N_203  and  CA_204
REMARK   61  A    between atoms: CA_204  and  C_205
REMARK   62  A    between atoms: CA_204  and  CB_207
REMARK   63  A    between atoms: CB_207  and  CG_208
REMARK   64  A    between atoms: CG_208  and  CD_209
REMARK   65  A    between atoms: CD_209  and  CE_210
REMARK   66  A    between atoms: CE_210  and  NZ_211
REMARK   67  A    between atoms: N_225  and  CA_226
REMARK   68  A    between atoms: CA_226  and  C_227
REMARK   69  A    between atoms: CA_226  and  CB_229
REMARK   70  A    between atoms: CB_229  and  CG1_230
REMARK   71  A    between atoms: CB_229  and  CG2_231
REMARK   72  A    between atoms: N_241  and  CA_242
REMARK   73  A    between atoms: CA_242  and  C_243
REMARK   74  A    between atoms: CA_242  and  CB_245
REMARK   75  A    between atoms: CB_245  and  CG_246
REMARK   76  A    between atoms: N_253  and  CA_254
REMARK   77  A    between atoms: CA_254  and  C_255
REMARK   78  A    between atoms: CA_254  and  CB_257
REMARK   79  A    between atoms: CB_257  and  CG_258
REMARK   80  A    between atoms: N_277  and  CA_278
REMARK   81  A    between atoms: CA_278  and  C_279
REMARK   82  A    between atoms: CA_278  and  CB_281
REMARK   83  A    between atoms: CB_281  and  CG1_282
REMARK   84  A    between atoms: CB_281  and  CG2_283
REMARK   85  A    between atoms: N_293  and  CA_294
REMARK   86  A    between atoms: CA_294  and  C_295
REMARK   87  A    between atoms: CA_294  and  CB_297
REMARK   88  A    between atoms: CB_297  and  CG_298
REMARK   89  A    between atoms: CG_298  and  CD_299
REMARK   90  A    between atoms: N_310  and  CA_311
REMARK   91  A    between atoms: CA_311  and  C_312
REMARK   92  A    between atoms: CA_311  and  CB_314
REMARK   93  A    between atoms: CB_314  and  SG_315
REMARK   94  A    between atoms: N_321  and  CA_322
REMARK   95  A    between atoms: CA_322  and  C_323
REMARK   96  A    between atoms: CA_322  and  CB_325
REMARK   97  A    between atoms: CB_325  and  CG_326
REMARK   98  A    between atoms: N_333  and  CA_334
REMARK   99  A    between atoms: CA_334  and  C_335
REMARK  100  A    between atoms: N_340  and  CA_341
REMARK  101  A    between atoms: CA_341  and  C_342
REMARK  102  A    between atoms: N_347  and  CA_348
REMARK  103  A    between atoms: CA_348  and  C_349
REMARK  104  A    between atoms: CA_348  and  CB_351
REMARK  105  A    between atoms: CB_351  and  SG_352
REMARK  106  A    between atoms: N_358  and  CA_359
REMARK  107  A    between atoms: CA_359  and  C_360
REMARK  108  A    between atoms: CA_359  and  CB_362
REMARK  109  A    between atoms: CB_362  and  CG_363
REMARK  110  A    between atoms: N_370  and  CA_371
REMARK  111  A    between atoms: CA_371  and  C_372
REMARK  112  A    between atoms: CA_371  and  CB_374
REMARK  113  A    between atoms: CB_374  and  CG_375
REMARK  114  A    between atoms: CG_375  and  CD_376
REMARK  115  A    between atoms: N_385  and  CA_386
REMARK  116  A    between atoms: CA_386  and  C_387
REMARK  117  A    between atoms: CA_386  and  CB_389
REMARK  118  A    between atoms: CB_389  and  CG_390
REMARK  119  A    between atoms: N_409  and  CA_410
REMARK  120  A    between atoms: CA_410  and  C_411
REMARK  121  A    between atoms: CA_410  and  CB_413
REMARK  122  A    between atoms: CB_413  and  CG_414
REMARK  123  A    between atoms: N_429  and  CA_430
REMARK  124  A    between atoms: CA_430  and  C_431
REMARK  125  A    between atoms: CA_430  and  CB_433
REMARK  126  A    between atoms: CB_433  and  CG_434
REMARK  127  A    between atoms: N_446  and  CA_447
REMARK  128  A    between atoms: CA_447  and  C_448
REMARK  129  A    between atoms: CA_447  and  CB_450
REMARK  130  A    between atoms: CB_450  and  CG_451
REMARK  131  A    between atoms: CG_451  and  CD_452
REMARK  132  A    between atoms: N_463  and  CA_464
REMARK  133  A    between atoms: CA_464  and  C_465
REMARK  134  A    between atoms: CA_464  and  CB_467
REMARK  135  A    between atoms: CB_467  and  CG1_468
REMARK  136  A    between atoms: CB_467  and  CG2_469
REMARK  137  A    between atoms: N_479  and  CA_480
REMARK  138  A    between atoms: CA_480  and  C_481
REMARK  139  A    between atoms: CA_480  and  CB_483
REMARK  140  A    between atoms: CB_483  and  SG_484
REMARK  141  A    between atoms: N_490  and  CA_491
REMARK  142  A    between atoms: CA_491  and  C_492
REMARK  143  A    between atoms: CA_491  and  CB_494
REMARK  144  A    between atoms: CB_494  and  CG1_495
REMARK  145  A    between atoms: CB_494  and  CG2_496
REMARK  146  A    between atoms: N_506  and  CA_507
REMARK  147  A    between atoms: CA_507  and  C_508
REMARK  148  A    between atoms: N_513  and  CA_514
REMARK  149  A    between atoms: CA_514  and  C_515
REMARK  150  A    between atoms: CA_514  and  CB_517
REMARK  151  A    between atoms: CB_517  and  CG1_518
REMARK  152  A    between atoms: CB_517  and  CG2_519
REMARK  153  A    between atoms: N_529  and  CA_530
REMARK  154  A    between atoms: CA_530  and  C_531
REMARK  155  A    between atoms: CA_530  and  CB_533
REMARK  156  A    between atoms: CB_533  and  OG_534
REMARK  157  A    between atoms: CA_541  and  C_542
REMARK  158  A    between atoms: N_554  and  CA_555
REMARK  159  A    between atoms: CA_555  and  C_556
REMARK  160  A    between atoms: CA_555  and  CB_558
REMARK  161  A    between atoms: CB_558  and  CG_559
REMARK  162  A    between atoms: CG_559  and  CD_560
REMARK  163  A    between atoms: N_569  and  CA_570
REMARK  164  A    between atoms: CA_570  and  C_571
REMARK  165  A    between atoms: CA_570  and  CB_573
REMARK  166  A    between atoms: CB_573  and  CG_574
REMARK  167  A    between atoms: CG_574  and  SD_575
REMARK  168  A    between atoms: SD_575  and  CE_576
REMARK  169  A    between atoms: N_586  and  CA_587
REMARK  170  A    between atoms: CA_587  and  C_588
REMARK  171  A    between atoms: CA_587  and  CB_590
REMARK  172  A    between atoms: N_596  and  CA_597
REMARK  173  A    between atoms: CA_597  and  C_598
REMARK  174  A    between atoms: CA_597  and  CB_600
REMARK  175  A    between atoms: CB_600  and  CG_601
REMARK  176  A    between atoms: CG_601  and  CD_602
REMARK  177  A    between atoms: N_611  and  CA_612
REMARK  178  A    between atoms: CA_612  and  C_613
REMARK  179  A    between atoms: CA_612  and  CB_615
REMARK  180  A    between atoms: CB_615  and  CG_616
REMARK  181  A    between atoms: N_625  and  CA_626
REMARK  182  A    between atoms: CA_626  and  C_627
REMARK  183  A    between atoms: CA_626  and  CB_629
REMARK  184  A    between atoms: CB_629  and  CG_630
REMARK  185  A    between atoms: CG_630  and  CD_631
REMARK  186  A    between atoms: N_640  and  CA_641
REMARK  187  A    between atoms: CA_641  and  C_642
REMARK  188  A    between atoms: CA_641  and  CB_644
REMARK  189  A    between atoms: CB_644  and  CG_645
REMARK  190  A    between atoms: N_652  and  CA_653
REMARK  191  A    between atoms: CA_653  and  C_654
REMARK  192  A    between atoms: CA_653  and  CB_656
REMARK  193  A    between atoms: CB_656  and  CG_657
REMARK  194  A    between atoms: CZ_662  and  OH_663
REMARK  195  A    between atoms: N_673  and  CA_674
REMARK  196  A    between atoms: CA_674  and  C_675
REMARK  197  A    between atoms: CA_674  and  CB_677
REMARK  198  A    between atoms: CB_677  and  CG1_678
REMARK  199  A    between atoms: CB_677  and  CG2_679
REMARK  200  A    between atoms: CG1_678  and  CD1_680
REMARK  201  A    between atoms: N_692  and  CA_693
REMARK  202  A    between atoms: CA_693  and  C_694
REMARK  203  A    between atoms: CA_693  and  CB_696
REMARK  204  A    between atoms: CB_696  and  SG_697
REMARK  205  A    between atoms: N_703  and  CA_704
REMARK  206  A    between atoms: CA_704  and  C_705
REMARK  207  A    between atoms: CA_704  and  CB_707
REMARK  208  A    between atoms: CB_707  and  CG1_708
REMARK  209  A    between atoms: CB_707  and  CG2_709
REMARK  210  A    between atoms: CG1_708  and  CD1_710
REMARK  211  A    between atoms: N_722  and  CA_723
REMARK  212  A    between atoms: CA_723  and  C_724
REMARK  213  A    between atoms: CA_723  and  CB_726
REMARK  214  A    between atoms: CB_726  and  CG_727
REMARK  215  A    between atoms: N_736  and  CA_737
REMARK  216  A    between atoms: CA_737  and  C_738
REMARK  217  A    between atoms: CA_737  and  CB_740
REMARK  218  A    between atoms: CB_740  and  SG_741
REMARK  219  A    between atoms: N_747  and  CA_748
REMARK  220  A    between atoms: CA_748  and  C_749
REMARK  221  A    between atoms: CA_748  and  CB_750
REMARK  222  A    between atoms: N_758  and  CA_762
REMARK  223  A    between atoms: CA_762  and  C_763
REMARK  224  A    between atoms: CA_762  and  CB_765
REMARK  225  A    between atoms: N_770  and  CA_771
REMARK  226  A    between atoms: CA_771  and  C_772
REMARK  227  A    between atoms: CA_771  and  CB_774
REMARK  228  A    between atoms: CB_774  and  CG_775
REMARK  229  A    between atoms: CG_775  and  CD_776
REMARK  230  A    between atoms: CD_776  and  NE_777
REMARK  231  A    between atoms: N_794  and  CA_795
REMARK  232  A    between atoms: CA_795  and  C_796
REMARK  233  A    between atoms: CA_795  and  CB_798
REMARK  234  A    between atoms: CB_798  and  OG1_799
REMARK  235  A    between atoms: CB_798  and  CG2_800
REMARK  236  A    between atoms: N_808  and  CA_810
REMARK  237  A    between atoms: CA_810  and  CB_812
REMARK  238  A    between atoms: CA_810  and  C_828
REMARK  239  A    between atoms: CB_812  and  CG_815
REMARK  240  A    between atoms: CG_815  and  CD_818
REMARK  241  A    between atoms: CD_818  and  CE_821
REMARK  242  A    between atoms: CE_821  and  NZ_824
REMARK  243  A    between atoms: N_830  and  CA_831
REMARK  244  A    between atoms: CA_831  and  C_832
REMARK  245  A    between atoms: CA_831  and  CB_834
REMARK  246  A    between atoms: CB_834  and  CG_835
REMARK  247  A    between atoms: CG_835  and  CD_836
REMARK  248  A    between atoms: N_847  and  CA_848
REMARK  249  A    between atoms: CA_848  and  C_849
REMARK  250  A    between atoms: CA_848  and  CB_851
REMARK  251  A    between atoms: CB_851  and  OG1_852
REMARK  252  A    between atoms: CB_851  and  CG2_853
REMARK  253  A    between atoms: N_861  and  CA_862
REMARK  254  A    between atoms: CA_862  and  C_863
REMARK  255  A    between atoms: CA_862  and  CB_865
REMARK  256  A    between atoms: N_871  and  CA_872
REMARK  257  A    between atoms: CA_872  and  C_873
REMARK  258  A    between atoms: CA_872  and  CB_875
REMARK  259  A    between atoms: CB_875  and  CG_876
REMARK  260  A    between atoms: CG_876  and  CD_877
REMARK  261  A    between atoms: CD_877  and  NE_878
REMARK  262  A    between atoms: N_895  and  CA_896
REMARK  263  A    between atoms: CA_896  and  C_897
REMARK  264  A    between atoms: CA_896  and  CB_898
REMARK  265  A    between atoms: CB_898  and  CG_899
REMARK  266  A    between atoms: CG_899  and  CD_900
REMARK  267  A    between atoms: CD_900  and  CE_901
REMARK  268  A    between atoms: CE_901  and  NZ_902
REMARK                            x       y       z     vdW  Elec       q    Type
REMARK                         _______ _______ _______ _____ _____    ______ ____
ROOT
ATOM      1  C   ASP A  26       3.918  -0.093  -8.996  0.00  0.00    +0.000 C 
ATOM      2  O   ASP A  26       2.752  -0.074  -9.406  0.00  0.00    +0.000 OA
ATOM      3  N   GLU A  27       4.324  -0.924  -8.095  0.00  0.00    +0.000 N 
ATOM      4  H   GLU A  27       5.233  -0.787  -7.772  0.00  0.00    +0.000 HD
ENDROOT
BRANCH   3   5
ATOM      5  CA  GLU A  27       3.467  -1.912  -7.568  0.00  0.00    +0.000 C 
BRANCH   5   6
ATOM      6  C   GLU A  27       2.810  -1.390  -6.313  0.00  0.00    +0.000 C 
ATOM      7  O   GLU A  27       3.288  -0.398  -5.703  0.00  0.00    +0.000 OA
ATOM      8  N   TRP A  28       1.733  -2.017  -5.937  0.00  0.00    +0.000 N 
ATOM      9  H   TRP A  28       1.510  -2.850  -6.409  0.00  0.00    +0.000 HD
BRANCH   8  10
ATOM     10  CA  TRP A  28       0.947  -1.561  -4.824  0.00  0.00    +0.000 C 
BRANCH  10  11
ATOM     11  C   TRP A  28       1.268  -2.326  -3.592  0.00  0.00    +0.000 C 
ATOM     12  O   TRP A  28       1.518  -3.521  -3.651  0.00  0.00    +0.000 OA
ATOM     13  N   PHE A  29       1.296  -1.632  -2.495  0.00  0.00    +0.000 N 
ATOM     14  H   PHE A  29       1.224  -0.658  -2.587  0.00  0.00    +0.000 HD
BRANCH  13  15
ATOM     15  CA  PHE A  29       1.512  -2.250  -1.224  0.00  0.00    +0.000 C 
BRANCH  15  16
ATOM     16  C   PHE A  29       0.380  -1.873  -0.309  0.00  0.00    +0.000 C 
ATOM     17  O   PHE A  29      -0.429  -1.041  -0.640  0.00  0.00    +0.000 OA
ATOM     18  N   HIS A  30       0.334  -2.491   0.829  0.00  0.00    +0.000 N 
ATOM     19  H   HIS A  30       1.005  -3.202   0.942  0.00  0.00    +0.000 HD
BRANCH  18  20
ATOM     20  CA  HIS A  30      -0.567  -2.056   1.859  0.00  0.00    +0.000 C 
BRANCH  20  21
ATOM     21  C   HIS A  30       0.316  -1.259   2.770  0.00  0.00    +0.000 C 
ATOM     22  O   HIS A  30       1.466  -1.644   2.967  0.00  0.00    +0.000 OA
ATOM     23  N   GLN A  31      -0.168  -0.182   3.312  0.00  0.00    +0.000 N 
ATOM     24  H   GLN A  31      -1.107   0.051   3.163  0.00  0.00    +0.000 HD
BRANCH  23  25
ATOM     25  CA  GLN A  31       0.685   0.701   4.101  0.00  0.00    +0.000 C 
BRANCH  25  26
ATOM     26  C   GLN A  31       1.371  -0.035   5.268  0.00  0.00    +0.000 C 
ATOM     27  O   GLN A  31       2.535   0.172   5.536  0.00  0.00    +0.000 OA
ATOM     28  N   VAL A  32       0.649  -0.931   5.907  0.00  0.00    +0.000 N 
ATOM     29  H   VAL A  32      -0.265  -1.127   5.627  0.00  0.00    +0.000 HD
BRANCH  28  30
ATOM     30  CA  VAL A  32       1.172  -1.693   7.035  0.00  0.00    +0.000 C 
BRANCH  30  31
ATOM     31  C   VAL A  32       2.225  -2.764   6.628  0.00  0.00    +0.000 C 
ATOM     32  O   VAL A  32       3.155  -3.023   7.373  0.00  0.00    +0.000 OA
ATOM     33  N   CYS A  33       2.092  -3.343   5.425  0.00  0.00    +0.000 N 
ATOM     34  H   CYS A  33       1.490  -2.967   4.754  0.00  0.00    +0.000 HD
BRANCH  33  35
ATOM     35  CA  CYS A  33       2.924  -4.502   5.046  0.00  0.00    +0.000 C 
BRANCH  35  36
ATOM     36  C   CYS A  33       4.296  -4.064   4.492  0.00  0.00    +0.000 C 
ATOM     37  O   CYS A  33       5.236  -4.854   4.446  0.00  0.00    +0.000 OA
ATOM     38  N   VAL A  34       4.405  -2.812   4.062  0.00  0.00    +0.000 N 
ATOM     39  H   VAL A  34       3.679  -2.161   4.063  0.00  0.00    +0.000 HD
BRANCH  38  40
ATOM     40  CA  VAL A  34       5.622  -2.309   3.544  0.00  0.00    +0.000 C 
BRANCH  40  41
ATOM     41  C   VAL A  34       6.213  -1.216   4.519  0.00  0.00    +0.000 C 
ATOM     42  O   VAL A  34       7.146  -0.482   4.192  0.00  0.00    +0.000 OA
ATOM     43  N   GLY A  35       5.689  -1.187   5.739  0.00  0.00    +0.000 N 
ATOM     44  H   GLY A  35       5.061  -1.897   5.994  0.00  0.00    +0.000 HD
BRANCH  43  45
ATOM     45  CA  GLY A  35       6.134  -0.214   6.743  0.00  0.00    +0.000 C 
BRANCH  45  46
ATOM     46  C   GLY A  35       5.934   1.265   6.373  0.00  0.00    +0.000 C 
ATOM     47  O   GLY A  35       6.816   2.092   6.592  0.00  0.00    +0.000 OA
ATOM     48  N   VAL A  36       4.797   1.585   5.831  0.00  0.00    +0.000 N 
ATOM     49  H   VAL A  36       4.132   0.886   5.645  0.00  0.00    +0.000 HD
BRANCH  48  50
ATOM     50  CA  VAL A  36       4.440   2.961   5.516  0.00  0.00    +0.000 C 
BRANCH  50  51
ATOM     51  C   VAL A  36       3.634   3.524   6.645  0.00  0.00    +0.000 C 
ATOM     52  O   VAL A  36       2.842   2.811   7.260  0.00  0.00    +0.000 OA
ATOM     53  N   SER A  37       3.820   4.768   6.926  0.00  0.00    +0.000 N 
ATOM     54  H   SER A  37       4.428   5.435   6.551  0.00  0.00    +0.000 HD
BRANCH  53  55
ATOM     55  CA  SER A  37       3.009   5.444   7.849  0.00  0.00    +0.000 C 
BRANCH  55  56
ATOM     56  C   SER A  37       2.160   6.355   6.975  0.00  0.00    +0.000 C 
ATOM     57  O   SER A  37       2.718   6.987   6.052  0.00  0.00    +0.000 OA
ATOM     58  N   PRO A  38       0.826   6.417   7.198  0.00  0.00    +0.000 N 
ATOM     59  CA  PRO A  38      -0.121   7.179   6.346  0.00  0.00    +0.000 C 
ATOM     60  CB  PRO A  38      -1.394   7.284   7.218  0.00  0.00    +0.000 C 
ATOM     61  CG  PRO A  38      -1.041   6.666   8.545  0.00  0.00    +0.000 C 
ATOM     62  CD  PRO A  38       0.118   5.745   8.289  0.00  0.00    +0.000 C 
BRANCH  59  63
ATOM     63  C   PRO A  38       0.385   8.571   5.968  0.00  0.00    +0.000 C 
ATOM     64  O   PRO A  38       0.352   8.967   4.813  0.00  0.00    +0.000 OA
ATOM     65  N   GLU A  39       0.927   9.260   6.946  0.00  0.00    +0.000 N 
ATOM     66  H   GLU A  39       0.995   8.820   7.816  0.00  0.00    +0.000 HD
BRANCH  65  67
ATOM     67  CA  GLU A  39       1.405  10.624   6.779  0.00  0.00    +0.000 C 
BRANCH  67  68
ATOM     68  C   GLU A  39       2.532  10.694   5.749  0.00  0.00    +0.000 C 
ATOM     69  O   GLU A  39       2.583  11.598   4.927  0.00  0.00    +0.000 OA
ATOM     70  N   MET A  40       3.371   9.685   5.754  0.00  0.00    +0.000 N 
ATOM     71  H   MET A  40       3.073   8.931   6.302  0.00  0.00    +0.000 HD
BRANCH  70  72
ATOM     72  CA  MET A  40       4.557   9.672   4.890  0.00  0.00    +0.000 C 
BRANCH  72  73
ATOM     73  C   MET A  40       4.182   9.473   3.433  0.00  0.00    +0.000 C 
ATOM     74  O   MET A  40       4.609  10.227   2.581  0.00  0.00    +0.000 OA
ATOM     75  N   ALA A  41       3.347   8.480   3.168  0.00  0.00    +0.000 N 
ATOM     76  H   ALA A  41       2.996   7.925   3.903  0.00  0.00    +0.000 HD
BRANCH  75  77
ATOM     77  CA  ALA A  41       2.922   8.145   1.802  0.00  0.00    +0.000 C 
ATOM     78  CB  ALA A  41       2.235   6.824   1.790  0.00  0.00    +0.000 C 
BRANCH  77  79
ATOM     79  C   ALA A  41       1.997   9.197   1.192  0.00  0.00    +0.000 C 
ATOM     80  O   ALA A  41       1.920   9.333  -0.022  0.00  0.00    +0.000 OA
ATOM     81  N   GLU A  42       1.266   9.913   2.023  0.00  0.00    +0.000 N 
ATOM     82  H   GLU A  42       1.320   9.810   2.997  0.00  0.00    +0.000 HD
BRANCH  81  83
ATOM     83  CA  GLU A  42       0.369  10.935   1.520  0.00  0.00    +0.000 C 
BRANCH  83  84
ATOM     84  C   GLU A  42       1.124  12.263   1.370  0.00  0.00    +0.000 C 
ATOM     85  O   GLU A  42       0.644  13.202   0.740  0.00  0.00    +0.000 OA
ATOM     86  N   ASN A  43       2.291  12.339   1.998  0.00  0.00    +0.000 N 
ATOM     87  H   ASN A  43       2.497  11.555   2.555  0.00  0.00    +0.000 HD
BRANCH  86  88
ATOM     88  CA  ASN A  43       3.136  13.532   1.904  0.00  0.00    +0.000 C 
BRANCH  88  89
ATOM     89  C   ASN A  43       4.227  13.464   0.855  0.00  0.00    +0.000 C 
ATOM     90  O   ASN A  43       4.350  14.361   0.032  0.00  0.00    +0.000 OA
ATOM     91  N   GLU A  44       5.001  12.423   0.867  0.00  0.00    +0.000 N 
ATOM     92  H   GLU A  44       4.761  11.655   1.431  0.00  0.00    +0.000 HD
BRANCH  91  93
ATOM     93  CA  GLU A  44       6.113  12.331  -0.037  0.00  0.00    +0.000 C 
BRANCH  93  94
ATOM     94  C   GLU A  44       5.955  11.160  -0.928  0.00  0.00    +0.000 C 
ATOM     95  O   GLU A  44       5.156  10.261  -0.654  0.00  0.00    +0.000 OA
ATOM     96  N   ASP A  45       6.709  11.185  -1.995  0.00  0.00    +0.000 N 
ATOM     97  H   ASP A  45       7.276  11.968  -2.169  0.00  0.00    +0.000 HD
BRANCH  96  98
ATOM     98  CA  ASP A  45       6.747  10.114  -2.968  0.00  0.00    +0.000 C 
BRANCH  98  99
ATOM     99  C   ASP A  45       7.202   8.879  -2.241  0.00  0.00    +0.000 C 
ATOM    100  O   ASP A  45       8.183   8.939  -1.468  0.00  0.00    +0.000 OA
ATOM    101  N   TYR A  46       6.560   7.772  -2.452  0.00  0.00    +0.000 N 
ATOM    102  H   TYR A  46       5.896   7.725  -3.176  0.00  0.00    +0.000 HD
BRANCH 101 103
ATOM    103  CA  TYR A  46       6.911   6.639  -1.687  0.00  0.00    +0.000 C 
BRANCH 103 104
ATOM    104  C   TYR A  46       7.695   5.618  -2.453  0.00  0.00    +0.000 C 
ATOM    105  O   TYR A  46       7.265   5.067  -3.447  0.00  0.00    +0.000 OA
ATOM    106  N   ILE A  47       8.861   5.396  -1.961  0.00  0.00    +0.000 N 
ATOM    107  H   ILE A  47       8.894   5.905  -1.125  0.00  0.00    +0.000 HD
BRANCH 106 108
ATOM    108  CA  ILE A  47       9.816   4.551  -2.563  0.00  0.00    +0.000 C 
BRANCH 108 109
ATOM    109  C   ILE A  47      10.197   3.413  -1.653  0.00  0.00    +0.000 C 
ATOM    110  O   ILE A  47      10.829   3.611  -0.617  0.00  0.00    +0.000 OA
ATOM    111  N   CYS A  48       9.741   2.216  -2.028  0.00  0.00    +0.000 N 
ATOM    112  H   CYS A  48       9.214   2.164  -2.851  0.00  0.00    +0.000 HD
BRANCH 111 113
ATOM    113  CA  CYS A  48       9.959   1.015  -1.249  0.00  0.00    +0.000 C 
BRANCH 113 114
ATOM    114  C   CYS A  48      11.457   0.718  -1.177  0.00  0.00    +0.000 C 
ATOM    115  O   CYS A  48      12.226   1.193  -2.018  0.00  0.00    +0.000 OA
ATOM    116  N   ILE A  49      11.860  -0.116  -0.234  0.00  0.00    +0.000 N 
ATOM    117  H   ILE A  49      11.224  -0.595   0.336  0.00  0.00    +0.000 HD
BRANCH 116 118
ATOM    118  CA  ILE A  49      13.264  -0.396   0.004  0.00  0.00    +0.000 C 
BRANCH 118 119
ATOM    119  C   ILE A  49      13.922  -1.111  -1.137  0.00  0.00    +0.000 C 
ATOM    120  O   ILE A  49      15.135  -1.079  -1.295  0.00  0.00    +0.000 OA
ATOM    121  N   ASN A  50      13.097  -1.721  -1.934  0.00  0.00    +0.000 N 
ATOM    122  H   ASN A  50      12.161  -1.599  -1.659  0.00  0.00    +0.000 HD
BRANCH 121 123
ATOM    123  CA  ASN A  50      13.532  -2.490  -3.106  0.00  0.00    +0.000 C 
BRANCH 123 124
ATOM    124  C   ASN A  50      13.980  -1.542  -4.214  0.00  0.00    +0.000 C 
ATOM    125  O   ASN A  50      14.885  -1.849  -4.982  0.00  0.00    +0.000 OA
ATOM    126  N   CYS A  51      13.349  -0.368  -4.270  0.00  0.00    +0.000 N 
ATOM    127  H   CYS A  51      12.646  -0.189  -3.608  0.00  0.00    +0.000 HD
BRANCH 126 128
ATOM    128  CA  CYS A  51      13.684   0.651  -5.264  0.00  0.00    +0.000 C 
BRANCH 128 129
ATOM    129  C   CYS A  51      14.679   1.656  -4.668  0.00  0.00    +0.000 C 
ATOM    130  O   CYS A  51      15.259   2.474  -5.369  0.00  0.00    +0.000 OA
ATOM    131  N   ALA A  52      14.876   1.557  -3.374  0.00  0.00    +0.000 N 
ATOM    132  H   ALA A  52      14.381   0.829  -2.938  0.00  0.00    +0.000 HD
BRANCH 131 133
ATOM    133  CA  ALA A  52      15.788   2.453  -2.658  0.00  0.00    +0.000 C 
ATOM    134  CB  ALA A  52      15.380   2.561  -1.202  0.00  0.00    +0.000 C 
BRANCH 133 135
ATOM    135  C   ALA A  52      17.235   1.988  -2.770  0.00  0.00    +0.000 C 
ATOM    136  O   ALA A  52      18.287   2.165  -2.114  0.00  0.00    +0.000 OA
ATOM    137  OXT ALA A  52      17.166   1.326  -3.803  0.00  0.00    +0.000 OA
ENDBRANCH 133 135
ENDBRANCH 131 133
ENDBRANCH 128 129
BRANCH 128 138
ATOM    138  CB  CYS A  51      12.410   1.374  -5.759  0.00  0.00    +0.000 C 
BRANCH 138 139
ATOM    139  SG  CYS A  51      11.238   0.319  -6.615  0.00  0.00    +0.000 S 
ATOM    140  HG  CYS A  51      11.556  -0.814  -6.749  0.00  0.00    +0.000 HD
ENDBRANCH 138 139
ENDBRANCH 128 138
ENDBRANCH 126 128
ENDBRANCH 123 124
BRANCH 123 141
ATOM    141  CB  ASN A  50      12.394  -3.402  -3.608  0.00  0.00    +0.000 C 
BRANCH 141 142
ATOM    142  CG  ASN A  50      11.940  -4.421  -2.567  0.00  0.00    +0.000 C 
ATOM    143  OD1 ASN A  50      11.071  -4.132  -1.742  0.00  0.00    +0.000 OA
ATOM    144  ND2 ASN A  50      12.491  -5.610  -2.607  0.00  0.00    +0.000 N 
ATOM    145 HD21 ASN A  50      13.166  -5.802  -3.293  0.00  0.00    +0.000 HD
ATOM    146 HD22 ASN A  50      12.200  -6.279  -1.955  0.00  0.00    +0.000 HD
ENDBRANCH 141 142
ENDBRANCH 123 141
ENDBRANCH 121 123
ENDBRANCH 118 119
BRANCH 118 147
ATOM    147  CB  ILE A  49      13.442  -1.122   1.325  0.00  0.00    +0.000 C 
ATOM    148  CG2 ILE A  49      12.851  -0.266   2.398  0.00  0.00    +0.000 C 
BRANCH 147 149
ATOM    149  CG1 ILE A  49      12.783  -2.477   1.379  0.00  0.00    +0.000 C 
ATOM    150  CD1 ILE A  49      13.520  -3.627   0.694  0.00  0.00    +0.000 C 
ENDBRANCH 147 149
ENDBRANCH 118 147
ENDBRANCH 116 118
ENDBRANCH 113 114
BRANCH 113 151
ATOM    151  CB  CYS A  48       9.209  -0.193  -1.868  0.00  0.00    +0.000 C 
BRANCH 151 152
ATOM    152  SG  CYS A  48      10.015  -0.976  -3.317  0.00  0.00    +0.000 S 
ATOM    153  HG  CYS A  48       9.804  -1.488  -4.357  0.00  0.00    +0.000 HD
ENDBRANCH 151 152
ENDBRANCH 113 151
ENDBRANCH 111 113
ENDBRANCH 108 109
BRANCH 108 154
ATOM    154  CB  ILE A  47      10.983   5.399  -3.021  0.00  0.00    +0.000 C 
ATOM    155  CG2 ILE A  47      12.130   4.539  -3.574  0.00  0.00    +0.000 C 
BRANCH 154 156
ATOM    156  CG1 ILE A  47      10.403   6.327  -4.084  0.00  0.00    +0.000 C 
ATOM    157  CD1 ILE A  47      11.268   7.397  -4.543  0.00  0.00    +0.000 C 
ENDBRANCH 154 156
ENDBRANCH 108 154
ENDBRANCH 106 108
ENDBRANCH 103 104
BRANCH 103 158
ATOM    158  CB  TYR A  46       5.791   6.063  -0.824  0.00  0.00    +0.000 C 
BRANCH 158 159
ATOM    159  CG  TYR A  46       6.300   4.896  -0.009  0.00  0.00    +0.000 A 
ATOM    160  CD1 TYR A  46       7.369   5.030   0.885  0.00  0.00    +0.000 A 
ATOM    161  CD2 TYR A  46       5.780   3.677  -0.196  0.00  0.00    +0.000 A 
ATOM    162  CE1 TYR A  46       7.868   3.931   1.566  0.00  0.00    +0.000 A 
ATOM    163  CE2 TYR A  46       6.261   2.565   0.455  0.00  0.00    +0.000 A 
ATOM    164  CZ  TYR A  46       7.308   2.697   1.341  0.00  0.00    +0.000 A 
BRANCH 164 165
ATOM    165  OH  TYR A  46       7.797   1.584   1.985  0.00  0.00    +0.000 OA
ATOM    166  HH  TYR A  46       7.867   1.726   2.935  0.00  0.00    +0.000 HD
ENDBRANCH 164 165
ENDBRANCH 158 159
ENDBRANCH 103 158
ENDBRANCH 101 103
ENDBRANCH  98  99
BRANCH  98 167
ATOM    167  CB  ASP A  45       7.776  10.442  -4.056  0.00  0.00    +0.000 C 
BRANCH 167 168
ATOM    168  CG  ASP A  45       7.627  11.840  -4.606  0.00  0.00    +0.000 C 
ATOM    169  OD1 ASP A  45       8.220  12.782  -4.002  0.00  0.00    +0.000 OA
ATOM    170  OD2 ASP A  45       6.939  12.031  -5.613  0.00  0.00    +0.000 OA
ENDBRANCH 167 168
ENDBRANCH  98 167
ENDBRANCH  96  98
ENDBRANCH  93  94
BRANCH  93 171
ATOM    171  CB  GLU A  44       7.457  12.236   0.689  0.00  0.00    +0.000 C 
BRANCH 171 172
ATOM    172  CG  GLU A  44       7.857  13.469   1.471  0.00  0.00    +0.000 C 
BRANCH 172 173
ATOM    173  CD  GLU A  44       8.049  14.700   0.608  0.00  0.00    +0.000 C 
ATOM    174  OE1 GLU A  44       8.995  14.723  -0.222  0.00  0.00    +0.000 OA
ATOM    175  OE2 GLU A  44       7.284  15.676   0.772  0.00  0.00    +0.000 OA
ENDBRANCH 172 173
ENDBRANCH 171 172
ENDBRANCH  93 171
ENDBRANCH  91  93
ENDBRANCH  88  89
BRANCH  88 176
ATOM    176  CB  ASN A  43       3.737  13.922   3.238  0.00  0.00    +0.000 C 
BRANCH 176 177
ATOM    177  CG  ASN A  43       2.872  14.866   4.041  0.00  0.00    +0.000 C 
ATOM    178  OD1 ASN A  43       2.985  16.088   3.905  0.00  0.00    +0.000 OA
ATOM    179  ND2 ASN A  43       2.029  14.329   4.878  0.00  0.00    +0.000 N 
ATOM    180 HD21 ASN A  43       2.021  13.347   4.933  0.00  0.00    +0.000 HD
ATOM    181 HD22 ASN A  43       1.455  14.919   5.412  0.00  0.00    +0.000 HD
ENDBRANCH 176 177
ENDBRANCH  88 176
ENDBRANCH  86  88
ENDBRANCH  83  84
BRANCH  83 182
ATOM    182  CB  GLU A  42      -0.827  11.096   2.459  0.00  0.00    +0.000 C 
BRANCH 182 183
ATOM    183  CG  GLU A  42      -1.707   9.857   2.593  0.00  0.00    +0.000 C 
BRANCH 183 184
ATOM    184  CD  GLU A  42      -2.827  10.062   3.594  0.00  0.00    +0.000 C 
ATOM    185  OE1 GLU A  42      -2.576   9.981   4.816  0.00  0.00    +0.000 OA
ATOM    186  OE2 GLU A  42      -3.959  10.334   3.180  0.00  0.00    +0.000 OA
ENDBRANCH 183 184
ENDBRANCH 182 183
ENDBRANCH  83 182
ENDBRANCH  81  83
ENDBRANCH  77  79
ENDBRANCH  75  77
ENDBRANCH  72  73
BRANCH  72 187
ATOM    187  CB  MET A  40       5.572   8.598   5.320  0.00  0.00    +0.000 C 
BRANCH 187 188
ATOM    188  CG  MET A  40       6.218   8.848   6.672  0.00  0.00    +0.000 C 
BRANCH 188 189
ATOM    189  SD  MET A  40       7.107  10.419   6.731  0.00  0.00    +0.000 S 
ATOM    190  CE  MET A  40       8.272  10.237   5.368  0.00  0.00    +0.000 C 
ENDBRANCH 188 189
ENDBRANCH 187 188
ENDBRANCH  72 187
ENDBRANCH  70  72
ENDBRANCH  67  68
BRANCH  67 191
ATOM    191  CB  GLU A  39       1.922  11.129   8.118  0.00  0.00    +0.000 C 
BRANCH 191 192
ATOM    192  CG  GLU A  39       0.909  10.976   9.220  0.00  0.00    +0.000 C 
BRANCH 192 193
ATOM    193  CD  GLU A  39       1.391  11.516  10.546  0.00  0.00    +0.000 C 
ATOM    194  OE1 GLU A  39       2.080  10.779  11.273  0.00  0.00    +0.000 OA
ATOM    195  OE2 GLU A  39       1.072  12.666  10.887  0.00  0.00    +0.000 OA
ENDBRANCH 192 193
ENDBRANCH 191 192
ENDBRANCH  67 191
ENDBRANCH  65  67
ENDBRANCH  59  63
ENDBRANCH  55  56
BRANCH  55 196
ATOM    196  CB  SER A  37       3.892   6.262   8.791  0.00  0.00    +0.000 C 
BRANCH 196 197
ATOM    197  OG  SER A  37       4.839   5.428   9.437  0.00  0.00    +0.000 OA
ATOM    198  HG  SER A  37       4.384   4.899  10.105  0.00  0.00    +0.000 HD
ENDBRANCH 196 197
ENDBRANCH  55 196
ENDBRANCH  53  55
ENDBRANCH  50  51
BRANCH  50 199
ATOM    199  CB  VAL A  36       3.579   3.068   4.201  0.00  0.00    +0.000 C 
ATOM    200  CG1 VAL A  36       3.007   4.422   3.968  0.00  0.00    +0.000 C 
ATOM    201  CG2 VAL A  36       4.359   2.775   3.018  0.00  0.00    +0.000 C 
ENDBRANCH  50 199
ENDBRANCH  48  50
ENDBRANCH  45  46
ENDBRANCH  43  45
ENDBRANCH  40  41
BRANCH  40 202
ATOM    202  CB  VAL A  34       5.382  -1.737   2.130  0.00  0.00    +0.000 C 
ATOM    203  CG1 VAL A  34       4.541  -0.488   2.156  0.00  0.00    +0.000 C 
ATOM    204  CG2 VAL A  34       6.664  -1.521   1.442  0.00  0.00    +0.000 C 
ENDBRANCH  40 202
ENDBRANCH  38  40
ENDBRANCH  35  36
BRANCH  35 205
ATOM    205  CB  CYS A  33       2.173  -5.402   4.035  0.00  0.00    +0.000 C 
BRANCH 205 206
ATOM    206  SG  CYS A  33       1.735  -4.546   2.579  0.00  0.00    +0.000 S 
ATOM    207  HG  CYS A  33       2.610  -4.518   1.791  0.00  0.00    +0.000 HD
ENDBRANCH 205 206
ENDBRANCH  35 205
ENDBRANCH  33  35
ENDBRANCH  30  31
BRANCH  30 208
ATOM    208  CB  VAL A  32       0.034  -2.364   7.850  0.00  0.00    +0.000 C 
ATOM    209  CG1 VAL A  32      -0.903  -1.315   8.427  0.00  0.00    +0.000 C 
ATOM    210  CG2 VAL A  32      -0.739  -3.355   6.991  0.00  0.00    +0.000 C 
ENDBRANCH  30 208
ENDBRANCH  28  30
ENDBRANCH  25  26
BRANCH  25 211
ATOM    211  CB  GLN A  31      -0.091   1.937   4.570  0.00  0.00    +0.000 C 
BRANCH 211 212
ATOM    212  CG  GLN A  31      -0.876   2.560   3.435  0.00  0.00    +0.000 C 
BRANCH 212 213
ATOM    213  CD  GLN A  31      -0.845   4.072   3.415  0.00  0.00    +0.000 C 
ATOM    214  OE1 GLN A  31      -0.723   4.725   4.440  0.00  0.00    +0.000 OA
ATOM    215  NE2 GLN A  31      -0.967   4.633   2.227  0.00  0.00    +0.000 N 
ATOM    216 HE21 GLN A  31      -1.077   4.047   1.449  0.00  0.00    +0.000 HD
ATOM    217 HE22 GLN A  31      -0.931   5.606   2.162  0.00  0.00    +0.000 HD
ENDBRANCH 212 213
ENDBRANCH 211 212
ENDBRANCH  25 211
ENDBRANCH  23  25
ENDBRANCH  20  21
BRANCH  20 218
ATOM    218  CB  HIS A  30      -1.169  -3.223   2.634  0.00  0.00    +0.000 C 
BRANCH 218 219
ATOM    219  CG  HIS A  30      -2.000  -4.189   1.842  0.00  0.00    +0.000 A 
ATOM    220  ND1 HIS A  30      -1.471  -5.337   1.273  0.00  0.00    +0.000 NA
ATOM    221  CD2 HIS A  30      -3.343  -4.255   1.639  0.00  0.00    +0.000 A 
ATOM    222  CE1 HIS A  30      -2.456  -6.082   0.770  0.00  0.00    +0.000 A 
ATOM    223  NE2 HIS A  30      -3.602  -5.446   0.968  0.00  0.00    +0.000 N 
ATOM    224  HE2 HIS A  30      -4.372  -5.568   0.370  0.00  0.00    +0.000 HD
ENDBRANCH 218 219
ENDBRANCH  20 218
ENDBRANCH  18  20
ENDBRANCH  15  16
BRANCH  15 225
ATOM    225  CB  PHE A  29       2.771  -1.719  -0.577  0.00  0.00    +0.000 C 
BRANCH 225 226
ATOM    226  CG  PHE A  29       3.932  -1.540  -1.475  0.00  0.00    +0.000 A 
ATOM    227  CD1 PHE A  29       4.611  -2.626  -2.021  0.00  0.00    +0.000 A 
ATOM    228  CD2 PHE A  29       4.361  -0.263  -1.761  0.00  0.00    +0.000 A 
ATOM    229  CE1 PHE A  29       5.693  -2.423  -2.842  0.00  0.00    +0.000 A 
ATOM    230  CE2 PHE A  29       5.430  -0.063  -2.569  0.00  0.00    +0.000 A 
ATOM    231  CZ  PHE A  29       6.108  -1.136  -3.115  0.00  0.00    +0.000 A 
ENDBRANCH 225 226
ENDBRANCH  15 225
ENDBRANCH  13  15
ENDBRANCH  10  11
BRANCH  10 232
ATOM    232  CB  TRP A  28      -0.553  -1.651  -5.088  0.00  0.00    +0.000 C 
BRANCH 232 233
ATOM    233  CG  TRP A  28      -1.077  -0.704  -6.109  0.00  0.00    +0.000 A 
ATOM    234  CD1 TRP A  28      -1.288  -0.941  -7.431  0.00  0.00    +0.000 A 
ATOM    235  CD2 TRP A  28      -1.486   0.642  -5.874  0.00  0.00    +0.000 A 
ATOM    236  NE1 TRP A  28      -1.796   0.180  -8.034  0.00  0.00    +0.000 N 
ATOM    237  CE2 TRP A  28      -1.914   1.163  -7.100  0.00  0.00    +0.000 A 
ATOM    238  CE3 TRP A  28      -1.515   1.464  -4.744  0.00  0.00    +0.000 A 
ATOM    239  CZ2 TRP A  28      -2.380   2.454  -7.227  0.00  0.00    +0.000 A 
ATOM    240  CZ3 TRP A  28      -1.983   2.751  -4.875  0.00  0.00    +0.000 A 
ATOM    241  CH2 TRP A  28      -2.406   3.235  -6.110  0.00  0.00    +0.000 A 
ATOM    242  HE1 TRP A  28      -2.029   0.268  -8.987  0.00  0.00    +0.000 HD
ENDBRANCH 232 233
ENDBRANCH  10 232
ENDBRANCH   8  10
ENDBRANCH   5   6
BRANCH   5 243
ATOM    243  CB  GLU A  27       4.200  -3.243  -7.379  0.00  0.00    +0.000 C 
BRANCH 243 244
ATOM    244  CG  GLU A  27       4.538  -3.892  -8.716  0.00  0.00    +0.000 C 
BRANCH 244 245
ATOM    245  CD  GLU A  27       5.352  -5.153  -8.612  0.00  0.00    +0.000 C 
ATOM    246  OE1 GLU A  27       4.812  -6.205  -8.221  0.00  0.00    +0.000 OA
ATOM    247  OE2 GLU A  27       6.553  -5.112  -8.953  0.00  0.00    +0.000 OA
ENDBRANCH 244 245
ENDBRANCH 243 244
ENDBRANCH   5 243
ENDBRANCH   3   5
BRANCH   1 248
ATOM    248  CA  ASP A  26       4.933   0.949  -9.458  0.00  0.00    +0.000 C 
BRANCH 248 251
ATOM    249  C   CYS A  25       6.905  -0.654  -9.541  0.00  0.00    +0.000 C 
ATOM    250  O   CYS A  25       6.265  -1.553 -10.068  0.00  0.00    +0.000 OA
ATOM    251  N   ASP A  26       6.383   0.571  -9.269  0.00  0.00    +0.000 N 
ATOM    252  H   ASP A  26       7.010   1.292  -9.072  0.00  0.00    +0.000 HD
BRANCH 249 253
ATOM    253  CA  CYS A  25       8.407  -0.860  -9.222  0.00  0.00    +0.000 C 
BRANCH 253 256
ATOM    254  C   GLY A  24       9.410   1.112 -10.226  0.00  0.00    +0.000 C 
ATOM    255  O   GLY A  24       8.997   0.757 -11.322  0.00  0.00    +0.000 OA
ATOM    256  N   CYS A  25       9.156   0.409  -9.113  0.00  0.00    +0.000 N 
ATOM    257  H   CYS A  25       9.513   0.738  -8.261  0.00  0.00    +0.000 HD
BRANCH 254 258
ATOM    258  CA  GLY A  24      10.258   2.366 -10.113  0.00  0.00    +0.000 C 
BRANCH 258 261
ATOM    259  C   GLY A  23      10.973   3.637  -8.223  0.00  0.00    +0.000 C 
ATOM    260  O   GLY A  23      12.116   3.260  -8.383  0.00  0.00    +0.000 OA
ATOM    261  N   GLY A  24       9.976   3.224  -8.977  0.00  0.00    +0.000 N 
ATOM    262  H   GLY A  24       9.088   3.558  -8.752  0.00  0.00    +0.000 HD
BRANCH 259 263
ATOM    263  CA  GLY A  23      10.637   4.594  -7.098  0.00  0.00    +0.000 C 
BRANCH 263 266
ATOM    264  C   ASP A  22       8.608   5.858  -7.372  0.00  0.00    +0.000 C 
ATOM    265  O   ASP A  22       9.198   6.729  -7.988  0.00  0.00    +0.000 OA
ATOM    266  N   GLY A  23       9.210   4.772  -6.923  0.00  0.00    +0.000 N 
ATOM    267  H   GLY A  23       8.688   4.067  -6.498  0.00  0.00    +0.000 HD
BRANCH 264 268
ATOM    268  CA  ASP A  22       7.115   5.951  -7.118  0.00  0.00    +0.000 C 
BRANCH 268 271
ATOM    269  C   CYS A  21       6.062   3.922  -6.339  0.00  0.00    +0.000 C 
ATOM    270  O   CYS A  21       5.721   3.587  -7.477  0.00  0.00    +0.000 OA
ATOM    271  N   ASP A  22       6.745   5.000  -6.087  0.00  0.00    +0.000 N 
ATOM    272  H   ASP A  22       7.018   5.171  -5.153  0.00  0.00    +0.000 HD
BRANCH 269 273
ATOM    273  CA  CYS A  21       5.754   3.036  -5.139  0.00  0.00    +0.000 C 
BRANCH 273 276
ATOM    274  C   GLN A  20       3.407   3.418  -4.745  0.00  0.00    +0.000 C 
ATOM    275  O   GLN A  20       3.617   4.523  -4.251  0.00  0.00    +0.000 OA
ATOM    276  N   CYS A  21       4.362   2.629  -5.169  0.00  0.00    +0.000 N 
ATOM    277  H   CYS A  21       4.213   1.735  -5.545  0.00  0.00    +0.000 HD
BRANCH 274 278
ATOM    278  CA  GLN A  20       2.008   2.894  -4.847  0.00  0.00    +0.000 C 
BRANCH 278 281
ATOM    279  C   VAL A  19       1.037   2.362  -2.767  0.00  0.00    +0.000 C 
ATOM    280  O   VAL A  19       1.269   1.156  -2.920  0.00  0.00    +0.000 OA
ATOM    281  N   GLN A  20       1.286   3.250  -3.669  0.00  0.00    +0.000 N 
ATOM    282  H   GLN A  20       0.892   4.135  -3.509  0.00  0.00    +0.000 HD
BRANCH 279 283
ATOM    283  CA  VAL A  19       0.406   2.837  -1.481  0.00  0.00    +0.000 C 
BRANCH 283 286
ATOM    284  C   TRP A  18      -1.745   2.066  -0.591  0.00  0.00    +0.000 C 
ATOM    285  O   TRP A  18      -2.184   3.236  -0.457  0.00  0.00    +0.000 OA
ATOM    286  N   VAL A  19      -0.529   1.793  -1.064  0.00  0.00    +0.000 N 
ATOM    287  H   VAL A  19      -0.160   0.896  -1.223  0.00  0.00    +0.000 HD
BRANCH 284 288
ATOM    288  CA  TRP A  18      -2.635   0.867  -0.248  0.00  0.00    +0.000 C 
BRANCH 288 291
ATOM    289  C   ASP A  17      -3.983   0.711   1.805  0.00  0.00    +0.000 C 
ATOM    290  O   ASP A  17      -3.302  -0.233   2.285  0.00  0.00    +0.000 OA
ATOM    291  N   TRP A  18      -3.711   1.293   0.651  0.00  0.00    +0.000 N 
ATOM    292  H   TRP A  18      -4.315   2.043   0.448  0.00  0.00    +0.000 HD
BRANCH 289 293
ATOM    293  CA  ASP A  17      -5.197   1.285   2.532  0.00  0.00    +0.000 C 
BRANCH 293 296
ATOM    294  C   VAL A  16      -7.053  -0.283   2.778  0.00  0.00    +0.000 C 
ATOM    295  O   VAL A  16      -7.450  -0.094   1.622  0.00  0.00    +0.000 OA
ATOM    296  N   ASP A  17      -5.959   0.265   3.264  0.00  0.00    +0.000 N 
ATOM    297  H   ASP A  17      -5.651  -0.009   4.149  0.00  0.00    +0.000 HD
BRANCH 294 298
ATOM    298  CA  VAL A  16      -7.832  -1.201   3.724  0.00  0.00    +0.000 C 
BRANCH 298 301
ATOM    299  C   LYS A  15     -10.123  -0.773   4.392  0.00  0.00    +0.000 C 
ATOM    300  O   LYS A  15      -9.819  -0.569   5.565  0.00  0.00    +0.000 OA
ATOM    301  N   VAL A  16      -9.255  -1.090   3.460  0.00  0.00    +0.000 N 
ATOM    302  H   VAL A  16      -9.605  -1.229   2.553  0.00  0.00    +0.000 HD
BRANCH 299 303
ATOM    303  CA  LYS A  15     -11.562  -0.732   3.948  0.00  0.00    +0.000 C 
BRANCH 303 306
ATOM    304  C   ASP A  14     -13.136  -2.495   4.030  0.00  0.00    +0.000 C 
ATOM    305  O   ASP A  14     -13.249  -2.454   2.844  0.00  0.00    +0.000 OA
ATOM    306  N   LYS A  15     -12.352  -1.693   4.666  0.00  0.00    +0.000 N 
ATOM    307  H   LYS A  15     -12.274  -1.705   5.641  0.00  0.00    +0.000 HD
BRANCH 304 308
ATOM    308  CA  ASP A  14     -13.928  -3.483   4.836  0.00  0.00    +0.000 C 
BRANCH 308 311
ATOM    309  C   LYS A  13     -12.155  -5.224   4.769  0.00  0.00    +0.000 C 
ATOM    310  O   LYS A  13     -11.836  -4.980   3.608  0.00  0.00    +0.000 OA
ATOM    311  N   ASP A  14     -13.082  -4.531   5.450  0.00  0.00    +0.000 N 
ATOM    312  H   ASP A  14     -13.220  -4.672   6.409  0.00  0.00    +0.000 HD
BRANCH 309 313
ATOM    313  CA  LYS A  13     -11.450  -6.338   5.523  0.00  0.00    +0.000 C 
BRANCH 313 316
ATOM    314  C   CYS A  12     -10.684  -7.773   3.707  0.00  0.00    +0.000 C 
ATOM    315  O   CYS A  12     -11.833  -8.125   3.452  0.00  0.00    +0.000 OA
ATOM    316  N   LYS A  13     -10.401  -6.933   4.697  0.00  0.00    +0.000 N 
ATOM    317  H   LYS A  13      -9.470  -6.703   4.860  0.00  0.00    +0.000 HD
BRANCH 314 318
ATOM    318  CA  CYS A  12      -9.495  -8.265   2.828  0.00  0.00    +0.000 C 
BRANCH 318 321
ATOM    319  C   PRO A  11      -7.815  -8.608   4.633  0.00  0.00    +0.000 C 
ATOM    320  O   PRO A  11      -8.584  -9.223   5.371  0.00  0.00    +0.000 OA
ATOM    321  N   CYS A  12      -8.166  -8.105   3.447  0.00  0.00    +0.000 N 
ATOM    322  H   CYS A  12      -7.485  -7.616   2.946  0.00  0.00    +0.000 HD
BRANCH 319 326
ATOM    323  C   ARG A  10      -5.019  -9.990   3.908  0.00  0.00    +0.000 C 
ATOM    324  O   ARG A  10      -5.548 -10.900   4.541  0.00  0.00    +0.000 OA
ATOM    325  N   PRO A  11      -5.359  -8.721   4.088  0.00  0.00    +0.000 N 
ATOM    326  CA  PRO A  11      -6.363  -8.322   5.075  0.00  0.00    +0.000 C 
ATOM    327  CB  PRO A  11      -6.120  -6.816   5.221  0.00  0.00    +0.000 C 
ATOM    328  CG  PRO A  11      -5.539  -6.390   3.905  0.00  0.00    +0.000 C 
ATOM    329  CD  PRO A  11      -4.773  -7.572   3.375  0.00  0.00    +0.000 C 
BRANCH 323 330
ATOM    330  CA  ARG A  10      -3.879 -10.283   2.925  0.00  0.00    +0.000 C 
BRANCH 330 333
ATOM    331  C   GLN A   9      -1.766  -9.576   3.899  0.00  0.00    +0.000 C 
ATOM    332  O   GLN A   9      -1.830  -8.429   3.408  0.00  0.00    +0.000 OA
ATOM    333  N   ARG A  10      -2.684 -10.496   3.702  0.00  0.00    +0.000 N 
ATOM    334  H   ARG A  10      -2.648 -11.382   4.098  0.00  0.00    +0.000 HD
BRANCH 331 335
ATOM    335  CA  GLN A   9      -0.576  -9.990   4.768  0.00  0.00    +0.000 C 
BRANCH 335 338
ATOM    336  C   CYS A   8       1.677  -9.908   3.874  0.00  0.00    +0.000 C 
ATOM    337  O   CYS A   8       1.840 -11.124   3.921  0.00  0.00    +0.000 OA
ATOM    338  N   GLN A   9       0.604  -9.295   4.314  0.00  0.00    +0.000 N 
ATOM    339  H   GLN A   9       0.771  -8.337   4.208  0.00  0.00    +0.000 HD
BRANCH 336 340
ATOM    340  CA  CYS A   8       2.737  -8.969   3.274  0.00  0.00    +0.000 C 
BRANCH 340 343
ATOM    341  C   ASN A   7       4.862  -9.085   4.305  0.00  0.00    +0.000 C 
ATOM    342  O   ASN A   7       4.585  -8.191   5.095  0.00  0.00    +0.000 OA
ATOM    343  N   CYS A   8       4.056  -9.467   3.363  0.00  0.00    +0.000 N 
ATOM    344  H   CYS A   8       4.287 -10.137   2.687  0.00  0.00    +0.000 HD
BRANCH 341 345
ATOM    345  CA  ASN A   7       6.231  -9.690   4.262  0.00  0.00    +0.000 C 
BRANCH 345 348
ATOM    346  C   GLN A   6       7.488  -9.811   2.203  0.00  0.00    +0.000 C 
ATOM    347  O   GLN A   6       7.374 -11.028   2.182  0.00  0.00    +0.000 OA
ATOM    348  N   ASN A   7       7.000  -9.073   3.178  0.00  0.00    +0.000 N 
ATOM    349  H   ASN A   7       7.177  -8.112   3.135  0.00  0.00    +0.000 HD
BRANCH 346 350
ATOM    350  CA  GLN A   6       8.245  -9.083   1.075  0.00  0.00    +0.000 C 
BRANCH 350 353
ATOM    351  C   ALA A   5       6.190  -7.958   0.140  0.00  0.00    +0.000 C 
ATOM    352  O   ALA A   5       5.461  -8.944   0.270  0.00  0.00    +0.000 OA
ATOM    353  N   GLN A   6       7.502  -7.933   0.483  0.00  0.00    +0.000 N 
ATOM    354  H   GLN A   6       8.014  -7.131   0.251  0.00  0.00    +0.000 HD
BRANCH 351 355
ATOM    355  CA  ALA A   5       5.639  -6.645  -0.455  0.00  0.00    +0.000 C 
ATOM    356  CB  ALA A   5       5.183  -5.705   0.656  0.00  0.00    +0.000 C 
BRANCH 355 359
ATOM    357  C   ALA A   4       4.692  -6.633  -2.707  0.00  0.00    +0.000 C 
ATOM    358  O   ALA A   4       5.578  -5.892  -3.131  0.00  0.00    +0.000 OA
ATOM    359  N   ALA A   5       4.528  -6.868  -1.415  0.00  0.00    +0.000 N 
ATOM    360  H   ALA A   5       3.606  -6.783  -1.134  0.00  0.00    +0.000 HD
BRANCH 357 361
ATOM    361  CA  ALA A   4       3.652  -7.270  -3.650  0.00  0.00    +0.000 C 
ATOM    362  CB  ALA A   4       4.135  -7.133  -5.058  0.00  0.00    +0.000 C 
BRANCH 361 365
ATOM    363  C   CYS A   3       1.405  -7.372  -2.916  0.00  0.00    +0.000 C 
ATOM    364  O   CYS A   3       1.661  -8.424  -2.317  0.00  0.00    +0.000 OA
ATOM    365  N   ALA A   4       2.335  -6.688  -3.556  0.00  0.00    +0.000 N 
ATOM    366  H   ALA A   4       1.991  -5.811  -3.829  0.00  0.00    +0.000 HD
BRANCH 363 367
ATOM    367  CA  CYS A   3      -0.021  -6.811  -2.883  0.00  0.00    +0.000 C 
BRANCH 367 370
ATOM    368  C   VAL A   2      -1.690  -8.525  -2.859  0.00  0.00    +0.000 C 
ATOM    369  O   VAL A   2      -1.848  -8.469  -4.078  0.00  0.00    +0.000 OA
ATOM    370  N   CYS A   3      -0.843  -7.783  -2.219  0.00  0.00    +0.000 N 
ATOM    371  H   CYS A   3      -0.725  -7.949  -1.263  0.00  0.00    +0.000 HD
BRANCH 368 372
ATOM    372  CA  VAL A   2      -2.531  -9.468  -2.023  0.00  0.00    +0.000 C 
BRANCH 372 375
ATOM    373  C   SER A   1      -4.886  -8.941  -2.017  0.00  0.00    +0.000 C 
ATOM    374  O   SER A   1      -4.794  -8.310  -0.937  0.00  0.00    +0.000 OA
ATOM    375  N   VAL A   2      -3.853  -9.508  -2.595  0.00  0.00    +0.000 N 
ATOM    376  H   VAL A   2      -3.958  -9.982  -3.450  0.00  0.00    +0.000 HD
BRANCH 373 377
ATOM    377  CA  SER A   1      -6.242  -9.090  -2.748  0.00  0.00    +0.000 C 
BRANCH 377 378
ATOM    378  N   SER A   1      -7.296  -9.545  -1.810  0.00  0.00    +0.000 N 
ATOM    379  H   SER A   1      -6.793  -9.561  -0.731  0.00  0.00    +0.000 HD
ATOM    380  H2  SER A   1      -8.090  -8.659  -1.637  0.00  0.00    +0.000 HD
ATOM    381  H3  SER A   1      -8.056 -10.346  -2.268  0.00  0.00    +0.000 HD
ENDBRANCH 377 378
BRANCH 377 382
ATOM    382  CB  SER A   1      -6.656  -7.758  -3.397  0.00  0.00    +0.000 C 
BRANCH 382 383
ATOM    383  OG  SER A   1      -7.929  -7.867  -4.049  0.00  0.00    +0.000 OA
ATOM    384  HG  SER A   1      -8.146  -8.809  -4.079  0.00  0.00    +0.000 HD
ENDBRANCH 382 383
ENDBRANCH 377 382
ENDBRANCH 373 377
ENDBRANCH 372 375
BRANCH 372 385
ATOM    385  CB  VAL A   2      -1.849 -10.872  -2.037  0.00  0.00    +0.000 C 
ATOM    386  CG1 VAL A   2      -0.500 -10.847  -1.316  0.00  0.00    +0.000 C 
ATOM    387  CG2 VAL A   2      -2.752 -11.929  -1.440  0.00  0.00    +0.000 C 
ENDBRANCH 372 385
ENDBRANCH 368 372
ENDBRANCH 367 370
BRANCH 367 388
ATOM    388  CB  CYS A   3      -0.023  -5.521  -2.121  0.00  0.00    +0.000 C 
BRANCH 388 389
ATOM    389  SG  CYS A   3       1.284  -5.452  -0.917  0.00  0.00    +0.000 S 
ATOM    390  HG  CYS A   3       1.314  -6.085   0.075  0.00  0.00    +0.000 HD
ENDBRANCH 388 389
ENDBRANCH 367 388
ENDBRANCH 363 367
ENDBRANCH 361 365
ENDBRANCH 357 361
ENDBRANCH 355 359
ENDBRANCH 351 355
ENDBRANCH 350 353
BRANCH 350 391
ATOM    391  CB  GLN A   6       9.597  -8.612   1.622  0.00  0.00    +0.000 C 
BRANCH 391 392
ATOM    392  CG  GLN A   6      10.474  -7.890   0.612  0.00  0.00    +0.000 C 
BRANCH 392 393
ATOM    393  CD  GLN A   6      11.791  -7.458   1.212  0.00  0.00    +0.000 C 
ATOM    394  OE1 GLN A   6      12.775  -8.181   1.165  0.00  0.00    +0.000 OA
ATOM    395  NE2 GLN A   6      11.818  -6.296   1.788  0.00  0.00    +0.000 N 
ATOM    396 HE21 GLN A   6      11.008  -5.750   1.804  0.00  0.00    +0.000 HD
ATOM    397 HE22 GLN A   6      12.661  -6.016   2.215  0.00  0.00    +0.000 HD
ENDBRANCH 392 393
ENDBRANCH 391 392
ENDBRANCH 350 391
ENDBRANCH 346 350
ENDBRANCH 345 348
BRANCH 345 398
ATOM    398  CB  ASN A   7       6.932  -9.579   5.637  0.00  0.00    +0.000 C 
BRANCH 398 399
ATOM    399  CG  ASN A   7       6.227 -10.373   6.760  0.00  0.00    +0.000 C 
ATOM    400  OD1 ASN A   7       6.516 -11.559   6.970  0.00  0.00    +0.000 OA
ATOM    401  ND2 ASN A   7       5.335  -9.741   7.490  0.00  0.00    +0.000 N 
ATOM    402 HD21 ASN A   7       5.129  -8.795   7.316  0.00  0.00    +0.000 HD
ATOM    403 HD22 ASN A   7       4.884 -10.230   8.210  0.00  0.00    +0.000 HD
ENDBRANCH 398 399
ENDBRANCH 345 398
ENDBRANCH 341 345
ENDBRANCH 340 343
BRANCH 340 404
ATOM    404  CB  CYS A   8       2.390  -8.556   1.838  0.00  0.00    +0.000 C 
BRANCH 404 405
ATOM    405  SG  CYS A   8       0.668  -8.090   1.628  0.00  0.00    +0.000 S 
ATOM    406  HG  CYS A   8      -0.239  -7.392   1.893  0.00  0.00    +0.000 HD
ENDBRANCH 404 405
ENDBRANCH 340 404
ENDBRANCH 336 340
ENDBRANCH 335 338
BRANCH 335 407
ATOM    407  CB  GLN A   9      -0.873  -9.727   6.245  0.00  0.00    +0.000 C 
BRANCH 407 408
ATOM    408  CG  GLN A   9       0.218 -10.204   7.189  0.00  0.00    +0.000 C 
BRANCH 408 409
ATOM    409  CD  GLN A   9      -0.175 -10.056   8.636  0.00  0.00    +0.000 C 
ATOM    410  OE1 GLN A   9       0.060  -9.037   9.259  0.00  0.00    +0.000 OA
ATOM    411  NE2 GLN A   9      -0.775 -11.081   9.183  0.00  0.00    +0.000 N 
ATOM    412 HE21 GLN A   9      -0.935 -11.874   8.631  0.00  0.00    +0.000 HD
ATOM    413 HE22 GLN A   9      -1.046 -11.023  10.126  0.00  0.00    +0.000 HD
ENDBRANCH 408 409
ENDBRANCH 407 408
ENDBRANCH 335 407
ENDBRANCH 331 335
ENDBRANCH 330 333
BRANCH 330 414
ATOM    414  CB  ARG A  10      -4.197 -11.550   2.116  0.00  0.00    +0.000 C 
BRANCH 414 415
ATOM    415  CG  ARG A  10      -5.341 -11.409   1.130  0.00  0.00    +0.000 C 
BRANCH 415 416
ATOM    416  CD  ARG A  10      -5.569 -12.722   0.384  0.00  0.00    +0.000 C 
BRANCH 416 417
ATOM    417  NE  ARG A  10      -6.518 -12.582  -0.739  0.00  0.00    +0.000 N 
ATOM    418  CZ  ARG A  10      -6.572 -13.417  -1.804  0.00  0.00    +0.000 C 
ATOM    419  NH1 ARG A  10      -5.800 -14.503  -1.838  0.00  0.00    +0.000 N 
ATOM    420  NH2 ARG A  10      -7.410 -13.163  -2.820  0.00  0.00    +0.000 N 
ATOM    421  HE  ARG A  10      -7.111 -11.803  -0.674  0.00  0.00    +0.000 HD
ATOM    422 HH11 ARG A  10      -5.169 -14.732  -1.090  0.00  0.00    +0.000 HD
ATOM    423 HH12 ARG A  10      -5.803 -15.148  -2.606  0.00  0.00    +0.000 HD
ATOM    424 HH21 ARG A  10      -8.025 -12.371  -2.856  0.00  0.00    +0.000 HD
ATOM    425 HH22 ARG A  10      -7.449 -13.778  -3.615  0.00  0.00    +0.000 HD
ENDBRANCH 416 417
ENDBRANCH 415 416
ENDBRANCH 414 415
ENDBRANCH 330 414
ENDBRANCH 323 330
ENDBRANCH 319 326
ENDBRANCH 318 321
BRANCH 318 426
ATOM    426  CB  CYS A  12      -9.711  -9.704   2.351  0.00  0.00    +0.000 C 
BRANCH 426 427
ATOM    427  SG  CYS A  12      -8.537 -10.238   1.082  0.00  0.00    +0.000 S 
ATOM    428  HG  CYS A  12      -8.908  -9.691  -0.070  0.00  0.00    +0.000 HD
ENDBRANCH 426 427
ENDBRANCH 318 426
ENDBRANCH 314 318
ENDBRANCH 313 316
BRANCH 313 429
ATOM    429  CB  LYS A  13     -10.904  -5.827   6.857  0.00  0.00    +0.000 C 
BRANCH 429 430
ATOM    430  CG  LYS A  13     -10.532  -6.917   7.849  0.00  0.00    +0.000 C 
BRANCH 430 431
ATOM    431  CD  LYS A  13     -10.034  -6.308   9.164  0.00  0.00    +0.000 C 
BRANCH 431 432
ATOM    432  CE  LYS A  13      -8.644  -5.705   9.041  0.00  0.00    +0.000 C 
BRANCH 432 433
ATOM    433  NZ  LYS A  13      -7.604  -6.752   8.887  0.00  0.00    +0.000 N 
ATOM    434  HZ1 LYS A  13      -7.544  -7.276   9.786  0.00  0.00    +0.000 HD
ATOM    435  HZ2 LYS A  13      -6.664  -6.338   8.727  0.00  0.00    +0.000 HD
ATOM    436  HZ3 LYS A  13      -7.847  -7.482   8.190  0.00  0.00    +0.000 HD
ENDBRANCH 432 433
ENDBRANCH 431 432
ENDBRANCH 430 431
ENDBRANCH 429 430
ENDBRANCH 313 429
ENDBRANCH 309 313
ENDBRANCH 308 311
BRANCH 308 437
ATOM    437  CB  ASP A  14     -14.753  -2.716   5.880  0.00  0.00    +0.000 C 
BRANCH 437 438
ATOM    438  CG  ASP A  14     -15.818  -3.537   6.565  0.00  0.00    +0.000 C 
ATOM    439  OD1 ASP A  14     -15.515  -4.152   7.603  0.00  0.00    +0.000 OA
ATOM    440  OD2 ASP A  14     -16.980  -3.525   6.105  0.00  0.00    +0.000 OA
ENDBRANCH 437 438
ENDBRANCH 308 437
ENDBRANCH 304 308
ENDBRANCH 303 306
BRANCH 303 441
ATOM    441  CB  LYS A  15     -12.191   0.664   4.054  0.00  0.00    +0.000 C 
BRANCH 441 442
ATOM    442  CG  LYS A  15     -13.499   0.784   3.255  0.00  0.00    +0.000 C 
BRANCH 442 443
ATOM    443  CD  LYS A  15     -14.236   2.086   3.484  0.00  0.00    +0.000 C 
BRANCH 443 444
ATOM    444  CE  LYS A  15     -14.817   2.144   4.882  0.00  0.00    +0.000 C 
BRANCH 444 445
ATOM    445  NZ  LYS A  15     -15.881   1.122   5.099  0.00  0.00    +0.000 N 
ATOM    446  HZ1 LYS A  15     -15.578   0.154   4.871  0.00  0.00    +0.000 HD
ATOM    447  HZ2 LYS A  15     -16.711   1.315   4.500  0.00  0.00    +0.000 HD
ATOM    448  HZ3 LYS A  15     -16.231   1.108   6.078  0.00  0.00    +0.000 HD
ENDBRANCH 444 445
ENDBRANCH 443 444
ENDBRANCH 442 443
ENDBRANCH 441 442
ENDBRANCH 303 441
ENDBRANCH 299 303
ENDBRANCH 298 301
BRANCH 298 449
ATOM    449  CB  VAL A  16      -7.321  -2.682   3.626  0.00  0.00    +0.000 C 
ATOM    450  CG1 VAL A  16      -8.016  -3.560   4.667  0.00  0.00    +0.000 C 
ATOM    451  CG2 VAL A  16      -7.532  -3.257   2.227  0.00  0.00    +0.000 C 
ENDBRANCH 298 449
ENDBRANCH 294 298
ENDBRANCH 293 296
BRANCH 293 452
ATOM    452  CB  ASP A  17      -4.759   2.413   3.480  0.00  0.00    +0.000 C 
BRANCH 452 453
ATOM    453  CG  ASP A  17      -5.931   3.072   4.187  0.00  0.00    +0.000 C 
ATOM    454  OD1 ASP A  17      -6.563   3.978   3.601  0.00  0.00    +0.000 OA
ATOM    455  OD2 ASP A  17      -6.232   2.677   5.336  0.00  0.00    +0.000 OA
ENDBRANCH 452 453
ENDBRANCH 293 452
ENDBRANCH 289 293
ENDBRANCH 288 291
BRANCH 288 456
ATOM    456  CB  TRP A  18      -3.230   0.355  -1.569  0.00  0.00    +0.000 C 
BRANCH 456 457
ATOM    457  CG  TRP A  18      -4.258  -0.730  -1.464  0.00  0.00    +0.000 A 
ATOM    458  CD1 TRP A  18      -5.438  -0.657  -0.834  0.00  0.00    +0.000 A 
ATOM    459  CD2 TRP A  18      -4.233  -2.007  -2.092  0.00  0.00    +0.000 A 
ATOM    460  NE1 TRP A  18      -6.104  -1.838  -0.936  0.00  0.00    +0.000 N 
ATOM    461  CE2 TRP A  18      -5.392  -2.675  -1.728  0.00  0.00    +0.000 A 
ATOM    462  CE3 TRP A  18      -3.333  -2.639  -2.898  0.00  0.00    +0.000 A 
ATOM    463  CZ2 TRP A  18      -5.672  -3.962  -2.150  0.00  0.00    +0.000 A 
ATOM    464  CZ3 TRP A  18      -3.594  -3.904  -3.342  0.00  0.00    +0.000 A 
ATOM    465  CH2 TRP A  18      -4.757  -4.562  -2.965  0.00  0.00    +0.000 A 
ATOM    466  HE1 TRP A  18      -6.980  -2.053  -0.541  0.00  0.00    +0.000 HD
ENDBRANCH 456 457
ENDBRANCH 288 456
ENDBRANCH 284 288
ENDBRANCH 283 286
BRANCH 283 467
ATOM    467  CB  VAL A  19       1.611   2.992  -0.551  0.00  0.00    +0.000 C 
ATOM    468  CG1 VAL A  19       2.270   4.343  -0.686  0.00  0.00    +0.000 C 
ATOM    469  CG2 VAL A  19       1.378   2.572   0.852  0.00  0.00    +0.000 C 
ENDBRANCH 283 467
ENDBRANCH 279 283
ENDBRANCH 278 281
BRANCH 278 470
ATOM    470  CB  GLN A  20       1.331   3.439  -6.073  0.00  0.00    +0.000 C 
BRANCH 470 471
ATOM    471  CG  GLN A  20       1.848   2.814  -7.350  0.00  0.00    +0.000 C 
BRANCH 471 472
ATOM    472  CD  GLN A  20       0.965   3.040  -8.539  0.00  0.00    +0.000 C 
ATOM    473  OE1 GLN A  20       0.258   4.036  -8.630  0.00  0.00    +0.000 OA
ATOM    474  NE2 GLN A  20       1.007   2.115  -9.465  0.00  0.00    +0.000 N 
ATOM    475 HE21 GLN A  20       1.603   1.339  -9.343  0.00  0.00    +0.000 HD
ATOM    476 HE22 GLN A  20       0.447   2.220 -10.261  0.00  0.00    +0.000 HD
ENDBRANCH 471 472
ENDBRANCH 470 471
ENDBRANCH 278 470
ENDBRANCH 274 278
ENDBRANCH 273 276
BRANCH 273 477
ATOM    477  CB  CYS A  21       6.617   1.816  -5.224  0.00  0.00    +0.000 C 
BRANCH 477 478
ATOM    478  SG  CYS A  21       8.387   2.045  -4.897  0.00  0.00    +0.000 S 
ATOM    479  HG  CYS A  21       9.148   1.418  -5.542  0.00  0.00    +0.000 HD
ENDBRANCH 477 478
ENDBRANCH 273 477
ENDBRANCH 269 273
ENDBRANCH 268 271
BRANCH 268 480
ATOM    480  CB  ASP A  22       6.757   7.377  -6.684  0.00  0.00    +0.000 C 
BRANCH 480 481
ATOM    481  CG  ASP A  22       5.290   7.549  -6.371  0.00  0.00    +0.000 C 
ATOM    482  OD1 ASP A  22       4.451   7.614  -7.328  0.00  0.00    +0.000 OA
ATOM    483  OD2 ASP A  22       4.954   7.626  -5.192  0.00  0.00    +0.000 OA
ENDBRANCH 480 481
ENDBRANCH 268 480
ENDBRANCH 264 268
ENDBRANCH 263 266
ENDBRANCH 259 263
ENDBRANCH 258 261
ENDBRANCH 254 258
ENDBRANCH 253 256
BRANCH 253 484
ATOM    484  CB  CYS A  25       8.609  -1.807  -7.998  0.00  0.00    +0.000 C 
BRANCH 484 485
ATOM    485  SG  CYS A  25       7.884  -1.281  -6.421  0.00  0.00    +0.000 S 
ATOM    486  HG  CYS A  25       7.780  -2.342  -5.905  0.00  0.00    +0.000 HD
ENDBRANCH 484 485
ENDBRANCH 253 484
ENDBRANCH 249 253
ENDBRANCH 248 251
BRANCH 248 487
ATOM    487  CB  ASP A  26       4.649   1.404 -10.897  0.00  0.00    +0.000 C 
BRANCH 487 488
ATOM    488  CG  ASP A  26       5.242   2.760 -11.202  0.00  0.00    +0.000 C 
ATOM    489  OD1 ASP A  26       6.452   2.856 -11.451  0.00  0.00    +0.000 OA
ATOM    490  OD2 ASP A  26       4.502   3.749 -11.196  0.00  0.00    +0.000 OA
ENDBRANCH 487 488
ENDBRANCH 248 487
ENDBRANCH   1 248
TORSDOF 200
REMARK  Name = /Users/acegid/Desktop/Smoking_Research/Docking/Docking_All_PDB/All_PDB/2KGI_H.pdb
REMARK  268 active torsions:
REMARK  status: ('A' for Active; 'I' for Inactive)
REMARK    1  A    between atoms: N_1  and  CA_5
REMARK    2  A    between atoms: CA_5  and  C_6
REMARK    3  A    between atoms: CA_5  and  CB_8
REMARK    4  A    between atoms: CB_8  and  OG_9
REMARK    5  A    between atoms: N_14  and  CA_15
REMARK    6  A    between atoms: CA_15  and  C_16
REMARK    7  A    between atoms: CA_15  and  CB_18
REMARK    8  A    between atoms: CB_18  and  CG1_19
REMARK    9  A    between atoms: CB_18  and  CG2_20
REMARK   10  A    between atoms: N_30  and  CA_31
REMARK   11  A    between atoms: CA_31  and  C_32
REMARK   12  A    between atoms: CA_31  and  CB_34
REMARK   13  A    between atoms: CB_34  and  SG_35
REMARK   14  A    between atoms: N_41  and  CA_42
REMARK   15  A    between atoms: CA_42  and  C_43
REMARK   16  A    between atoms: CA_42  and  CB_45
REMARK   17  A    between atoms: N_51  and  CA_52
REMARK   18  A    between atoms: CA_52  and  C_53
REMARK   19  A    between atoms: CA_52  and  CB_55
REMARK   20  A    between atoms: N_61  and  CA_62
REMARK   21  A    between atoms: CA_62  and  C_63
REMARK   22  A    between atoms: CA_62  and  CB_65
REMARK   23  A    between atoms: CB_65  and  CG_66
REMARK   24  A    between atoms: CG_66  and  CD_67
REMARK   25  A    between atoms: N_78  and  CA_79
REMARK   26  A    between atoms: CA_79  and  C_80
REMARK   27  A    between atoms: CA_79  and  CB_82
REMARK   28  A    between atoms: CB_82  and  CG_83
REMARK   29  A    between atoms: N_92  and  CA_93
REMARK   30  A    between atoms: CA_93  and  C_94
REMARK   31  A    between atoms: CA_93  and  CB_96
REMARK   32  A    between atoms: CB_96  and  SG_97
REMARK   33  A    between atoms: N_103  and  CA_104
REMARK   34  A    between atoms: CA_104  and  C_105
REMARK   35  A    between atoms: CA_104  and  CB_107
REMARK   36  A    between atoms: CB_107  and  CG_108
REMARK   37  A    between atoms: CG_108  and  CD_109
REMARK   38  A    between atoms: N_120  and  CA_121
REMARK   39  A    between atoms: CA_121  and  C_122
REMARK   40  A    between atoms: CA_121  and  CB_124
REMARK   41  A    between atoms: CB_124  and  CG_125
REMARK   42  A    between atoms: CG_125  and  CD_126
REMARK   43  A    between atoms: CD_126  and  NE_127
REMARK   44  A    between atoms: CA_145  and  C_146
REMARK   45  A    between atoms: N_158  and  CA_159
REMARK   46  A    between atoms: CA_159  and  C_160
REMARK   47  A    between atoms: CA_159  and  CB_162
REMARK   48  A    between atoms: CB_162  and  SG_163
REMARK   49  A    between atoms: N_169  and  CA_170
REMARK   50  A    between atoms: CA_170  and  C_171
REMARK   51  A    between atoms: CA_170  and  CB_173
REMARK   52  A    between atoms: CB_173  and  CG_174
REMARK   53  A    between atoms: CG_174  and  CD_175
REMARK   54  A    between atoms: CD_175  and  CE_176
REMARK   55  A    between atoms: CE_176  and  NZ_177
REMARK   56  A    between atoms: N_191  and  CA_192
REMARK   57  A    between atoms: CA_192  and  C_193
REMARK   58  A    between atoms: CA_192  and  CB_195
REMARK   59  A    between atoms: CB_195  and  CG_196
REMARK   60  A    between atoms: N_203  and  CA_204
REMARK   61  A    between atoms: CA_204  and  C_205
REMARK   62  A    between atoms: CA_204  and  CB_207
REMARK   63  A    between atoms: CB_207  and  CG_208
REMARK   64  A    between atoms: CG_208  and  CD_209
REMARK   65  A    between atoms: CD_209  and  CE_210
REMARK   66  A    between atoms: CE_210  and  NZ_211
REMARK   67  A    between atoms: N_225  and  CA_226
REMARK   68  A    between atoms: CA_226  and  C_227
REMARK   69  A    between atoms: CA_226  and  CB_229
REMARK   70  A    between atoms: CB_229  and  CG1_230
REMARK   71  A    between atoms: CB_229  and  CG2_231
REMARK   72  A    between atoms: N_241  and  CA_242
REMARK   73  A    between atoms: CA_242  and  C_243
REMARK   74  A    between atoms: CA_242  and  CB_245
REMARK   75  A    between atoms: CB_245  and  CG_246
REMARK   76  A    between atoms: N_253  and  CA_254
REMARK   77  A    between atoms: CA_254  and  C_255
REMARK   78  A    between atoms: CA_254  and  CB_257
REMARK   79  A    between atoms: CB_257  and  CG_258
REMARK   80  A    between atoms: N_277  and  CA_278
REMARK   81  A    between atoms: CA_278  and  C_279
REMARK   82  A    between atoms: CA_278  and  CB_281
REMARK   83  A    between atoms: CB_281  and  CG1_282
REMARK   84  A    between atoms: CB_281  and  CG2_283
REMARK   85  A    between atoms: N_293  and  CA_294
REMARK   86  A    between atoms: CA_294  and  C_295
REMARK   87  A    between atoms: CA_294  and  CB_297
REMARK   88  A    between atoms: CB_297  and  CG_298
REMARK   89  A    between atoms: CG_298  and  CD_299
REMARK   90  A    between atoms: N_310  and  CA_311
REMARK   91  A    between atoms: CA_311  and  C_312
REMARK   92  A    between atoms: CA_311  and  CB_314
REMARK   93  A    between atoms: CB_314  and  SG_315
REMARK   94  A    between atoms: N_321  and  CA_322
REMARK   95  A    between atoms: CA_322  and  C_323
REMARK   96  A    between atoms: CA_322  and  CB_325
REMARK   97  A    between atoms: CB_325  and  CG_326
REMARK   98  A    between atoms: N_333  and  CA_334
REMARK   99  A    between atoms: CA_334  and  C_335
REMARK  100  A    between atoms: N_340  and  CA_341
REMARK  101  A    between atoms: CA_341  and  C_342
REMARK  102  A    between atoms: N_347  and  CA_348
REMARK  103  A    between atoms: CA_348  and  C_349
REMARK  104  A    between atoms: CA_348  and  CB_351
REMARK  105  A    between atoms: CB_351  and  SG_352
REMARK  106  A    between atoms: N_358  and  CA_359
REMARK  107  A    between atoms: CA_359  and  C_360
REMARK  108  A    between atoms: CA_359  and  CB_362
REMARK  109  A    between atoms: CB_362  and  CG_363
REMARK  110  A    between atoms: N_370  and  CA_371
REMARK  111  A    between atoms: CA_371  and  C_372
REMARK  112  A    between atoms: CA_371  and  CB_374
REMARK  113  A    between atoms: CB_374  and  CG_375
REMARK  114  A    between atoms: CG_375  and  CD_376
REMARK  115  A    between atoms: N_385  and  CA_386
REMARK  116  A    between atoms: CA_386  and  C_387
REMARK  117  A    between atoms: CA_386  and  CB_389
REMARK  118  A    between atoms: CB_389  and  CG_390
REMARK  119  A    between atoms: N_409  and  CA_410
REMARK  120  A    between atoms: CA_410  and  C_411
REMARK  121  A    between atoms: CA_410  and  CB_413
REMARK  122  A    between atoms: CB_413  and  CG_414
REMARK  123  A    between atoms: N_429  and  CA_430
REMARK  124  A    between atoms: CA_430  and  C_431
REMARK  125  A    between atoms: CA_430  and  CB_433
REMARK  126  A    between atoms: CB_433  and  CG_434
REMARK  127  A    between atoms: N_446  and  CA_447
REMARK  128  A    between atoms: CA_447  and  C_448
REMARK  129  A    between atoms: CA_447  and  CB_450
REMARK  130  A    between atoms: CB_450  and  CG_451
REMARK  131  A    between atoms: CG_451  and  CD_452
REMARK  132  A    between atoms: N_463  and  CA_464
REMARK  133  A    between atoms: CA_464  and  C_465
REMARK  134  A    between atoms: CA_464  and  CB_467
REMARK  135  A    between atoms: CB_467  and  CG1_468
REMARK  136  A    between atoms: CB_467  and  CG2_469
REMARK  137  A    between atoms: N_479  and  CA_480
REMARK  138  A    between atoms: CA_480  and  C_481
REMARK  139  A    between atoms: CA_480  and  CB_483
REMARK  140  A    between atoms: CB_483  and  SG_484
REMARK  141  A    between atoms: N_490  and  CA_491
REMARK  142  A    between atoms: CA_491  and  C_492
REMARK  143  A    between atoms: CA_491  and  CB_494
REMARK  144  A    between atoms: CB_494  and  CG1_495
REMARK  145  A    between atoms: CB_494  and  CG2_496
REMARK  146  A    between atoms: N_506  and  CA_507
REMARK  147  A    between atoms: CA_507  and  C_508
REMARK  148  A    between atoms: N_513  and  CA_514
REMARK  149  A    between atoms: CA_514  and  C_515
REMARK  150  A    between atoms: CA_514  and  CB_517
REMARK  151  A    between atoms: CB_517  and  CG1_518
REMARK  152  A    between atoms: CB_517  and  CG2_519
REMARK  153  A    between atoms: N_529  and  CA_530
REMARK  154  A    between atoms: CA_530  and  C_531
REMARK  155  A    between atoms: CA_530  and  CB_533
REMARK  156  A    between atoms: CB_533  and  OG_534
REMARK  157  A    between atoms: CA_541  and  C_542
REMARK  158  A    between atoms: N_554  and  CA_555
REMARK  159  A    between atoms: CA_555  and  C_556
REMARK  160  A    between atoms: CA_555  and  CB_558
REMARK  161  A    between atoms: CB_558  and  CG_559
REMARK  162  A    between atoms: CG_559  and  CD_560
REMARK  163  A    between atoms: N_569  and  CA_570
REMARK  164  A    between atoms: CA_570  and  C_571
REMARK  165  A    between atoms: CA_570  and  CB_573
REMARK  166  A    between atoms: CB_573  and  CG_574
REMARK  167  A    between atoms: CG_574  and  SD_575
REMARK  168  A    between atoms: SD_575  and  CE_576
REMARK  169  A    between atoms: N_586  and  CA_587
REMARK  170  A    between atoms: CA_587  and  C_588
REMARK  171  A    between atoms: CA_587  and  CB_590
REMARK  172  A    between atoms: N_596  and  CA_597
REMARK  173  A    between atoms: CA_597  and  C_598
REMARK  174  A    between atoms: CA_597  and  CB_600
REMARK  175  A    between atoms: CB_600  and  CG_601
REMARK  176  A    between atoms: CG_601  and  CD_602
REMARK  177  A    between atoms: N_611  and  CA_612
REMARK  178  A    between atoms: CA_612  and  C_613
REMARK  179  A    between atoms: CA_612  and  CB_615
REMARK  180  A    between atoms: CB_615  and  CG_616
REMARK  181  A    between atoms: N_625  and  CA_626
REMARK  182  A    between atoms: CA_626  and  C_627
REMARK  183  A    between atoms: CA_626  and  CB_629
REMARK  184  A    between atoms: CB_629  and  CG_630
REMARK  185  A    between atoms: CG_630  and  CD_631
REMARK  186  A    between atoms: N_640  and  CA_641
REMARK  187  A    between atoms: CA_641  and  C_642
REMARK  188  A    between atoms: CA_641  and  CB_644
REMARK  189  A    between atoms: CB_644  and  CG_645
REMARK  190  A    between atoms: N_652  and  CA_653
REMARK  191  A    between atoms: CA_653  and  C_654
REMARK  192  A    between atoms: CA_653  and  CB_656
REMARK  193  A    between atoms: CB_656  and  CG_657
REMARK  194  A    between atoms: CZ_662  and  OH_663
REMARK  195  A    between atoms: N_673  and  CA_674
REMARK  196  A    between atoms: CA_674  and  C_675
REMARK  197  A    between atoms: CA_674  and  CB_677
REMARK  198  A    between atoms: CB_677  and  CG1_678
REMARK  199  A    between atoms: CB_677  and  CG2_679
REMARK  200  A    between atoms: CG1_678  and  CD1_680
REMARK  201  A    between atoms: N_692  and  CA_693
REMARK  202  A    between atoms: CA_693  and  C_694
REMARK  203  A    between atoms: CA_693  and  CB_696
REMARK  204  A    between atoms: CB_696  and  SG_697
REMARK  205  A    between atoms: N_703  and  CA_704
REMARK  206  A    between atoms: CA_704  and  C_705
REMARK  207  A    between atoms: CA_704  and  CB_707
REMARK  208  A    between atoms: CB_707  and  CG1_708
REMARK  209  A    between atoms: CB_707  and  CG2_709
REMARK  210  A    between atoms: CG1_708  and  CD1_710
REMARK  211  A    between atoms: N_722  and  CA_723
REMARK  212  A    between atoms: CA_723  and  C_724
REMARK  213  A    between atoms: CA_723  and  CB_726
REMARK  214  A    between atoms: CB_726  and  CG_727
REMARK  215  A    between atoms: N_736  and  CA_737
REMARK  216  A    between atoms: CA_737  and  C_738
REMARK  217  A    between atoms: CA_737  and  CB_740
REMARK  218  A    between atoms: CB_740  and  SG_741
REMARK  219  A    between atoms: N_747  and  CA_748
REMARK  220  A    between atoms: CA_748  and  C_749
REMARK  221  A    between atoms: CA_748  and  CB_750
REMARK  222  A    between atoms: N_758  and  CA_762
REMARK  223  A    between atoms: CA_762  and  C_763
REMARK  224  A    between atoms: CA_762  and  CB_765
REMARK  225  A    between atoms: N_770  and  CA_771
REMARK  226  A    between atoms: CA_771  and  C_772
REMARK  227  A    between atoms: CA_771  and  CB_774
REMARK  228  A    between atoms: CB_774  and  CG_775
REMARK  229  A    between atoms: CG_775  and  CD_776
REMARK  230  A    between atoms: CD_776  and  NE_777
REMARK  231  A    between atoms: N_794  and  CA_795
REMARK  232  A    between atoms: CA_795  and  C_796
REMARK  233  A    between atoms: CA_795  and  CB_798
REMARK  234  A    between atoms: CB_798  and  OG1_799
REMARK  235  A    between atoms: CB_798  and  CG2_800
REMARK  236  A    between atoms: N_808  and  CA_810
REMARK  237  A    between atoms: CA_810  and  CB_812
REMARK  238  A    between atoms: CA_810  and  C_828
REMARK  239  A    between atoms: CB_812  and  CG_815
REMARK  240  A    between atoms: CG_815  and  CD_818
REMARK  241  A    between atoms: CD_818  and  CE_821
REMARK  242  A    between atoms: CE_821  and  NZ_824
REMARK  243  A    between atoms: N_830  and  CA_831
REMARK  244  A    between atoms: CA_831  and  C_832
REMARK  245  A    between atoms: CA_831  and  CB_834
REMARK  246  A    between atoms: CB_834  and  CG_835
REMARK  247  A    between atoms: CG_835  and  CD_836
REMARK  248  A    between atoms: N_847  and  CA_848
REMARK  249  A    between atoms: CA_848  and  C_849
REMARK  250  A    between atoms: CA_848  and  CB_851
REMARK  251  A    between atoms: CB_851  and  OG1_852
REMARK  252  A    between atoms: CB_851  and  CG2_853
REMARK  253  A    between atoms: N_861  and  CA_862
REMARK  254  A    between atoms: CA_862  and  C_863
REMARK  255  A    between atoms: CA_862  and  CB_865
REMARK  256  A    between atoms: N_871  and  CA_872
REMARK  257  A    between atoms: CA_872  and  C_873
REMARK  258  A    between atoms: CA_872  and  CB_875
REMARK  259  A    between atoms: CB_875  and  CG_876
REMARK  260  A    between atoms: CG_876  and  CD_877
REMARK  261  A    between atoms: CD_877  and  NE_878
REMARK  262  A    between atoms: N_895  and  CA_896
REMARK  263  A    between atoms: CA_896  and  C_897
REMARK  264  A    between atoms: CA_896  and  CB_898
REMARK  265  A    between atoms: CB_898  and  CG_899
REMARK  266  A    between atoms: CG_899  and  CD_900
REMARK  267  A    between atoms: CD_900  and  CE_901
REMARK  268  A    between atoms: CE_901  and  NZ_902
REMARK                            x       y       z     vdW  Elec       q    Type
REMARK                         _______ _______ _______ _____ _____    ______ ____
ROOT
ATOM      1  CA  GLN B 305      -8.351   2.440  -0.220  0.00  0.00    +0.000 C 
ENDROOT
BRANCH   1   2
ATOM      2  C   GLN B 305      -9.417   1.572  -0.868  0.00  0.00    +0.000 C 
ATOM      3  O   GLN B 305     -10.355   2.083  -1.478  0.00  0.00    +0.000 OA
ATOM      4  N   THR B 306      -9.250   0.282  -0.773  0.00  0.00    +0.000 N 
ATOM      5  H   THR B 306      -8.481  -0.056  -0.262  0.00  0.00    +0.000 HD
BRANCH   4   6
ATOM      6  CA  THR B 306     -10.187  -0.644  -1.376  0.00  0.00    +0.000 C 
BRANCH   6   7
ATOM      7  C   THR B 306     -11.270  -1.011  -0.365  0.00  0.00    +0.000 C 
ATOM      8  O   THR B 306     -10.955  -1.383   0.783  0.00  0.00    +0.000 OA
ATOM      9  N   ALA B 307     -12.516  -0.911  -0.775  0.00  0.00    +0.000 N 
ATOM     10  H   ALA B 307     -12.708  -0.650  -1.702  0.00  0.00    +0.000 HD
BRANCH   9  11
ATOM     11  CA  ALA B 307     -13.623  -1.217   0.097  0.00  0.00    +0.000 C 
ATOM     12  CB  ALA B 307     -14.671  -0.102   0.087  0.00  0.00    +0.000 C 
BRANCH  11  13
ATOM     13  C   ALA B 307     -14.236  -2.562  -0.263  0.00  0.00    +0.000 C 
ATOM     14  O   ALA B 307     -14.771  -2.749  -1.347  0.00  0.00    +0.000 OA
ATOM     15  N   ARG B 308     -14.147  -3.473   0.652  0.00  0.00    +0.000 N 
ATOM     16  H   ARG B 308     -13.743  -3.227   1.518  0.00  0.00    +0.000 HD
BRANCH  15  17
ATOM     17  CA  ARG B 308     -14.606  -4.824   0.508  0.00  0.00    +0.000 C 
BRANCH  17  18
ATOM     18  C   ARG B 308     -15.806  -5.068   1.400  0.00  0.00    +0.000 C 
ATOM     19  O   ARG B 308     -15.882  -4.536   2.508  0.00  0.00    +0.000 OA
ATOM     20  N   LYS B 309     -16.749  -5.854   0.890  0.00  0.00    +0.000 N 
ATOM     21  H   LYS B 309     -16.653  -6.142  -0.042  0.00  0.00    +0.000 HD
BRANCH  20  22
ATOM     22  CA  LYS B 309     -17.945  -6.296   1.641  0.00  0.00    +0.000 C 
BRANCH  22  23
ATOM     23  C   LYS B 309     -18.657  -5.132   2.360  0.00  0.00    +0.000 C 
ATOM     24  O   LYS B 309     -19.776  -5.184   2.934  0.00  0.00    +0.000 OA
ATOM     25  OXT LYS B 309     -18.860  -3.886   2.600  0.00  0.00    +0.000 OA
ENDBRANCH  22  23
BRANCH  22  26
ATOM     26  CB  LYS B 309     -17.569  -7.413   2.644  0.00  0.00    +0.000 C 
BRANCH  26  27
ATOM     27  CG  LYS B 309     -16.905  -8.636   2.011  0.00  0.00    +0.000 C 
BRANCH  27  28
ATOM     28  CD  LYS B 309     -17.804  -9.321   0.985  0.00  0.00    +0.000 C 
BRANCH  28  29
ATOM     29  CE  LYS B 309     -17.090 -10.503   0.332  0.00  0.00    +0.000 C 
BRANCH  29  30
ATOM     30  NZ  LYS B 309     -17.942 -11.178  -0.677  0.00  0.00    +0.000 N 
ATOM     31  HZ1 LYS B 309     -18.801 -11.548  -0.229  0.00  0.00    +0.000 HD
ATOM     32  HZ2 LYS B 309     -17.451 -11.981  -1.117  0.00  0.00    +0.000 HD
ATOM     33  HZ3 LYS B 309     -18.247 -10.542  -1.440  0.00  0.00    +0.000 HD
ENDBRANCH  29  30
ENDBRANCH  28  29
ENDBRANCH  27  28
ENDBRANCH  26  27
ENDBRANCH  22  26
ENDBRANCH  20  22
ENDBRANCH  17  18
BRANCH  17  34
ATOM     34  CB  ARG B 308     -13.480  -5.773   0.918  0.00  0.00    +0.000 C 
BRANCH  34  35
ATOM     35  CG  ARG B 308     -12.263  -5.716   0.020  0.00  0.00    +0.000 C 
BRANCH  35  36
ATOM     36  CD  ARG B 308     -12.584  -6.281  -1.344  0.00  0.00    +0.000 C 
BRANCH  36  37
ATOM     37  NE  ARG B 308     -12.997  -7.695  -1.233  0.00  0.00    +0.000 N 
ATOM     38  CZ  ARG B 308     -13.476  -8.441  -2.230  0.00  0.00    +0.000 C 
ATOM     39  NH1 ARG B 308     -13.628  -7.927  -3.445  0.00  0.00    +0.000 N 
ATOM     40  NH2 ARG B 308     -13.807  -9.712  -2.005  0.00  0.00    +0.000 N 
ATOM     41  HE  ARG B 308     -12.898  -8.078  -0.334  0.00  0.00    +0.000 HD
ATOM     42 HH11 ARG B 308     -13.404  -6.977  -3.678  0.00  0.00    +0.000 HD
ATOM     43 HH12 ARG B 308     -13.990  -8.492  -4.193  0.00  0.00    +0.000 HD
ATOM     44 HH21 ARG B 308     -13.715 -10.145  -1.101  0.00  0.00    +0.000 HD
ATOM     45 HH22 ARG B 308     -14.157 -10.277  -2.760  0.00  0.00    +0.000 HD
ENDBRANCH  36  37
ENDBRANCH  35  36
ENDBRANCH  34  35
ENDBRANCH  17  34
ENDBRANCH  15  17
ENDBRANCH  11  13
ENDBRANCH   9  11
ENDBRANCH   6   7
BRANCH   6  46
ATOM     46  CB  THR B 306      -9.460  -1.924  -1.846  0.00  0.00    +0.000 C 
ATOM     47  CG2 THR B 306      -8.457  -1.614  -2.974  0.00  0.00    +0.000 C 
BRANCH  46  48
ATOM     48  OG1 THR B 306      -8.763  -2.495  -0.723  0.00  0.00    +0.000 OA
ATOM     49  HG1 THR B 306      -9.373  -2.407   0.025  0.00  0.00    +0.000 HD
ENDBRANCH  46  48
ENDBRANCH   6  46
ENDBRANCH   4   6
ENDBRANCH   1   2
BRANCH   1  52
ATOM     50  C   LYS B 304      -6.438   3.462  -1.244  0.00  0.00    +0.000 C 
ATOM     51  O   LYS B 304      -5.660   3.108  -0.347  0.00  0.00    +0.000 OA
ATOM     52  N   GLN B 305      -7.714   3.193  -1.254  0.00  0.00    +0.000 N 
ATOM     53  H   GLN B 305      -8.276   3.511  -1.991  0.00  0.00    +0.000 HD
BRANCH  50  54
ATOM     54  CA  LYS B 304      -5.936   4.228  -2.430  0.00  0.00    +0.000 C 
BRANCH  54  57
ATOM     55  C   THR B 303      -3.991   5.623  -2.950  0.00  0.00    +0.000 C 
ATOM     56  O   THR B 303      -4.514   6.082  -3.981  0.00  0.00    +0.000 OA
ATOM     57  N   LYS B 304      -4.575   4.720  -2.176  0.00  0.00    +0.000 N 
ATOM     58  H   LYS B 304      -4.675   4.962  -1.017  0.00  0.00    +0.000 HD
BRANCH  55  59
ATOM     59  CA  THR B 303      -2.603   6.067  -2.524  0.00  0.00    +0.000 C 
BRANCH  59  62
ATOM     60  C   ARG B 302      -0.950   6.473  -4.213  0.00  0.00    +0.000 C 
ATOM     61  O   ARG B 302      -0.458   5.365  -4.049  0.00  0.00    +0.000 OA
ATOM     62  N   THR B 303      -1.973   6.892  -3.527  0.00  0.00    +0.000 N 
ATOM     63  H   THR B 303      -2.349   7.783  -3.687  0.00  0.00    +0.000 HD
BRANCH  60  64
ATOM     64  CA  ARG B 302      -0.327   7.467  -5.180  0.00  0.00    +0.000 C 
BRANCH  64  67
ATOM     65  C   ALA B 301       1.304   8.888  -4.184  0.00  0.00    +0.000 C 
ATOM     66  O   ALA B 301       0.529   9.860  -4.130  0.00  0.00    +0.000 OA
ATOM     67  N   ARG B 302       0.978   7.762  -4.713  0.00  0.00    +0.000 N 
ATOM     68  H   ARG B 302       1.675   7.073  -4.786  0.00  0.00    +0.000 HD
BRANCH  65  69
ATOM     69  CA  ALA B 301       2.728   8.956  -3.665  0.00  0.00    +0.000 C 
ATOM     70  CB  ALA B 301       2.978   7.750  -2.754  0.00  0.00    +0.000 C 
BRANCH  69  71
ATOM     71  N   ALA B 301       2.983  10.239  -2.957  0.00  0.00    +0.000 N 
ATOM     72  H   ALA B 301       2.732  11.100  -3.765  0.00  0.00    +0.000 HD
ATOM     73  H2  ALA B 301       2.212  10.578  -2.106  0.00  0.00    +0.000 HD
ATOM     74  H3  ALA B 301       3.975  10.823  -2.643  0.00  0.00    +0.000 HD
ENDBRANCH  69  71
ENDBRANCH  65  69
ENDBRANCH  64  67
BRANCH  64  75
ATOM     75  CB  ARG B 302      -0.214   6.921  -6.598  0.00  0.00    +0.000 C 
BRANCH  75  76
ATOM     76  CG  ARG B 302       0.222   7.985  -7.609  0.00  0.00    +0.000 C 
BRANCH  76  77
ATOM     77  CD  ARG B 302       0.730   7.383  -8.915  0.00  0.00    +0.000 C 
BRANCH  77  78
ATOM     78  NE  ARG B 302       2.069   6.787  -8.740  0.00  0.00    +0.000 N 
ATOM     79  CZ  ARG B 302       2.654   5.925  -9.568  0.00  0.00    +0.000 C 
ATOM     80  NH1 ARG B 302       2.019   5.465 -10.633  0.00  0.00    +0.000 N 
ATOM     81  NH2 ARG B 302       3.881   5.518  -9.316  0.00  0.00    +0.000 N 
ATOM     82  HE  ARG B 302       2.581   7.092  -7.951  0.00  0.00    +0.000 HD
ATOM     83 HH11 ARG B 302       1.084   5.733 -10.861  0.00  0.00    +0.000 HD
ATOM     84 HH12 ARG B 302       2.485   4.835 -11.261  0.00  0.00    +0.000 HD
ATOM     85 HH21 ARG B 302       4.385   5.858  -8.516  0.00  0.00    +0.000 HD
ATOM     86 HH22 ARG B 302       4.325   4.847  -9.935  0.00  0.00    +0.000 HD
ENDBRANCH  77  78
ENDBRANCH  76  77
ENDBRANCH  75  76
ENDBRANCH  64  75
ENDBRANCH  60  64
ENDBRANCH  59  62
BRANCH  59  87
ATOM     87  CB  THR B 303      -2.674   6.807  -1.158  0.00  0.00    +0.000 C 
ATOM     88  CG2 THR B 303      -1.285   6.948  -0.583  0.00  0.00    +0.000 C 
BRANCH  87  89
ATOM     89  OG1 THR B 303      -3.294   8.113  -1.299  0.00  0.00    +0.000 OA
ATOM     90  HG1 THR B 303      -3.496   8.452  -0.418  0.00  0.00    +0.000 HD
ENDBRANCH  87  89
ENDBRANCH  59  87
ENDBRANCH  55  59
ENDBRANCH  54  57
BRANCH  54  91
ATOM     91  CB  LYS B 304      -5.967   3.313  -3.649  0.00  0.00    +0.000 C 
BRANCH  91  92
ATOM     92  CG  LYS B 304      -5.052   2.164  -3.498  0.00  0.00    +0.000 C 
BRANCH  92  93
ATOM     93  CD  LYS B 304      -4.921   1.331  -4.729  0.00  0.00    +0.000 C 
BRANCH  93  94
ATOM     94  CE  LYS B 304      -6.171   0.582  -5.097  0.00  0.00    +0.000 C 
BRANCH  94  95
ATOM     95  NZ  LYS B 304      -5.973  -0.244  -6.357  0.00  0.00    +0.000 N 
ATOM     96  HZ1 LYS B 304      -4.965  -0.341  -6.997  0.00  0.00    +0.000 HD
ATOM     97  HZ2 LYS B 304      -6.307  -1.398  -6.333  0.00  0.00    +0.000 HD
ATOM     98  HZ3 LYS B 304      -6.702   0.168  -7.220  0.00  0.00    +0.000 HD
ENDBRANCH  94  95
ENDBRANCH  93  94
ENDBRANCH  92  93
ENDBRANCH  91  92
ENDBRANCH  54  91
ENDBRANCH  50  54
ENDBRANCH   1  52
BRANCH   1  99
ATOM     99  CB  GLN B 305      -8.966   3.382   0.816  0.00  0.00    +0.000 C 
BRANCH  99 100
ATOM    100  CG  GLN B 305      -9.540   2.678   2.034  0.00  0.00    +0.000 C 
BRANCH 100 101
ATOM    101  CD  GLN B 305     -10.102   3.651   3.038  0.00  0.00    +0.000 C 
ATOM    102  OE1 GLN B 305     -11.291   3.989   3.003  0.00  0.00    +0.000 OA
ATOM    103  NE2 GLN B 305      -9.263   4.137   3.907  0.00  0.00    +0.000 N 
ATOM    104 HE21 GLN B 305      -8.312   3.848   3.858  0.00  0.00    +0.000 HD
ATOM    105 HE22 GLN B 305      -9.580   4.774   4.582  0.00  0.00    +0.000 HD
ENDBRANCH 100 101
ENDBRANCH  99 100
ENDBRANCH   1  99
TORSDOF 43
