REMARK  Name = /Users/acegid/Desktop/Smoking_Research/Docking/Docking_All_PDB/All_PDB/2KQ0_H.pdb
REMARK  250 active torsions:
REMARK  status: ('A' for Active; 'I' for Inactive)
REMARK    1  A    between atoms: N_1  and  CA_5
REMARK    2  A    between atoms: CA_5  and  C_8
REMARK    3  A    between atoms: N_10  and  CA_12
REMARK    4  A    between atoms: CA_12  and  CB_14
REMARK    5  A    between atoms: CA_12  and  C_18
REMARK    6  A    between atoms: N_20  and  CA_22
REMARK    7  A    between atoms: CA_22  and  CB_24
REMARK    8  A    between atoms: CA_22  and  C_35
REMARK    9  A    between atoms: CB_24  and  CG_27
REMARK   10  A    between atoms: CG_27  and  SD_30
REMARK   11  A    between atoms: SD_30  and  CE_31
REMARK   12  A    between atoms: N_37  and  CA_39
REMARK   13  A    between atoms: CA_39  and  C_42
REMARK   14  A    between atoms: CA_54  and  C_56
REMARK   15  A    between atoms: N_58  and  CA_60
REMARK   16  A    between atoms: CA_60  and  CB_62
REMARK   17  A    between atoms: CA_60  and  C_67
REMARK   18  A    between atoms: CB_62  and  OG_65
REMARK   19  A    between atoms: N_69  and  CA_71
REMARK   20  A    between atoms: CA_71  and  CB_73
REMARK   21  A    between atoms: CA_71  and  C_82
REMARK   22  A    between atoms: CB_73  and  CG_76
REMARK   23  A    between atoms: CG_76  and  CD_79
REMARK   24  A    between atoms: N_84  and  CA_86
REMARK   25  A    between atoms: CA_86  and  CB_88
REMARK   26  A    between atoms: CA_86  and  C_101
REMARK   27  A    between atoms: CB_88  and  CG2_90
REMARK   28  A    between atoms: CB_88  and  CG1_94
REMARK   29  A    between atoms: CG1_94  and  CD1_97
REMARK   30  A    between atoms: N_103  and  CA_105
REMARK   31  A    between atoms: CA_105  and  CB_107
REMARK   32  A    between atoms: CA_105  and  C_116
REMARK   33  A    between atoms: CB_107  and  CG_110
REMARK   34  A    between atoms: CG_110  and  CD_113
REMARK   35  A    between atoms: N_118  and  CA_120
REMARK   36  A    between atoms: CA_120  and  CB_122
REMARK   37  A    between atoms: CA_120  and  C_133
REMARK   38  A    between atoms: CB_122  and  CG_125
REMARK   39  A    between atoms: CG_125  and  CD_128
REMARK   40  A    between atoms: N_135  and  CA_137
REMARK   41  A    between atoms: CA_137  and  C_140
REMARK   42  A    between atoms: N_142  and  CA_143
REMARK   43  A    between atoms: CA_143  and  C_144
REMARK   44  A    between atoms: CA_143  and  CB_146
REMARK   45  A    between atoms: CB_146  and  CG_147
REMARK   46  A    between atoms: N_162  and  CA_163
REMARK   47  A    between atoms: CA_163  and  C_164
REMARK   48  A    between atoms: CA_163  and  CB_166
REMARK   49  A    between atoms: CB_166  and  CG_167
REMARK   50  A    between atoms: CG_167  and  CD1_168
REMARK   51  A    between atoms: CG_167  and  CD2_169
REMARK   52  A    between atoms: CA_182  and  C_183
REMARK   53  A    between atoms: N_195  and  CA_196
REMARK   54  A    between atoms: CA_196  and  C_197
REMARK   55  A    between atoms: CA_196  and  CB_199
REMARK   56  A    between atoms: CB_199  and  CG_200
REMARK   57  A    between atoms: CG_200  and  CD_201
REMARK   58  A    between atoms: CD_201  and  CE_202
REMARK   59  A    between atoms: CE_202  and  NZ_203
REMARK   60  A    between atoms: N_217  and  CA_218
REMARK   61  A    between atoms: CA_218  and  C_219
REMARK   62  A    between atoms: N_224  and  CA_225
REMARK   63  A    between atoms: CA_225  and  C_226
REMARK   64  A    between atoms: CA_225  and  CB_228
REMARK   65  A    between atoms: CB_228  and  CG_229
REMARK   66  A    between atoms: N_248  and  CA_249
REMARK   67  A    between atoms: CA_249  and  C_250
REMARK   68  A    between atoms: CA_249  and  CB_252
REMARK   69  A    between atoms: CB_252  and  CG_253
REMARK   70  A    between atoms: CG_253  and  CD_254
REMARK   71  A    between atoms: N_263  and  CA_264
REMARK   72  A    between atoms: CA_264  and  C_265
REMARK   73  A    between atoms: CA_264  and  CB_267
REMARK   74  A    between atoms: CB_267  and  CG1_268
REMARK   75  A    between atoms: CB_267  and  CG2_269
REMARK   76  A    between atoms: N_279  and  CA_280
REMARK   77  A    between atoms: CA_280  and  C_281
REMARK   78  A    between atoms: CA_280  and  CB_283
REMARK   79  A    between atoms: CB_283  and  CG_284
REMARK   80  A    between atoms: CG_284  and  CD_285
REMARK   81  A    between atoms: CD_285  and  NE_286
REMARK   82  A    between atoms: N_303  and  CA_304
REMARK   83  A    between atoms: CA_304  and  C_305
REMARK   84  A    between atoms: CA_304  and  CB_307
REMARK   85  A    between atoms: CB_307  and  CG_308
REMARK   86  A    between atoms: N_321  and  CA_322
REMARK   87  A    between atoms: CA_322  and  C_323
REMARK   88  A    between atoms: CA_322  and  CB_325
REMARK   89  A    between atoms: CA_332  and  C_333
REMARK   90  A    between atoms: N_345  and  CA_346
REMARK   91  A    between atoms: CA_346  and  C_347
REMARK   92  A    between atoms: CA_346  and  CB_349
REMARK   93  A    between atoms: CB_349  and  CG_350
REMARK   94  A    between atoms: N_359  and  CA_360
REMARK   95  A    between atoms: CA_360  and  C_361
REMARK   96  A    between atoms: N_366  and  CA_367
REMARK   97  A    between atoms: CA_367  and  C_368
REMARK   98  A    between atoms: CA_367  and  CB_370
REMARK   99  A    between atoms: CB_370  and  CG_371
REMARK  100  A    between atoms: CG_371  and  CD_372
REMARK  101  A    between atoms: CD_372  and  NE_373
REMARK  102  A    between atoms: CA_391  and  C_392
REMARK  103  A    between atoms: N_404  and  CA_405
REMARK  104  A    between atoms: CA_405  and  C_406
REMARK  105  A    between atoms: CA_405  and  CB_408
REMARK  106  A    between atoms: CB_408  and  CG_409
REMARK  107  A    between atoms: N_424  and  CA_425
REMARK  108  A    between atoms: CA_425  and  C_426
REMARK  109  A    between atoms: CA_425  and  CB_428
REMARK  110  A    between atoms: CB_428  and  CG_429
REMARK  111  A    between atoms: N_444  and  CA_445
REMARK  112  A    between atoms: CA_445  and  C_446
REMARK  113  A    between atoms: CA_445  and  CB_448
REMARK  114  A    between atoms: CB_448  and  CG1_449
REMARK  115  A    between atoms: CB_448  and  CG2_450
REMARK  116  A    between atoms: CG1_449  and  CD1_451
REMARK  117  A    between atoms: N_463  and  CA_464
REMARK  118  A    between atoms: CA_464  and  C_465
REMARK  119  A    between atoms: CA_464  and  CB_467
REMARK  120  A    between atoms: CB_467  and  CG_468
REMARK  121  A    between atoms: N_475  and  CA_476
REMARK  122  A    between atoms: CA_476  and  C_477
REMARK  123  A    between atoms: CA_476  and  CB_479
REMARK  124  A    between atoms: CB_479  and  CG_480
REMARK  125  A    between atoms: N_493  and  CA_494
REMARK  126  A    between atoms: CA_494  and  C_495
REMARK  127  A    between atoms: CA_494  and  CB_497
REMARK  128  A    between atoms: CB_497  and  CG_498
REMARK  129  A    between atoms: N_507  and  CA_508
REMARK  130  A    between atoms: CA_508  and  C_509
REMARK  131  A    between atoms: CA_508  and  CB_511
REMARK  132  A    between atoms: CB_511  and  OG1_512
REMARK  133  A    between atoms: CB_511  and  CG2_513
REMARK  134  A    between atoms: N_521  and  CA_522
REMARK  135  A    between atoms: CA_522  and  C_523
REMARK  136  A    between atoms: CA_522  and  CB_525
REMARK  137  A    between atoms: CB_525  and  CG_526
REMARK  138  A    between atoms: CG_526  and  CD_527
REMARK  139  A    between atoms: CD_527  and  CE_528
REMARK  140  A    between atoms: CE_528  and  NZ_529
REMARK  141  A    between atoms: N_543  and  CA_544
REMARK  142  A    between atoms: CA_544  and  C_545
REMARK  143  A    between atoms: CA_544  and  CB_547
REMARK  144  A    between atoms: CB_547  and  OG1_548
REMARK  145  A    between atoms: CB_547  and  CG2_549
REMARK  146  A    between atoms: N_557  and  CA_558
REMARK  147  A    between atoms: CA_558  and  C_559
REMARK  148  A    between atoms: CA_558  and  CB_561
REMARK  149  A    between atoms: CB_561  and  OG1_562
REMARK  150  A    between atoms: CB_561  and  CG2_563
REMARK  151  A    between atoms: N_571  and  CA_572
REMARK  152  A    between atoms: CA_572  and  C_573
REMARK  153  A    between atoms: CA_572  and  CB_575
REMARK  154  A    between atoms: CB_575  and  OG1_576
REMARK  155  A    between atoms: CB_575  and  CG2_577
REMARK  156  A    between atoms: N_585  and  CA_586
REMARK  157  A    between atoms: CA_586  and  C_587
REMARK  158  A    between atoms: CA_586  and  CB_589
REMARK  159  A    between atoms: CB_589  and  CG_590
REMARK  160  A    between atoms: N_609  and  CA_610
REMARK  161  A    between atoms: CA_610  and  C_611
REMARK  162  A    between atoms: CA_610  and  CB_613
REMARK  163  A    between atoms: CB_613  and  CG_614
REMARK  164  A    between atoms: CG_614  and  CD_615
REMARK  165  A    between atoms: N_624  and  CA_625
REMARK  166  A    between atoms: CA_625  and  C_626
REMARK  167  A    between atoms: CA_625  and  CB_628
REMARK  168  A    between atoms: CB_628  and  CG_629
REMARK  169  A    between atoms: CA_637  and  C_638
REMARK  170  A    between atoms: N_650  and  CA_651
REMARK  171  A    between atoms: CA_651  and  C_652
REMARK  172  A    between atoms: CA_651  and  CB_654
REMARK  173  A    between atoms: CB_654  and  CG_655
REMARK  174  A    between atoms: CG_655  and  CD_656
REMARK  175  A    between atoms: CD_656  and  NE_657
REMARK  176  A    between atoms: N_674  and  CA_675
REMARK  177  A    between atoms: CA_675  and  C_676
REMARK  178  A    between atoms: CA_675  and  CB_678
REMARK  179  A    between atoms: CB_678  and  CG_679
REMARK  180  A    between atoms: CG_679  and  CD1_680
REMARK  181  A    between atoms: CG_679  and  CD2_681
REMARK  182  A    between atoms: N_693  and  CA_694
REMARK  183  A    between atoms: CA_694  and  C_695
REMARK  184  A    between atoms: CA_694  and  CB_697
REMARK  185  A    between atoms: CB_697  and  CG_698
REMARK  186  A    between atoms: CG_698  and  CD_699
REMARK  187  A    between atoms: CD_699  and  CE_700
REMARK  188  A    between atoms: CE_700  and  NZ_701
REMARK  189  A    between atoms: N_715  and  CA_716
REMARK  190  A    between atoms: CA_716  and  C_717
REMARK  191  A    between atoms: CA_716  and  CB_719
REMARK  192  A    between atoms: CB_719  and  CG1_720
REMARK  193  A    between atoms: CB_719  and  CG2_721
REMARK  194  A    between atoms: CG1_720  and  CD1_722
REMARK  195  A    between atoms: CA_744  and  C_746
REMARK  196  A    between atoms: N_748  and  CA_750
REMARK  197  A    between atoms: CA_750  and  CB_752
REMARK  198  A    between atoms: CA_750  and  C_756
REMARK  199  A    between atoms: C_756  and  N_758
REMARK  200  A    between atoms: N_758  and  CA_760
REMARK  201  A    between atoms: CA_760  and  CB_762
REMARK  202  A    between atoms: CA_760  and  C_773
REMARK  203  A    between atoms: CB_762  and  CG_765
REMARK  204  A    between atoms: N_776  and  CA_780
REMARK  205  A    between atoms: CA_780  and  CB_782
REMARK  206  A    between atoms: CA_780  and  C_795
REMARK  207  A    between atoms: CB_782  and  CG2_784
REMARK  208  A    between atoms: CB_782  and  CG1_788
REMARK  209  A    between atoms: CG1_788  and  CD1_791
REMARK  210  A    between atoms: N_797  and  CA_799
REMARK  211  A    between atoms: CA_799  and  CB_801
REMARK  212  A    between atoms: CA_799  and  C_814
REMARK  213  A    between atoms: CB_801  and  CG_804
REMARK  214  A    between atoms: CG_804  and  CD1_806
REMARK  215  A    between atoms: CG_804  and  CD2_810
REMARK  216  A    between atoms: CA_826  and  C_828
REMARK  217  A    between atoms: N_830  and  CA_831
REMARK  218  A    between atoms: CA_831  and  C_832
REMARK  219  A    between atoms: CA_831  and  CB_834
REMARK  220  A    between atoms: CB_834  and  OG1_835
REMARK  221  A    between atoms: CB_834  and  CG2_836
REMARK  222  A    between atoms: N_844  and  CA_845
REMARK  223  A    between atoms: CA_845  and  C_846
REMARK  224  A    between atoms: CA_845  and  CB_848
REMARK  225  A    between atoms: CA_855  and  C_856
REMARK  226  A    between atoms: CA_869  and  C_870
REMARK  227  A    between atoms: N_882  and  CA_883
REMARK  228  A    between atoms: CA_883  and  C_884
REMARK  229  A    between atoms: CA_883  and  CB_886
REMARK  230  A    between atoms: CB_886  and  CG_887
REMARK  231  A    between atoms: CG_887  and  CD_888
REMARK  232  A    between atoms: N_897  and  CA_898
REMARK  233  A    between atoms: CA_898  and  C_899
REMARK  234  A    between atoms: CA_898  and  CB_901
REMARK  235  A    between atoms: CB_901  and  CG_902
REMARK  236  A    between atoms: CZ_907  and  OH_908
REMARK  237  A    between atoms: N_918  and  CA_919
REMARK  238  A    between atoms: CA_919  and  C_920
REMARK  239  A    between atoms: CA_919  and  CB_922
REMARK  240  A    between atoms: CB_922  and  CG_923
REMARK  241  A    between atoms: CG_923  and  SD_924
REMARK  242  A    between atoms: SD_924  and  CE_925
REMARK  243  A    between atoms: N_935  and  CA_936
REMARK  244  A    between atoms: CA_936  and  C_937
REMARK  245  A    between atoms: CA_936  and  CB_939
REMARK  246  A    between atoms: CB_939  and  CG_940
REMARK  247  A    between atoms: CG_940  and  CD_941
REMARK  248  A    between atoms: N_950  and  CA_951
REMARK  249  A    between atoms: CA_951  and  C_952
REMARK  250  A    between atoms: CA_951  and  CB_954
REMARK                            x       y       z     vdW  Elec       q    Type
REMARK                         _______ _______ _______ _____ _____    ______ ____
ROOT
ATOM      1  CA  ARG A  26      -0.809  -2.215 -10.317  0.00  0.00    +0.000 C 
ENDROOT
BRANCH   1   2
ATOM      2  C   ARG A  26      -0.740  -2.921  -8.970  0.00  0.00    +0.000 C 
ATOM      3  O   ARG A  26      -1.744  -3.445  -8.487  0.00  0.00    +0.000 OA
ATOM      4  N   PRO A  27       0.440  -2.946  -8.345  0.00  0.00    +0.000 N 
ATOM      5  CA  PRO A  27       0.579  -3.358  -6.963  0.00  0.00    +0.000 C 
ATOM      6  CB  PRO A  27       2.009  -3.909  -6.883  0.00  0.00    +0.000 C 
ATOM      7  CG  PRO A  27       2.683  -3.539  -8.173  0.00  0.00    +0.000 C 
ATOM      8  CD  PRO A  27       1.744  -2.643  -8.940  0.00  0.00    +0.000 C 
BRANCH   5   9
ATOM      9  C   PRO A  27       0.427  -2.166  -6.027  0.00  0.00    +0.000 C 
ATOM     10  O   PRO A  27       1.244  -1.245  -6.042  0.00  0.00    +0.000 OA
ATOM     11  N   PHE A  28      -0.648  -2.158  -5.257  0.00  0.00    +0.000 N 
ATOM     12  H   PHE A  28      -1.283  -2.905  -5.306  0.00  0.00    +0.000 HD
BRANCH  11  13
ATOM     13  CA  PHE A  28      -0.887  -1.080  -4.317  0.00  0.00    +0.000 C 
BRANCH  13  14
ATOM     14  C   PHE A  28      -0.368  -1.490  -2.939  0.00  0.00    +0.000 C 
ATOM     15  O   PHE A  28      -0.535  -2.635  -2.518  0.00  0.00    +0.000 OA
ATOM     16  N   PHE A  29       0.255  -0.548  -2.250  0.00  0.00    +0.000 N 
ATOM     17  H   PHE A  29       0.262   0.368  -2.605  0.00  0.00    +0.000 HD
BRANCH  16  18
ATOM     18  CA  PHE A  29       0.913  -0.809  -0.974  0.00  0.00    +0.000 C 
BRANCH  18  19
ATOM     19  C   PHE A  29      -0.060  -0.610   0.164  0.00  0.00    +0.000 C 
ATOM     20  O   PHE A  29      -0.741   0.415   0.222  0.00  0.00    +0.000 OA
ATOM     21  N   ILE A  30      -0.133  -1.569   1.078  0.00  0.00    +0.000 N 
ATOM     22  H   ILE A  30       0.494  -2.326   1.051  0.00  0.00    +0.000 HD
BRANCH  21  23
ATOM     23  CA  ILE A  30      -1.158  -1.507   2.103  0.00  0.00    +0.000 C 
BRANCH  23  24
ATOM     24  C   ILE A  30      -0.701  -1.919   3.498  0.00  0.00    +0.000 C 
ATOM     25  O   ILE A  30      -0.464  -3.087   3.772  0.00  0.00    +0.000 OA
ATOM     26  N   ASP A  31      -0.676  -0.951   4.400  0.00  0.00    +0.000 N 
ATOM     27  H   ASP A  31      -0.942  -0.043   4.131  0.00  0.00    +0.000 HD
BRANCH  26  28
ATOM     28  CA  ASP A  31      -0.284  -1.192   5.781  0.00  0.00    +0.000 C 
BRANCH  28  29
ATOM     29  C   ASP A  31      -1.490  -1.559   6.628  0.00  0.00    +0.000 C 
ATOM     30  O   ASP A  31      -2.497  -0.847   6.646  0.00  0.00    +0.000 OA
ATOM     31  N   HIS A  32      -1.359  -2.653   7.361  0.00  0.00    +0.000 N 
ATOM     32  H   HIS A  32      -0.486  -3.109   7.380  0.00  0.00    +0.000 HD
BRANCH  31  33
ATOM     33  CA  HIS A  32      -2.455  -3.178   8.160  0.00  0.00    +0.000 C 
BRANCH  33  34
ATOM     34  C   HIS A  32      -2.471  -2.576   9.561  0.00  0.00    +0.000 C 
ATOM     35  O   HIS A  32      -3.494  -2.628  10.247  0.00  0.00    +0.000 OA
ATOM     36  N   ASN A  33      -1.351  -2.003   9.992  0.00  0.00    +0.000 N 
ATOM     37  H   ASN A  33      -0.596  -1.866   9.368  0.00  0.00    +0.000 HD
BRANCH  36  38
ATOM     38  CA  ASN A  33      -1.231  -1.570  11.382  0.00  0.00    +0.000 C 
BRANCH  38  39
ATOM     39  C   ASN A  33      -1.663  -0.116  11.564  0.00  0.00    +0.000 C 
ATOM     40  O   ASN A  33      -1.977   0.307  12.677  0.00  0.00    +0.000 OA
ATOM     41  N   THR A  34      -1.678   0.652  10.481  0.00  0.00    +0.000 N 
ATOM     42  H   THR A  34      -1.332   0.301   9.631  0.00  0.00    +0.000 HD
BRANCH  41  43
ATOM     43  CA  THR A  34      -2.148   2.033  10.549  0.00  0.00    +0.000 C 
BRANCH  43  44
ATOM     44  C   THR A  34      -3.390   2.235   9.675  0.00  0.00    +0.000 C 
ATOM     45  O   THR A  34      -3.993   3.310   9.677  0.00  0.00    +0.000 OA
ATOM     46  N   LYS A  35      -3.780   1.181   8.951  0.00  0.00    +0.000 N 
ATOM     47  H   LYS A  35      -3.305   0.335   9.057  0.00  0.00    +0.000 HD
BRANCH  46  48
ATOM     48  CA  LYS A  35      -4.901   1.233   8.013  0.00  0.00    +0.000 C 
BRANCH  48  49
ATOM     49  C   LYS A  35      -4.680   2.302   6.941  0.00  0.00    +0.000 C 
ATOM     50  O   LYS A  35      -5.294   3.369   6.976  0.00  0.00    +0.000 OA
ATOM     51  N   THR A  36      -3.780   2.022   6.004  0.00  0.00    +0.000 N 
ATOM     52  H   THR A  36      -3.316   1.156   6.025  0.00  0.00    +0.000 HD
BRANCH  51  53
ATOM     53  CA  THR A  36      -3.460   2.968   4.942  0.00  0.00    +0.000 C 
BRANCH  53  54
ATOM     54  C   THR A  36      -3.118   2.250   3.640  0.00  0.00    +0.000 C 
ATOM     55  O   THR A  36      -2.622   1.122   3.653  0.00  0.00    +0.000 OA
ATOM     56  N   THR A  37      -3.407   2.902   2.521  0.00  0.00    +0.000 N 
ATOM     57  H   THR A  37      -3.845   3.776   2.577  0.00  0.00    +0.000 HD
BRANCH  56  58
ATOM     58  CA  THR A  37      -3.081   2.367   1.211  0.00  0.00    +0.000 C 
BRANCH  58  59
ATOM     59  C   THR A  37      -2.390   3.439   0.367  0.00  0.00    +0.000 C 
ATOM     60  O   THR A  37      -2.659   4.631   0.525  0.00  0.00    +0.000 OA
ATOM     61  N   THR A  38      -1.488   3.010  -0.503  0.00  0.00    +0.000 N 
ATOM     62  H   THR A  38      -1.342   2.042  -0.597  0.00  0.00    +0.000 HD
BRANCH  61  63
ATOM     63  CA  THR A  38      -0.702   3.916  -1.330  0.00  0.00    +0.000 C 
BRANCH  63  64
ATOM     64  C   THR A  38      -0.468   3.311  -2.708  0.00  0.00    +0.000 C 
ATOM     65  O   THR A  38      -0.431   2.089  -2.850  0.00  0.00    +0.000 OA
ATOM     66  N   TRP A  39      -0.341   4.146  -3.727  0.00  0.00    +0.000 N 
ATOM     67  H   TRP A  39      -0.518   5.103  -3.599  0.00  0.00    +0.000 HD
BRANCH  66  68
ATOM     68  CA  TRP A  39       0.069   3.655  -5.034  0.00  0.00    +0.000 C 
BRANCH  68  69
ATOM     69  C   TRP A  39       1.567   3.826  -5.187  0.00  0.00    +0.000 C 
ATOM     70  O   TRP A  39       2.231   3.032  -5.848  0.00  0.00    +0.000 OA
ATOM     71  N   GLU A  40       2.085   4.890  -4.594  0.00  0.00    +0.000 N 
ATOM     72  H   GLU A  40       1.482   5.540  -4.163  0.00  0.00    +0.000 HD
BRANCH  71  73
ATOM     73  CA  GLU A  40       3.516   5.128  -4.555  0.00  0.00    +0.000 C 
BRANCH  73  74
ATOM     74  C   GLU A  40       4.114   4.453  -3.329  0.00  0.00    +0.000 C 
ATOM     75  O   GLU A  40       3.515   4.471  -2.255  0.00  0.00    +0.000 OA
ATOM     76  N   ASP A  41       5.294   3.870  -3.500  0.00  0.00    +0.000 N 
ATOM     77  H   ASP A  41       5.713   3.899  -4.383  0.00  0.00    +0.000 HD
BRANCH  76  78
ATOM     78  CA  ASP A  41       5.986   3.184  -2.411  0.00  0.00    +0.000 C 
BRANCH  78  79
ATOM     79  C   ASP A  41       6.147   4.114  -1.209  0.00  0.00    +0.000 C 
ATOM     80  O   ASP A  41       6.733   5.193  -1.329  0.00  0.00    +0.000 OA
ATOM     81  N   PRO A  42       5.614   3.709  -0.040  0.00  0.00    +0.000 N 
ATOM     82  CA  PRO A  42       5.647   4.511   1.195  0.00  0.00    +0.000 C 
ATOM     83  CB  PRO A  42       5.006   3.604   2.250  0.00  0.00    +0.000 C 
ATOM     84  CG  PRO A  42       4.978   2.243   1.645  0.00  0.00    +0.000 C 
ATOM     85  CD  PRO A  42       4.887   2.447   0.164  0.00  0.00    +0.000 C 
BRANCH  82  86
ATOM     86  C   PRO A  42       7.050   4.934   1.644  0.00  0.00    +0.000 C 
ATOM     87  O   PRO A  42       7.190   5.723   2.576  0.00  0.00    +0.000 OA
ATOM     88  N   ARG A  43       8.091   4.388   1.027  0.00  0.00    +0.000 N 
ATOM     89  H   ARG A  43       7.947   3.664   0.374  0.00  0.00    +0.000 HD
BRANCH  88  90
ATOM     90  CA  ARG A  43       9.446   4.850   1.309  0.00  0.00    +0.000 C 
BRANCH  90  91
ATOM     91  C   ARG A  43       9.634   6.266   0.776  0.00  0.00    +0.000 C 
ATOM     92  O   ARG A  43      10.415   7.048   1.316  0.00  0.00    +0.000 OA
ATOM     93  N   LEU A  44       8.940   6.569  -0.315  0.00  0.00    +0.000 N 
ATOM     94  H   LEU A  44       8.363   5.882  -0.719  0.00  0.00    +0.000 HD
BRANCH  93  95
ATOM     95  CA  LEU A  44       8.991   7.896  -0.918  0.00  0.00    +0.000 C 
BRANCH  95  96
ATOM     96  C   LEU A  44       8.081   8.874  -0.178  0.00  0.00    +0.000 C 
ATOM     97  O   LEU A  44       8.309  10.082  -0.197  0.00  0.00    +0.000 OA
ATOM     98  N   LYS A  45       7.031   8.351   0.446  0.00  0.00    +0.000 N 
ATOM     99  H   LYS A  45       6.878   7.382   0.400  0.00  0.00    +0.000 HD
BRANCH  98 100
ATOM    100  CA  LYS A  45       6.112   9.181   1.216  0.00  0.00    +0.000 C 
BRANCH 100 101
ATOM    101  C   LYS A  45       5.911   8.611   2.612  0.00  0.00    +0.000 C 
ATOM    102  O   LYS A  45       5.123   7.682   2.809  0.00  0.00    +0.000 OA
ATOM    103  N   ILE A  46       6.644   9.151   3.571  0.00  0.00    +0.000 N 
ATOM    104  H   ILE A  46       7.273   9.867   3.349  0.00  0.00    +0.000 HD
BRANCH 103 105
ATOM    105  CA  ILE A  46       6.530   8.716   4.952  0.00  0.00    +0.000 C 
BRANCH 105 106
ATOM    106  C   ILE A  46       5.781   9.761   5.777  0.00  0.00    +0.000 C 
ATOM    107  O   ILE A  46       4.640   9.476   6.190  0.00  0.00    +0.000 OA
ATOM    108  N   PRO A  47       5.636  10.284   7.070  0.00  0.00    +0.000 N 
ATOM    109  CD  PRO A  47       4.866   9.829   8.241  0.00  0.00    +0.000 C 
ATOM    110  CG  PRO A  47       6.038   9.279   9.009  0.00  0.00    +0.000 C 
ATOM    111  CB  PRO A  47       7.031  10.392   8.573  0.00  0.00    +0.000 C 
ATOM    112  CA  PRO A  47       6.481  11.421   7.563  0.00  0.00    +0.000 C 
BRANCH 112 113
ATOM    113  C   PRO A  47       7.757  12.267   8.034  0.00  0.00    +0.000 C 
ATOM    114  O   PRO A  47       7.714  13.415   7.555  0.00  0.00    +0.000 OA
ATOM    115  N   ALA A  48       9.068  11.895   8.174  0.00  0.00    +0.000 N 
ATOM    116  H   ALA A  48       9.781  12.070   7.236  0.00  0.00    +0.000 HD
BRANCH 115 117
ATOM    117  CA  ALA A  48       9.738  12.635   9.280  0.00  0.00    +0.000 C 
ATOM    118  CB  ALA A  48       9.325  11.365  10.039  0.00  0.00    +0.000 C 
BRANCH 117 119
ATOM    119  C   ALA A  48      11.088  12.435  10.011  0.00  0.00    +0.000 C 
ATOM    120  O   ALA A  48      10.836  11.663  10.953  0.00  0.00    +0.000 OA
BRANCH 119 121
ATOM    121  N   HIS A  49      11.910  13.407  10.518  0.00  0.00    +0.000 NA
ATOM    122  H   HIS A  49      11.853  13.459  11.706  0.00  0.00    +0.000 HD
BRANCH 121 123
ATOM    123  CA  HIS A  49      12.544  14.568   9.879  0.00  0.00    +0.000 C 
BRANCH 123 124
ATOM    124  C   HIS A  49      13.051  15.523  10.984  0.00  0.00    +0.000 C 
ATOM    125  O   HIS A  49      14.255  15.879  10.967  0.00  0.00    +0.000 OA
ATOM    126  OXT HIS A  49      12.306  15.732  11.962  0.00  0.00    +0.000 OA
ENDBRANCH 123 124
BRANCH 123 127
ATOM    127  CB  HIS A  49      13.933  14.178   9.328  0.00  0.00    +0.000 C 
BRANCH 127 128
ATOM    128  CG  HIS A  49      14.721  12.965   9.818  0.00  0.00    +0.000 A 
ATOM    129  ND1 HIS A  49      14.189  11.895  10.512  0.00  0.00    +0.000 N 
ATOM    130  HD1 HIS A  49      13.328  11.085  10.619  0.00  0.00    +0.000 HD
ATOM    131  CE1 HIS A  49      15.247  11.166  10.934  0.00  0.00    +0.000 A 
ATOM    132  NE2 HIS A  49      16.391  11.685  10.453  0.00  0.00    +0.000 NA
ATOM    133  CD2 HIS A  49      16.076  12.780   9.656  0.00  0.00    +0.000 A 
ENDBRANCH 127 128
ENDBRANCH 123 127
ENDBRANCH 121 123
ENDBRANCH 119 121
ENDBRANCH 117 119
ENDBRANCH 115 117
ENDBRANCH 112 113
ENDBRANCH 105 106
BRANCH 105 134
ATOM    134  CB  ILE A  46       7.916   8.404   5.574  0.00  0.00    +0.000 C 
ATOM    135  CG2 ILE A  46       8.900   9.543   5.329  0.00  0.00    +0.000 C 
BRANCH 134 136
ATOM    136  CG1 ILE A  46       7.779   8.107   7.072  0.00  0.00    +0.000 C 
ATOM    137  CD1 ILE A  46       9.074   7.688   7.734  0.00  0.00    +0.000 C 
ENDBRANCH 134 136
ENDBRANCH 105 134
ENDBRANCH 103 105
ENDBRANCH 100 101
BRANCH 100 138
ATOM    138  CB  LYS A  45       4.751   9.326   0.520  0.00  0.00    +0.000 C 
BRANCH 138 139
ATOM    139  CG  LYS A  45       4.777  10.170  -0.743  0.00  0.00    +0.000 C 
BRANCH 139 140
ATOM    140  CD  LYS A  45       3.365  10.510  -1.198  0.00  0.00    +0.000 C 
BRANCH 140 141
ATOM    141  CE  LYS A  45       3.363  11.426  -2.410  0.00  0.00    +0.000 C 
BRANCH 141 142
ATOM    142  NZ  LYS A  45       3.767  10.721  -3.653  0.00  0.00    +0.000 N 
ATOM    143  HZ1 LYS A  45       3.020  10.050  -3.944  0.00  0.00    +0.000 HD
ATOM    144  HZ2 LYS A  45       4.654  10.192  -3.498  0.00  0.00    +0.000 HD
ATOM    145  HZ3 LYS A  45       3.921  11.409  -4.421  0.00  0.00    +0.000 HD
ENDBRANCH 141 142
ENDBRANCH 140 141
ENDBRANCH 139 140
ENDBRANCH 138 139
ENDBRANCH 100 138
ENDBRANCH  98 100
ENDBRANCH  95  96
BRANCH  95 146
ATOM    146  CB  LEU A  44       8.627   7.847  -2.410  0.00  0.00    +0.000 C 
BRANCH 146 147
ATOM    147  CG  LEU A  44       9.697   7.249  -3.338  0.00  0.00    +0.000 C 
ATOM    148  CD1 LEU A  44      11.022   7.974  -3.164  0.00  0.00    +0.000 C 
ATOM    149  CD2 LEU A  44       9.871   5.757  -3.093  0.00  0.00    +0.000 C 
ENDBRANCH 146 147
ENDBRANCH  95 146
ENDBRANCH  93  95
ENDBRANCH  90  91
BRANCH  90 150
ATOM    150  CB  ARG A  43      10.490   3.917   0.695  0.00  0.00    +0.000 C 
BRANCH 150 151
ATOM    151  CG  ARG A  43      10.582   2.566   1.380  0.00  0.00    +0.000 C 
BRANCH 151 152
ATOM    152  CD  ARG A  43      11.485   1.616   0.613  0.00  0.00    +0.000 C 
BRANCH 152 153
ATOM    153  NE  ARG A  43      10.877   1.208  -0.650  0.00  0.00    +0.000 N 
ATOM    154  CZ  ARG A  43      11.556   0.802  -1.721  0.00  0.00    +0.000 C 
ATOM    155  NH1 ARG A  43      12.887   0.816  -1.719  0.00  0.00    +0.000 N 
ATOM    156  NH2 ARG A  43      10.898   0.403  -2.802  0.00  0.00    +0.000 N 
ATOM    157  HE  ARG A  43       9.884   1.231  -0.699  0.00  0.00    +0.000 HD
ATOM    158 HH11 ARG A  43      13.384   1.130  -0.911  0.00  0.00    +0.000 HD
ATOM    159 HH12 ARG A  43      13.400   0.518  -2.535  0.00  0.00    +0.000 HD
ATOM    160 HH21 ARG A  43       9.884   0.410  -2.806  0.00  0.00    +0.000 HD
ATOM    161 HH22 ARG A  43      11.398   0.085  -3.617  0.00  0.00    +0.000 HD
ENDBRANCH 152 153
ENDBRANCH 151 152
ENDBRANCH 150 151
ENDBRANCH  90 150
ENDBRANCH  88  90
ENDBRANCH  82  86
ENDBRANCH  78  79
BRANCH  78 162
ATOM    162  CB  ASP A  41       7.359   2.707  -2.889  0.00  0.00    +0.000 C 
BRANCH 162 163
ATOM    163  CG  ASP A  41       8.012   1.730  -1.931  0.00  0.00    +0.000 C 
ATOM    164  OD1 ASP A  41       8.296   2.110  -0.776  0.00  0.00    +0.000 OA
ATOM    165  OD2 ASP A  41       8.272   0.580  -2.343  0.00  0.00    +0.000 OA
ENDBRANCH 162 163
ENDBRANCH  78 162
ENDBRANCH  76  78
ENDBRANCH  73  74
BRANCH  73 166
ATOM    166  CB  GLU A  40       3.821   6.633  -4.529  0.00  0.00    +0.000 C 
BRANCH 166 167
ATOM    167  CG  GLU A  40       3.087   7.402  -3.438  0.00  0.00    +0.000 C 
BRANCH 167 168
ATOM    168  CD  GLU A  40       1.745   7.939  -3.895  0.00  0.00    +0.000 C 
ATOM    169  OE1 GLU A  40       0.756   7.173  -3.905  0.00  0.00    +0.000 OA
ATOM    170  OE2 GLU A  40       1.679   9.136  -4.251  0.00  0.00    +0.000 OA
ENDBRANCH 167 168
ENDBRANCH 166 167
ENDBRANCH  73 166
ENDBRANCH  71  73
ENDBRANCH  68  69
BRANCH  68 171
ATOM    171  CB  TRP A  39      -0.660   4.367  -6.173  0.00  0.00    +0.000 C 
BRANCH 171 172
ATOM    172  CG  TRP A  39      -2.141   4.173  -6.153  0.00  0.00    +0.000 A 
ATOM    173  CD1 TRP A  39      -3.064   5.058  -5.683  0.00  0.00    +0.000 A 
ATOM    174  CD2 TRP A  39      -2.875   3.027  -6.614  0.00  0.00    +0.000 A 
ATOM    175  NE1 TRP A  39      -4.327   4.549  -5.834  0.00  0.00    +0.000 N 
ATOM    176  CE2 TRP A  39      -4.240   3.304  -6.396  0.00  0.00    +0.000 A 
ATOM    177  CE3 TRP A  39      -2.523   1.794  -7.194  0.00  0.00    +0.000 A 
ATOM    178  CZ2 TRP A  39      -5.248   2.407  -6.729  0.00  0.00    +0.000 A 
ATOM    179  CZ3 TRP A  39      -3.536   0.906  -7.520  0.00  0.00    +0.000 A 
ATOM    180  CH2 TRP A  39      -4.880   1.217  -7.288  0.00  0.00    +0.000 A 
ATOM    181  HE1 TRP A  39      -5.157   5.001  -5.574  0.00  0.00    +0.000 HD
ENDBRANCH 171 172
ENDBRANCH  68 171
ENDBRANCH  66  68
ENDBRANCH  63  64
BRANCH  63 182
ATOM    182  CB  THR A  38       0.668   4.205  -0.682  0.00  0.00    +0.000 C 
ATOM    183  CG2 THR A  38       0.526   5.024   0.586  0.00  0.00    +0.000 C 
BRANCH 182 184
ATOM    184  OG1 THR A  38       1.313   2.971  -0.360  0.00  0.00    +0.000 OA
ATOM    185  HG1 THR A  38       0.651   2.326  -0.098  0.00  0.00    +0.000 HD
ENDBRANCH 182 184
ENDBRANCH  63 182
ENDBRANCH  61  63
ENDBRANCH  58  59
BRANCH  58 186
ATOM    186  CB  THR A  37      -4.339   1.847   0.477  0.00  0.00    +0.000 C 
ATOM    187  CG2 THR A  37      -5.336   2.970   0.238  0.00  0.00    +0.000 C 
BRANCH 186 188
ATOM    188  OG1 THR A  37      -3.977   1.252  -0.777  0.00  0.00    +0.000 OA
ATOM    189  HG1 THR A  37      -3.306   0.579  -0.631  0.00  0.00    +0.000 HD
ENDBRANCH 186 188
ENDBRANCH  58 186
ENDBRANCH  56  58
ENDBRANCH  53  54
BRANCH  53 190
ATOM    190  CB  THR A  36      -2.283   3.886   5.338  0.00  0.00    +0.000 C 
ATOM    191  CG2 THR A  36      -2.742   5.036   6.224  0.00  0.00    +0.000 C 
BRANCH 190 192
ATOM    192  OG1 THR A  36      -1.278   3.126   6.018  0.00  0.00    +0.000 OA
ATOM    193  HG1 THR A  36      -1.648   2.759   6.825  0.00  0.00    +0.000 HD
ENDBRANCH 190 192
ENDBRANCH  53 190
ENDBRANCH  51  53
ENDBRANCH  48  49
BRANCH  48 194
ATOM    194  CB  LYS A  35      -6.233   1.480   8.738  0.00  0.00    +0.000 C 
BRANCH 194 195
ATOM    195  CG  LYS A  35      -6.543   0.470   9.835  0.00  0.00    +0.000 C 
BRANCH 195 196
ATOM    196  CD  LYS A  35      -6.595  -0.951   9.300  0.00  0.00    +0.000 C 
BRANCH 196 197
ATOM    197  CE  LYS A  35      -6.984  -1.944  10.384  0.00  0.00    +0.000 C 
BRANCH 197 198
ATOM    198  NZ  LYS A  35      -5.986  -1.994  11.487  0.00  0.00    +0.000 N 
ATOM    199  HZ1 LYS A  35      -6.283  -2.692  12.205  0.00  0.00    +0.000 HD
ATOM    200  HZ2 LYS A  35      -5.901  -1.060  11.944  0.00  0.00    +0.000 HD
ATOM    201  HZ3 LYS A  35      -5.051  -2.271  11.120  0.00  0.00    +0.000 HD
ENDBRANCH 197 198
ENDBRANCH 196 197
ENDBRANCH 195 196
ENDBRANCH 194 195
ENDBRANCH  48 194
ENDBRANCH  46  48
ENDBRANCH  43  44
BRANCH  43 202
ATOM    202  CB  THR A  34      -1.045   3.017  10.110  0.00  0.00    +0.000 C 
ATOM    203  CG2 THR A  34      -1.301   4.411  10.664  0.00  0.00    +0.000 C 
BRANCH 202 204
ATOM    204  OG1 THR A  34       0.229   2.551  10.573  0.00  0.00    +0.000 OA
ATOM    205  HG1 THR A  34       0.501   1.796  10.022  0.00  0.00    +0.000 HD
ENDBRANCH 202 204
ENDBRANCH  43 202
ENDBRANCH  41  43
ENDBRANCH  38  39
BRANCH  38 206
ATOM    206  CB  ASN A  33       0.195  -1.804  11.920  0.00  0.00    +0.000 C 
BRANCH 206 207
ATOM    207  CG  ASN A  33       1.113  -0.594  11.822  0.00  0.00    +0.000 C 
ATOM    208  OD1 ASN A  33       1.194   0.211  12.750  0.00  0.00    +0.000 OA
ATOM    209  ND2 ASN A  33       1.808  -0.460  10.706  0.00  0.00    +0.000 N 
ATOM    210 HD21 ASN A  33       1.691  -1.136   9.997  0.00  0.00    +0.000 HD
ATOM    211 HD22 ASN A  33       2.417   0.305  10.622  0.00  0.00    +0.000 HD
ENDBRANCH 206 207
ENDBRANCH  38 206
ENDBRANCH  36  38
ENDBRANCH  33  34
BRANCH  33 212
ATOM    212  CB  HIS A  32      -2.372  -4.706   8.268  0.00  0.00    +0.000 C 
BRANCH 212 213
ATOM    213  CG  HIS A  32      -2.671  -5.430   6.992  0.00  0.00    +0.000 C 
ATOM    214  ND1 HIS A  32      -3.876  -6.051   6.748  0.00  0.00    +0.000 N 
ATOM    215  CD2 HIS A  32      -1.913  -5.639   5.887  0.00  0.00    +0.000 C 
ATOM    216  CE1 HIS A  32      -3.847  -6.609   5.553  0.00  0.00    +0.000 C 
ATOM    217  NE2 HIS A  32      -2.672  -6.373   5.012  0.00  0.00    +0.000 N 
ATOM    218  HD1 HIS A  32      -4.642  -6.081   7.366  0.00  0.00    +0.000 HD
ATOM    219  HE2 HIS A  32      -2.371  -6.718   4.130  0.00  0.00    +0.000 HD
ENDBRANCH 212 213
ENDBRANCH  33 212
ENDBRANCH  31  33
ENDBRANCH  28  29
BRANCH  28 220
ATOM    220  CB  ASP A  31       0.392   0.039   6.372  0.00  0.00    +0.000 C 
BRANCH 220 221
ATOM    221  CG  ASP A  31       0.607  -0.092   7.862  0.00  0.00    +0.000 C 
ATOM    222  OD1 ASP A  31       0.868  -1.216   8.344  0.00  0.00    +0.000 OA
ATOM    223  OD2 ASP A  31       0.486   0.926   8.567  0.00  0.00    +0.000 OA
ENDBRANCH 220 221
ENDBRANCH  28 220
ENDBRANCH  26  28
ENDBRANCH  23  24
BRANCH  23 224
ATOM    224  CB  ILE A  30      -2.382  -2.363   1.708  0.00  0.00    +0.000 C 
ATOM    225  CG2 ILE A  30      -3.287  -1.601   0.750  0.00  0.00    +0.000 C 
BRANCH 224 226
ATOM    226  CG1 ILE A  30      -1.937  -3.710   1.115  0.00  0.00    +0.000 C 
ATOM    227  CD1 ILE A  30      -2.441  -3.988  -0.287  0.00  0.00    +0.000 C 
ENDBRANCH 224 226
ENDBRANCH  23 224
ENDBRANCH  21  23
ENDBRANCH  18  19
BRANCH  18 228
ATOM    228  CB  PHE A  29       2.106   0.128  -0.819  0.00  0.00    +0.000 C 
BRANCH 228 229
ATOM    229  CG  PHE A  29       3.114  -0.035  -1.917  0.00  0.00    +0.000 A 
ATOM    230  CD1 PHE A  29       4.084  -1.018  -1.846  0.00  0.00    +0.000 A 
ATOM    231  CD2 PHE A  29       3.072   0.783  -3.035  0.00  0.00    +0.000 A 
ATOM    232  CE1 PHE A  29       4.999  -1.182  -2.867  0.00  0.00    +0.000 A 
ATOM    233  CE2 PHE A  29       3.980   0.622  -4.063  0.00  0.00    +0.000 A 
ATOM    234  CZ  PHE A  29       4.946  -0.363  -3.978  0.00  0.00    +0.000 A 
ENDBRANCH 228 229
ENDBRANCH  18 228
ENDBRANCH  16  18
ENDBRANCH  13  14
BRANCH  13 235
ATOM    235  CB  PHE A  28      -2.380  -0.684  -4.276  0.00  0.00    +0.000 C 
BRANCH 235 236
ATOM    236  CG  PHE A  28      -3.345  -1.764  -3.855  0.00  0.00    +0.000 A 
ATOM    237  CD1 PHE A  28      -3.437  -2.957  -4.553  0.00  0.00    +0.000 A 
ATOM    238  CD2 PHE A  28      -4.186  -1.565  -2.771  0.00  0.00    +0.000 A 
ATOM    239  CE1 PHE A  28      -4.339  -3.933  -4.174  0.00  0.00    +0.000 A 
ATOM    240  CE2 PHE A  28      -5.089  -2.536  -2.386  0.00  0.00    +0.000 A 
ATOM    241  CZ  PHE A  28      -5.166  -3.723  -3.088  0.00  0.00    +0.000 A 
ENDBRANCH 235 236
ENDBRANCH  13 235
ENDBRANCH  11  13
ENDBRANCH   5   9
ENDBRANCH   1   2
BRANCH   1 244
ATOM    242  C   GLY A  25      -1.065  -3.170 -12.529  0.00  0.00    +0.000 C 
ATOM    243  O   GLY A  25       0.049  -2.815 -12.913  0.00  0.00    +0.000 OA
ATOM    244  N   ARG A  26      -1.500  -3.027 -11.287  0.00  0.00    +0.000 N 
ATOM    245  H   ARG A  26      -2.319  -3.495 -11.017  0.00  0.00    +0.000 HD
BRANCH 242 246
ATOM    246  CA  GLY A  25      -2.053  -3.823 -13.458  0.00  0.00    +0.000 C 
BRANCH 246 249
ATOM    247  C   ASN A  24      -3.859  -2.316 -12.895  0.00  0.00    +0.000 C 
ATOM    248  O   ASN A  24      -3.260  -1.343 -13.356  0.00  0.00    +0.000 OA
ATOM    249  N   GLY A  25      -3.398  -3.564 -12.988  0.00  0.00    +0.000 N 
ATOM    250  H   GLY A  25      -3.980  -4.310 -12.740  0.00  0.00    +0.000 HD
BRANCH 247 251
ATOM    251  CA  ASN A  24      -5.202  -2.143 -12.197  0.00  0.00    +0.000 C 
BRANCH 251 254
ATOM    252  C   PRO A  23      -6.170  -4.384 -12.386  0.00  0.00    +0.000 C 
ATOM    253  O   PRO A  23      -6.346  -4.278 -13.599  0.00  0.00    +0.000 OA
ATOM    254  N   ASN A  24      -5.668  -3.408 -11.638  0.00  0.00    +0.000 N 
ATOM    255  H   ASN A  24      -5.619  -3.541 -10.669  0.00  0.00    +0.000 HD
BRANCH 252 259
ATOM    256  C   ALA A  22      -4.959  -5.463  -9.729  0.00  0.00    +0.000 C 
ATOM    257  O   ALA A  22      -3.973  -5.420 -10.473  0.00  0.00    +0.000 OA
ATOM    258  N   PRO A  23      -6.213  -5.603 -10.209  0.00  0.00    +0.000 N 
ATOM    259  CA  PRO A  23      -6.519  -5.677 -11.648  0.00  0.00    +0.000 C 
ATOM    260  CB  PRO A  23      -8.032  -5.926 -11.695  0.00  0.00    +0.000 C 
ATOM    261  CG  PRO A  23      -8.390  -6.407 -10.329  0.00  0.00    +0.000 C 
ATOM    262  CD  PRO A  23      -7.435  -5.728  -9.393  0.00  0.00    +0.000 C 
BRANCH 256 263
ATOM    263  CA  ALA A  22      -4.787  -5.338  -8.218  0.00  0.00    +0.000 C 
ATOM    264  CB  ALA A  22      -5.205  -3.948  -7.751  0.00  0.00    +0.000 C 
BRANCH 263 267
ATOM    265  C   HIS A  21      -2.984  -6.798  -7.465  0.00  0.00    +0.000 C 
ATOM    266  O   HIS A  21      -3.717  -7.785  -7.427  0.00  0.00    +0.000 OA
ATOM    267  N   ALA A  22      -3.404  -5.594  -7.834  0.00  0.00    +0.000 N 
ATOM    268  H   ALA A  22      -2.760  -4.851  -7.860  0.00  0.00    +0.000 HD
BRANCH 265 269
ATOM    269  CA  HIS A  21      -1.518  -6.896  -7.056  0.00  0.00    +0.000 C 
BRANCH 269 272
ATOM    270  C   ARG A  20      -1.300  -6.277  -4.737  0.00  0.00    +0.000 C 
ATOM    271  O   ARG A  20      -1.325  -5.080  -5.023  0.00  0.00    +0.000 OA
ATOM    272  N   HIS A  21      -1.410  -7.227  -5.647  0.00  0.00    +0.000 N 
ATOM    273  H   HIS A  21      -1.427  -8.171  -5.366  0.00  0.00    +0.000 HD
BRANCH 270 274
ATOM    274  CA  ARG A  20      -1.129  -6.724  -3.297  0.00  0.00    +0.000 C 
BRANCH 274 277
ATOM    275  C   VAL A  19       0.983  -6.570  -2.129  0.00  0.00    +0.000 C 
ATOM    276  O   VAL A  19       1.081  -7.799  -2.064  0.00  0.00    +0.000 OA
ATOM    277  N   ARG A  20      -0.050  -5.969  -2.685  0.00  0.00    +0.000 N 
ATOM    278  H   ARG A  20      -0.094  -4.987  -2.684  0.00  0.00    +0.000 HD
BRANCH 275 279
ATOM    279  CA  VAL A  19       2.030  -5.651  -1.501  0.00  0.00    +0.000 C 
BRANCH 279 282
ATOM    280  C   GLU A  18       1.652  -5.099   0.810  0.00  0.00    +0.000 C 
ATOM    281  O   GLU A  18       1.194  -3.998   0.496  0.00  0.00    +0.000 OA
ATOM    282  N   VAL A  19       2.145  -5.941  -0.084  0.00  0.00    +0.000 N 
ATOM    283  H   VAL A  19       2.579  -6.773   0.213  0.00  0.00    +0.000 HD
BRANCH 280 284
ATOM    284  CA  GLU A  18       1.655  -5.533   2.272  0.00  0.00    +0.000 C 
BRANCH 284 287
ATOM    285  C   TRP A  17       3.060  -4.090   3.643  0.00  0.00    +0.000 C 
ATOM    286  O   TRP A  17       4.060  -4.799   3.537  0.00  0.00    +0.000 OA
ATOM    287  N   GLU A  18       1.900  -4.377   3.104  0.00  0.00    +0.000 N 
ATOM    288  H   GLU A  18       1.147  -3.771   3.281  0.00  0.00    +0.000 HD
BRANCH 285 289
ATOM    289  CA  TRP A  17       3.079  -2.787   4.425  0.00  0.00    +0.000 C 
BRANCH 289 292
ATOM    290  C   GLY A  16       3.166  -3.305   6.788  0.00  0.00    +0.000 C 
ATOM    291  O   GLY A  16       1.970  -3.605   6.815  0.00  0.00    +0.000 OA
ATOM    292  N   TRP A  17       3.792  -2.938   5.680  0.00  0.00    +0.000 N 
ATOM    293  H   TRP A  17       4.760  -2.769   5.706  0.00  0.00    +0.000 HD
BRANCH 290 294
ATOM    294  CA  GLY A  16       4.011  -3.366   8.042  0.00  0.00    +0.000 C 
BRANCH 294 297
ATOM    295  C   LYS A  15       6.284  -2.557   8.039  0.00  0.00    +0.000 C 
ATOM    296  O   LYS A  15       5.950  -1.489   8.555  0.00  0.00    +0.000 OA
ATOM    297  N   GLY A  16       5.420  -3.518   7.745  0.00  0.00    +0.000 N 
ATOM    298  H   GLY A  16       5.741  -4.341   7.316  0.00  0.00    +0.000 HD
BRANCH 295 299
ATOM    299  CA  LYS A  15       7.746  -2.832   7.690  0.00  0.00    +0.000 C 
BRANCH 299 302
ATOM    300  C   PRO A  14       7.683  -1.723   5.507  0.00  0.00    +0.000 C 
ATOM    301  O   PRO A  14       6.688  -2.348   5.127  0.00  0.00    +0.000 OA
ATOM    302  N   LYS A  15       8.235  -1.875   6.706  0.00  0.00    +0.000 N 
ATOM    303  H   LYS A  15       8.999  -1.307   6.945  0.00  0.00    +0.000 HD
BRANCH 300 307
ATOM    304  C   LEU A  13       8.723  -2.276   2.751  0.00  0.00    +0.000 C 
ATOM    305  O   LEU A  13       8.952  -3.233   3.495  0.00  0.00    +0.000 OA
ATOM    306  N   PRO A  14       8.471  -1.032   3.204  0.00  0.00    +0.000 N 
ATOM    307  CA  PRO A  14       8.347  -0.665   4.623  0.00  0.00    +0.000 C 
ATOM    308  CB  PRO A  14       7.470   0.573   4.536  0.00  0.00    +0.000 C 
ATOM    309  CG  PRO A  14       7.943   1.257   3.308  0.00  0.00    +0.000 C 
ATOM    310  CD  PRO A  14       8.310   0.159   2.342  0.00  0.00    +0.000 C 
BRANCH 304 311
ATOM    311  CA  LEU A  13       8.751  -2.457   1.237  0.00  0.00    +0.000 C 
BRANCH 311 314
ATOM    312  C   PHE A  12      10.193  -3.645  -0.317  0.00  0.00    +0.000 C 
ATOM    313  O   PHE A  12      10.039  -2.791  -1.190  0.00  0.00    +0.000 OA
ATOM    314  N   LEU A  13       9.613  -3.572   0.873  0.00  0.00    +0.000 N 
ATOM    315  H   LEU A  13       9.763  -4.287   1.528  0.00  0.00    +0.000 HD
BRANCH 312 316
ATOM    316  CA  PHE A  12      11.063  -4.869  -0.574  0.00  0.00    +0.000 C 
BRANCH 316 319
ATOM    317  C   GLY A  11      11.704  -6.702  -1.343  0.00  0.00    +0.000 C 
ATOM    318  O   GLY A  11      11.314  -7.852  -1.121  0.00  0.00    +0.000 OA
ATOM    319  N   PHE A  12      10.448  -5.729  -1.606  0.00  0.00    +0.000 N 
ATOM    320  H   PHE A  12      10.212  -5.160  -2.449  0.00  0.00    +0.000 HD
BRANCH 317 321
ATOM    321  CA  GLY A  11      13.464  -6.805  -1.873  0.00  0.00    +0.000 C 
BRANCH 321 324
ATOM    322  C   GLN A  10      16.620  -7.632  -2.325  0.00  0.00    +0.000 C 
ATOM    323  O   GLN A  10      16.486  -7.534  -3.543  0.00  0.00    +0.000 OA
ATOM    324  N   GLY A  11      15.105  -7.417  -1.727  0.00  0.00    +0.000 N 
ATOM    325  H   GLY A  11      15.088  -8.151  -0.795  0.00  0.00    +0.000 HD
BRANCH 322 326
ATOM    326  CA  GLN A  10      18.389  -7.984  -2.047  0.00  0.00    +0.000 C 
BRANCH 326 329
ATOM    327  C   GLU A   9      21.362  -8.982  -2.439  0.00  0.00    +0.000 C 
ATOM    328  O   GLU A   9      21.407  -9.211  -1.215  0.00  0.00    +0.000 OA
ATOM    329  N   GLN A  10      19.945  -8.324  -2.708  0.00  0.00    +0.000 N 
ATOM    330  H   GLN A  10      19.764  -8.507  -3.867  0.00  0.00    +0.000 HD
BRANCH 327 331
ATOM    331  CA  GLU A   9      23.058  -9.413  -2.700  0.00  0.00    +0.000 C 
BRANCH 331 334
ATOM    332  C   ILE A   8      25.948 -10.383  -2.977  0.00  0.00    +0.000 C 
ATOM    333  O   ILE A   8      25.701 -11.476  -2.466  0.00  0.00    +0.000 OA
ATOM    334  N   GLU A   9      24.617  -9.632  -3.245  0.00  0.00    +0.000 N 
ATOM    335  H   GLU A   9      24.405  -9.994  -4.359  0.00  0.00    +0.000 HD
BRANCH 332 336
ATOM    336  CA  ILE A   8      27.661 -10.408  -3.358  0.00  0.00    +0.000 C 
BRANCH 336 339
ATOM    337  C   GLU A   7      30.325 -11.875  -3.888  0.00  0.00    +0.000 C 
ATOM    338  O   GLU A   7      30.278 -11.614  -5.090  0.00  0.00    +0.000 OA
ATOM    339  N   ILE A   8      28.978 -11.384  -3.229  0.00  0.00    +0.000 N 
ATOM    340  H   ILE A   8      28.452 -12.382  -3.617  0.00  0.00    +0.000 HD
BRANCH 337 341
ATOM    341  CA  GLU A   7      31.995 -12.113  -3.590  0.00  0.00    +0.000 C 
BRANCH 341 344
ATOM    342  C   SER A   6      34.837 -13.077  -4.157  0.00  0.00    +0.000 C 
ATOM    343  O   SER A   6      35.364 -11.963  -4.152  0.00  0.00    +0.000 OA
ATOM    344  N   GLU A   7      33.322 -12.928  -4.155  0.00  0.00    +0.000 N 
ATOM    345  H   GLU A   7      33.011 -13.269  -5.251  0.00  0.00    +0.000 HD
BRANCH 342 346
ATOM    346  CA  SER A   6      35.984 -14.248  -4.616  0.00  0.00    +0.000 C 
BRANCH 346 349
ATOM    347  C   PRO A   5      38.956 -14.959  -4.721  0.00  0.00    +0.000 C 
ATOM    348  O   PRO A   5      39.770 -14.076  -4.391  0.00  0.00    +0.000 OA
ATOM    349  N   SER A   6      37.571 -14.400  -4.463  0.00  0.00    +0.000 N 
ATOM    350  H   SER A   6      37.803 -13.236  -4.387  0.00  0.00    +0.000 HD
BRANCH 347 357
ATOM    351  C   GLY A   4      42.669 -16.944  -5.847  0.00  0.00    +0.000 C 
ATOM    352  O   GLY A   4      42.715 -17.059  -7.086  0.00  0.00    +0.000 OA
ATOM    353  N   PRO A   5      41.469 -16.387  -5.229  0.00  0.00    +0.000 N 
ATOM    354  CD  PRO A   5      41.449 -16.685  -3.798  0.00  0.00    +0.000 C 
ATOM    355  CG  PRO A   5      40.517 -17.901  -3.987  0.00  0.00    +0.000 C 
ATOM    356  CB  PRO A   5      39.447 -17.353  -4.981  0.00  0.00    +0.000 C 
ATOM    357  CA  PRO A   5      39.971 -16.001  -5.526  0.00  0.00    +0.000 C 
BRANCH 351 358
ATOM    358  CA  GLY A   4      44.145 -16.692  -5.310  0.00  0.00    +0.000 C 
BRANCH 358 361
ATOM    359  C   MET A   3      46.492 -18.247  -5.459  0.00  0.00    +0.000 C 
ATOM    360  O   MET A   3      46.506 -18.859  -4.398  0.00  0.00    +0.000 OA
ATOM    361  N   GLY A   4      45.545 -17.228  -5.586  0.00  0.00    +0.000 N 
ATOM    362  H   GLY A   4      45.940 -16.314  -6.235  0.00  0.00    +0.000 HD
BRANCH 359 363
ATOM    363  CA  MET A   3      47.791 -18.369  -6.383  0.00  0.00    +0.000 C 
BRANCH 363 366
ATOM    364  C   ALA A   2      49.552 -20.442  -6.132  0.00  0.00    +0.000 C 
ATOM    365  O   ALA A   2      50.318 -20.137  -5.214  0.00  0.00    +0.000 OA
ATOM    366  N   MET A   3      48.699 -19.520  -6.721  0.00  0.00    +0.000 N 
ATOM    367  H   MET A   3      48.672 -19.648  -7.903  0.00  0.00    +0.000 HD
BRANCH 364 368
ATOM    368  CA  ALA A   2      49.882 -21.820  -6.776  0.00  0.00    +0.000 C 
ATOM    369  CB  ALA A   2      48.839 -22.868  -7.193  0.00  0.00    +0.000 C 
BRANCH 368 372
ATOM    370  C   GLY A   1      52.293 -22.349  -7.427  0.00  0.00    +0.000 C 
ATOM    371  O   GLY A   1      52.219 -22.057  -8.633  0.00  0.00    +0.000 OA
ATOM    372  N   ALA A   2      51.203 -22.451  -6.616  0.00  0.00    +0.000 N 
ATOM    373  H   ALA A   2      51.218 -23.015  -5.569  0.00  0.00    +0.000 HD
BRANCH 370 374
ATOM    374  CA  GLY A   1      53.598 -22.953  -6.888  0.00  0.00    +0.000 C 
BRANCH 374 375
ATOM    375  N   GLY A   1      53.796 -24.291  -7.484  0.00  0.00    +0.000 N 
ATOM    376  H   GLY A   1      54.429 -24.303  -8.502  0.00  0.00    +0.000 HD
ATOM    377  H2  GLY A   1      52.805 -24.918  -7.725  0.00  0.00    +0.000 HD
ATOM    378  H3  GLY A   1      54.412 -25.018  -6.756  0.00  0.00    +0.000 HD
ENDBRANCH 374 375
ENDBRANCH 370 374
ENDBRANCH 368 372
ENDBRANCH 364 368
ENDBRANCH 363 366
BRANCH 363 379
ATOM    379  CB  MET A   3      48.717 -17.145  -6.456  0.00  0.00    +0.000 C 
BRANCH 379 380
ATOM    380  CG  MET A   3      49.268 -16.599  -5.147  0.00  0.00    +0.000 C 
BRANCH 380 381
ATOM    381  SD  MET A   3      50.725 -17.517  -4.602  0.00  0.00    +0.000 S 
ATOM    382  CE  MET A   3      50.115 -18.143  -3.023  0.00  0.00    +0.000 C 
ENDBRANCH 380 381
ENDBRANCH 379 380
ENDBRANCH 363 379
ENDBRANCH 359 363
ENDBRANCH 358 361
ENDBRANCH 351 358
ENDBRANCH 347 357
ENDBRANCH 346 349
BRANCH 346 383
ATOM    383  CB  SER A   6      35.652 -15.280  -3.523  0.00  0.00    +0.000 C 
BRANCH 383 384
ATOM    384  OG  SER A   6      36.051 -14.936  -2.204  0.00  0.00    +0.000 OA
ATOM    385  HG  SER A   6      36.652 -13.917  -2.204  0.00  0.00    +0.000 HD
ENDBRANCH 383 384
ENDBRANCH 346 383
ENDBRANCH 342 346
ENDBRANCH 341 344
BRANCH 341 386
ATOM    386  CB  GLU A   7      31.988 -13.156  -2.486  0.00  0.00    +0.000 C 
BRANCH 386 387
ATOM    387  CG  GLU A   7      33.078 -12.625  -1.539  0.00  0.00    +0.000 C 
BRANCH 387 388
ATOM    388  CD  GLU A   7      33.727 -11.219  -1.644  0.00  0.00    +0.000 C 
ATOM    389  OE1 GLU A   7      34.205 -10.773  -2.715  0.00  0.00    +0.000 OA
ATOM    390  OE2 GLU A   7      34.413 -11.063  -0.619  0.00  0.00    +0.000 OA
ENDBRANCH 387 388
ENDBRANCH 386 387
ENDBRANCH 341 386
ENDBRANCH 337 341
ENDBRANCH 336 339
BRANCH 336 391
ATOM    391  CB  ILE A   8      28.489  -9.391  -2.541  0.00  0.00    +0.000 C 
ATOM    392  CG2 ILE A   8      28.174  -7.907  -2.309  0.00  0.00    +0.000 C 
BRANCH 391 393
ATOM    393  CG1 ILE A   8      28.592  -9.993  -1.117  0.00  0.00    +0.000 C 
ATOM    394  CD1 ILE A   8      28.719 -11.530  -1.087  0.00  0.00    +0.000 C 
ENDBRANCH 391 393
ENDBRANCH 336 391
ENDBRANCH 332 336
ENDBRANCH 331 334
BRANCH 331 395
ATOM    395  CB  GLU A   9      23.706  -8.106  -2.161  0.00  0.00    +0.000 C 
BRANCH 395 396
ATOM    396  CG  GLU A   9      24.731  -7.327  -3.038  0.00  0.00    +0.000 C 
BRANCH 396 397
ATOM    397  CD  GLU A   9      25.901  -6.594  -2.339  0.00  0.00    +0.000 C 
ATOM    398  OE1 GLU A   9      26.224  -5.462  -2.777  0.00  0.00    +0.000 OA
ATOM    399  OE2 GLU A   9      26.735  -7.310  -1.744  0.00  0.00    +0.000 OA
ENDBRANCH 396 397
ENDBRANCH 395 396
ENDBRANCH 331 395
ENDBRANCH 327 331
ENDBRANCH 326 329
BRANCH 326 400
ATOM    400  CB  GLN A  10      18.800  -6.587  -1.484  0.00  0.00    +0.000 C 
BRANCH 400 401
ATOM    401  CG  GLN A  10      20.289  -6.311  -1.091  0.00  0.00    +0.000 C 
BRANCH 401 402
ATOM    402  CD  GLN A  10      20.855  -4.864  -1.070  0.00  0.00    +0.000 C 
ATOM    403  OE1 GLN A  10      20.269  -3.972  -1.695  0.00  0.00    +0.000 OA
ATOM    404  NE2 GLN A  10      22.132  -4.684  -0.660  0.00  0.00    +0.000 N 
ATOM    405 HE21 GLN A  10      23.078  -5.180  -0.138  0.00  0.00    +0.000 HD
ATOM    406 HE22 GLN A  10      22.257  -3.538  -0.352  0.00  0.00    +0.000 HD
ENDBRANCH 401 402
ENDBRANCH 400 401
ENDBRANCH 326 400
ENDBRANCH 322 326
ENDBRANCH 321 324
ENDBRANCH 317 321
ENDBRANCH 316 319
BRANCH 316 407
ATOM    407  CB  PHE A  12      12.469  -4.446  -1.014  0.00  0.00    +0.000 C 
BRANCH 407 408
ATOM    408  CG  PHE A  12      13.165  -3.533  -0.045  0.00  0.00    +0.000 A 
ATOM    409  CD1 PHE A  12      13.437  -3.948   1.247  0.00  0.00    +0.000 A 
ATOM    410  CD2 PHE A  12      13.540  -2.256  -0.429  0.00  0.00    +0.000 A 
ATOM    411  CE1 PHE A  12      14.073  -3.107   2.139  0.00  0.00    +0.000 A 
ATOM    412  CE2 PHE A  12      14.177  -1.411   0.459  0.00  0.00    +0.000 A 
ATOM    413  CZ  PHE A  12      14.444  -1.837   1.745  0.00  0.00    +0.000 A 
ENDBRANCH 407 408
ENDBRANCH 316 407
ENDBRANCH 312 316
ENDBRANCH 311 314
BRANCH 311 414
ATOM    414  CB  LEU A  13       7.320  -2.656   0.695  0.00  0.00    +0.000 C 
BRANCH 414 415
ATOM    415  CG  LEU A  13       6.516  -3.845   1.248  0.00  0.00    +0.000 C 
ATOM    416  CD1 LEU A  13       5.076  -3.751   0.776  0.00  0.00    +0.000 C 
ATOM    417  CD2 LEU A  13       7.105  -5.180   0.816  0.00  0.00    +0.000 C 
ENDBRANCH 414 415
ENDBRANCH 311 414
ENDBRANCH 304 311
ENDBRANCH 300 307
ENDBRANCH 299 302
BRANCH 299 418
ATOM    418  CB  LYS A  15       8.614  -2.743   8.951  0.00  0.00    +0.000 C 
BRANCH 418 419
ATOM    419  CG  LYS A  15       8.293  -3.782  10.013  0.00  0.00    +0.000 C 
BRANCH 419 420
ATOM    420  CD  LYS A  15       8.615  -5.190   9.538  0.00  0.00    +0.000 C 
BRANCH 420 421
ATOM    421  CE  LYS A  15       8.585  -6.185  10.687  0.00  0.00    +0.000 C 
BRANCH 421 422
ATOM    422  NZ  LYS A  15       9.556  -5.823  11.756  0.00  0.00    +0.000 N 
ATOM    423  HZ1 LYS A  15       9.708  -6.633  12.397  0.00  0.00    +0.000 HD
ATOM    424  HZ2 LYS A  15       9.196  -5.022  12.315  0.00  0.00    +0.000 HD
ATOM    425  HZ3 LYS A  15      10.473  -5.553  11.336  0.00  0.00    +0.000 HD
ENDBRANCH 421 422
ENDBRANCH 420 421
ENDBRANCH 419 420
ENDBRANCH 418 419
ENDBRANCH 299 418
ENDBRANCH 295 299
ENDBRANCH 294 297
ENDBRANCH 290 294
ENDBRANCH 289 292
BRANCH 289 426
ATOM    426  CB  TRP A  17       3.693  -1.672   3.579  0.00  0.00    +0.000 C 
BRANCH 426 427
ATOM    427  CG  TRP A  17       3.481  -0.304   4.147  0.00  0.00    +0.000 A 
ATOM    428  CD1 TRP A  17       4.213   0.275   5.138  0.00  0.00    +0.000 A 
ATOM    429  CD2 TRP A  17       2.483   0.662   3.763  0.00  0.00    +0.000 A 
ATOM    430  NE1 TRP A  17       3.753   1.540   5.392  0.00  0.00    +0.000 N 
ATOM    431  CE2 TRP A  17       2.695   1.805   4.563  0.00  0.00    +0.000 A 
ATOM    432  CE3 TRP A  17       1.433   0.688   2.824  0.00  0.00    +0.000 A 
ATOM    433  CZ2 TRP A  17       1.912   2.949   4.453  0.00  0.00    +0.000 A 
ATOM    434  CZ3 TRP A  17       0.664   1.825   2.724  0.00  0.00    +0.000 A 
ATOM    435  CH2 TRP A  17       0.908   2.943   3.529  0.00  0.00    +0.000 A 
ATOM    436  HE1 TRP A  17       4.123   2.154   6.060  0.00  0.00    +0.000 HD
ENDBRANCH 426 427
ENDBRANCH 289 426
ENDBRANCH 285 289
ENDBRANCH 284 287
BRANCH 284 437
ATOM    437  CB  GLU A  18       0.283  -6.097   2.641  0.00  0.00    +0.000 C 
BRANCH 437 438
ATOM    438  CG  GLU A  18      -0.105  -7.354   1.894  0.00  0.00    +0.000 C 
BRANCH 438 439
ATOM    439  CD  GLU A  18      -1.597  -7.455   1.661  0.00  0.00    +0.000 C 
ATOM    440  OE1 GLU A  18      -2.367  -7.369   2.639  0.00  0.00    +0.000 OA
ATOM    441  OE2 GLU A  18      -2.007  -7.611   0.495  0.00  0.00    +0.000 OA
ENDBRANCH 438 439
ENDBRANCH 437 438
ENDBRANCH 284 437
ENDBRANCH 280 284
ENDBRANCH 279 282
BRANCH 279 442
ATOM    442  CB  VAL A  19       3.389  -5.745  -2.253  0.00  0.00    +0.000 C 
ATOM    443  CG1 VAL A  19       3.873  -7.181  -2.403  0.00  0.00    +0.000 C 
ATOM    444  CG2 VAL A  19       3.291  -5.066  -3.613  0.00  0.00    +0.000 C 
ENDBRANCH 279 442
ENDBRANCH 275 279
ENDBRANCH 274 277
BRANCH 274 445
ATOM    445  CB  ARG A  20      -2.423  -6.513  -2.508  0.00  0.00    +0.000 C 
BRANCH 445 446
ATOM    446  CG  ARG A  20      -3.533  -7.494  -2.850  0.00  0.00    +0.000 C 
BRANCH 446 447
ATOM    447  CD  ARG A  20      -4.755  -7.272  -1.971  0.00  0.00    +0.000 C 
BRANCH 447 448
ATOM    448  NE  ARG A  20      -4.430  -7.346  -0.547  0.00  0.00    +0.000 N 
ATOM    449  CZ  ARG A  20      -5.335  -7.353   0.428  0.00  0.00    +0.000 C 
ATOM    450  NH1 ARG A  20      -6.631  -7.299   0.141  0.00  0.00    +0.000 N 
ATOM    451  NH2 ARG A  20      -4.945  -7.415   1.693  0.00  0.00    +0.000 N 
ATOM    452  HE  ARG A  20      -3.467  -7.393  -0.300  0.00  0.00    +0.000 HD
ATOM    453 HH11 ARG A  20      -6.935  -7.250  -0.811  0.00  0.00    +0.000 HD
ATOM    454 HH12 ARG A  20      -7.314  -7.306   0.880  0.00  0.00    +0.000 HD
ATOM    455 HH21 ARG A  20      -3.957  -7.453   1.921  0.00  0.00    +0.000 HD
ATOM    456 HH22 ARG A  20      -5.634  -7.424   2.435  0.00  0.00    +0.000 HD
ENDBRANCH 447 448
ENDBRANCH 446 447
ENDBRANCH 445 446
ENDBRANCH 274 445
ENDBRANCH 270 274
ENDBRANCH 269 272
BRANCH 269 457
ATOM    457  CB  HIS A  21      -0.787  -7.933  -7.908  0.00  0.00    +0.000 C 
BRANCH 457 458
ATOM    458  CG  HIS A  21      -0.204  -7.351  -9.155  0.00  0.00    +0.000 C 
ATOM    459  ND1 HIS A  21      -0.803  -7.446 -10.391  0.00  0.00    +0.000 N 
ATOM    460  CD2 HIS A  21       0.930  -6.635  -9.340  0.00  0.00    +0.000 C 
ATOM    461  CE1 HIS A  21      -0.065  -6.810 -11.284  0.00  0.00    +0.000 C 
ATOM    462  NE2 HIS A  21       0.990  -6.310 -10.671  0.00  0.00    +0.000 N 
ATOM    463  HD1 HIS A  21      -1.645  -7.928 -10.588  0.00  0.00    +0.000 HD
ATOM    464  HE2 HIS A  21       1.726  -5.811 -11.110  0.00  0.00    +0.000 HD
ENDBRANCH 457 458
ENDBRANCH 269 457
ENDBRANCH 265 269
ENDBRANCH 263 267
ENDBRANCH 256 263
ENDBRANCH 252 259
ENDBRANCH 251 254
BRANCH 251 465
ATOM    465  CB  ASN A  24      -5.078  -1.092 -11.091  0.00  0.00    +0.000 C 
BRANCH 465 466
ATOM    466  CG  ASN A  24      -6.424  -0.624 -10.567  0.00  0.00    +0.000 C 
ATOM    467  OD1 ASN A  24      -7.399  -1.375 -10.550  0.00  0.00    +0.000 OA
ATOM    468  ND2 ASN A  24      -6.484   0.628 -10.142  0.00  0.00    +0.000 N 
ATOM    469 HD21 ASN A  24      -5.671   1.172 -10.191  0.00  0.00    +0.000 HD
ATOM    470 HD22 ASN A  24      -7.340   0.961  -9.794  0.00  0.00    +0.000 HD
ENDBRANCH 465 466
ENDBRANCH 251 465
ENDBRANCH 247 251
ENDBRANCH 246 249
ENDBRANCH 242 246
ENDBRANCH   1 244
BRANCH   1 471
ATOM    471  CB  ARG A  26      -1.546  -0.879 -10.148  0.00  0.00    +0.000 C 
BRANCH 471 472
ATOM    472  CG  ARG A  26      -0.868   0.054  -9.172  0.00  0.00    +0.000 C 
BRANCH 472 473
ATOM    473  CD  ARG A  26       0.428   0.571  -9.758  0.00  0.00    +0.000 C 
BRANCH 473 474
ATOM    474  NE  ARG A  26       1.104   1.519  -8.884  0.00  0.00    +0.000 N 
ATOM    475  CZ  ARG A  26       2.229   2.149  -9.234  0.00  0.00    +0.000 C 
ATOM    476  NH1 ARG A  26       2.749   1.941 -10.440  0.00  0.00    +0.000 N 
ATOM    477  NH2 ARG A  26       2.830   2.983  -8.396  0.00  0.00    +0.000 N 
ATOM    478  HE  ARG A  26       0.704   1.685  -7.994  0.00  0.00    +0.000 HD
ATOM    479 HH11 ARG A  26       2.297   1.320 -11.082  0.00  0.00    +0.000 HD
ATOM    480 HH12 ARG A  26       3.610   2.390 -10.706  0.00  0.00    +0.000 HD
ATOM    481 HH21 ARG A  26       2.448   3.145  -7.477  0.00  0.00    +0.000 HD
ATOM    482 HH22 ARG A  26       3.673   3.465  -8.676  0.00  0.00    +0.000 HD
ENDBRANCH 473 474
ENDBRANCH 472 473
ENDBRANCH 471 472
ENDBRANCH   1 471
TORSDOF 183
REMARK  Name = /Users/acegid/Desktop/Smoking_Research/Docking/Docking_All_PDB/All_PDB/2KQ0_H.pdb
REMARK  250 active torsions:
REMARK  status: ('A' for Active; 'I' for Inactive)
REMARK    1  A    between atoms: N_1  and  CA_5
REMARK    2  A    between atoms: CA_5  and  C_8
REMARK    3  A    between atoms: N_10  and  CA_12
REMARK    4  A    between atoms: CA_12  and  CB_14
REMARK    5  A    between atoms: CA_12  and  C_18
REMARK    6  A    between atoms: N_20  and  CA_22
REMARK    7  A    between atoms: CA_22  and  CB_24
REMARK    8  A    between atoms: CA_22  and  C_35
REMARK    9  A    between atoms: CB_24  and  CG_27
REMARK   10  A    between atoms: CG_27  and  SD_30
REMARK   11  A    between atoms: SD_30  and  CE_31
REMARK   12  A    between atoms: N_37  and  CA_39
REMARK   13  A    between atoms: CA_39  and  C_42
REMARK   14  A    between atoms: CA_54  and  C_56
REMARK   15  A    between atoms: N_58  and  CA_60
REMARK   16  A    between atoms: CA_60  and  CB_62
REMARK   17  A    between atoms: CA_60  and  C_67
REMARK   18  A    between atoms: CB_62  and  OG_65
REMARK   19  A    between atoms: N_69  and  CA_71
REMARK   20  A    between atoms: CA_71  and  CB_73
REMARK   21  A    between atoms: CA_71  and  C_82
REMARK   22  A    between atoms: CB_73  and  CG_76
REMARK   23  A    between atoms: CG_76  and  CD_79
REMARK   24  A    between atoms: N_84  and  CA_86
REMARK   25  A    between atoms: CA_86  and  CB_88
REMARK   26  A    between atoms: CA_86  and  C_101
REMARK   27  A    between atoms: CB_88  and  CG2_90
REMARK   28  A    between atoms: CB_88  and  CG1_94
REMARK   29  A    between atoms: CG1_94  and  CD1_97
REMARK   30  A    between atoms: N_103  and  CA_105
REMARK   31  A    between atoms: CA_105  and  CB_107
REMARK   32  A    between atoms: CA_105  and  C_116
REMARK   33  A    between atoms: CB_107  and  CG_110
REMARK   34  A    between atoms: CG_110  and  CD_113
REMARK   35  A    between atoms: N_118  and  CA_120
REMARK   36  A    between atoms: CA_120  and  CB_122
REMARK   37  A    between atoms: CA_120  and  C_133
REMARK   38  A    between atoms: CB_122  and  CG_125
REMARK   39  A    between atoms: CG_125  and  CD_128
REMARK   40  A    between atoms: N_135  and  CA_137
REMARK   41  A    between atoms: CA_137  and  C_140
REMARK   42  A    between atoms: N_142  and  CA_143
REMARK   43  A    between atoms: CA_143  and  C_144
REMARK   44  A    between atoms: CA_143  and  CB_146
REMARK   45  A    between atoms: CB_146  and  CG_147
REMARK   46  A    between atoms: N_162  and  CA_163
REMARK   47  A    between atoms: CA_163  and  C_164
REMARK   48  A    between atoms: CA_163  and  CB_166
REMARK   49  A    between atoms: CB_166  and  CG_167
REMARK   50  A    between atoms: CG_167  and  CD1_168
REMARK   51  A    between atoms: CG_167  and  CD2_169
REMARK   52  A    between atoms: CA_182  and  C_183
REMARK   53  A    between atoms: N_195  and  CA_196
REMARK   54  A    between atoms: CA_196  and  C_197
REMARK   55  A    between atoms: CA_196  and  CB_199
REMARK   56  A    between atoms: CB_199  and  CG_200
REMARK   57  A    between atoms: CG_200  and  CD_201
REMARK   58  A    between atoms: CD_201  and  CE_202
REMARK   59  A    between atoms: CE_202  and  NZ_203
REMARK   60  A    between atoms: N_217  and  CA_218
REMARK   61  A    between atoms: CA_218  and  C_219
REMARK   62  A    between atoms: N_224  and  CA_225
REMARK   63  A    between atoms: CA_225  and  C_226
REMARK   64  A    between atoms: CA_225  and  CB_228
REMARK   65  A    between atoms: CB_228  and  CG_229
REMARK   66  A    between atoms: N_248  and  CA_249
REMARK   67  A    between atoms: CA_249  and  C_250
REMARK   68  A    between atoms: CA_249  and  CB_252
REMARK   69  A    between atoms: CB_252  and  CG_253
REMARK   70  A    between atoms: CG_253  and  CD_254
REMARK   71  A    between atoms: N_263  and  CA_264
REMARK   72  A    between atoms: CA_264  and  C_265
REMARK   73  A    between atoms: CA_264  and  CB_267
REMARK   74  A    between atoms: CB_267  and  CG1_268
REMARK   75  A    between atoms: CB_267  and  CG2_269
REMARK   76  A    between atoms: N_279  and  CA_280
REMARK   77  A    between atoms: CA_280  and  C_281
REMARK   78  A    between atoms: CA_280  and  CB_283
REMARK   79  A    between atoms: CB_283  and  CG_284
REMARK   80  A    between atoms: CG_284  and  CD_285
REMARK   81  A    between atoms: CD_285  and  NE_286
REMARK   82  A    between atoms: N_303  and  CA_304
REMARK   83  A    between atoms: CA_304  and  C_305
REMARK   84  A    between atoms: CA_304  and  CB_307
REMARK   85  A    between atoms: CB_307  and  CG_308
REMARK   86  A    between atoms: N_321  and  CA_322
REMARK   87  A    between atoms: CA_322  and  C_323
REMARK   88  A    between atoms: CA_322  and  CB_325
REMARK   89  A    between atoms: CA_332  and  C_333
REMARK   90  A    between atoms: N_345  and  CA_346
REMARK   91  A    between atoms: CA_346  and  C_347
REMARK   92  A    between atoms: CA_346  and  CB_349
REMARK   93  A    between atoms: CB_349  and  CG_350
REMARK   94  A    between atoms: N_359  and  CA_360
REMARK   95  A    between atoms: CA_360  and  C_361
REMARK   96  A    between atoms: N_366  and  CA_367
REMARK   97  A    between atoms: CA_367  and  C_368
REMARK   98  A    between atoms: CA_367  and  CB_370
REMARK   99  A    between atoms: CB_370  and  CG_371
REMARK  100  A    between atoms: CG_371  and  CD_372
REMARK  101  A    between atoms: CD_372  and  NE_373
REMARK  102  A    between atoms: CA_391  and  C_392
REMARK  103  A    between atoms: N_404  and  CA_405
REMARK  104  A    between atoms: CA_405  and  C_406
REMARK  105  A    between atoms: CA_405  and  CB_408
REMARK  106  A    between atoms: CB_408  and  CG_409
REMARK  107  A    between atoms: N_424  and  CA_425
REMARK  108  A    between atoms: CA_425  and  C_426
REMARK  109  A    between atoms: CA_425  and  CB_428
REMARK  110  A    between atoms: CB_428  and  CG_429
REMARK  111  A    between atoms: N_444  and  CA_445
REMARK  112  A    between atoms: CA_445  and  C_446
REMARK  113  A    between atoms: CA_445  and  CB_448
REMARK  114  A    between atoms: CB_448  and  CG1_449
REMARK  115  A    between atoms: CB_448  and  CG2_450
REMARK  116  A    between atoms: CG1_449  and  CD1_451
REMARK  117  A    between atoms: N_463  and  CA_464
REMARK  118  A    between atoms: CA_464  and  C_465
REMARK  119  A    between atoms: CA_464  and  CB_467
REMARK  120  A    between atoms: CB_467  and  CG_468
REMARK  121  A    between atoms: N_475  and  CA_476
REMARK  122  A    between atoms: CA_476  and  C_477
REMARK  123  A    between atoms: CA_476  and  CB_479
REMARK  124  A    between atoms: CB_479  and  CG_480
REMARK  125  A    between atoms: N_493  and  CA_494
REMARK  126  A    between atoms: CA_494  and  C_495
REMARK  127  A    between atoms: CA_494  and  CB_497
REMARK  128  A    between atoms: CB_497  and  CG_498
REMARK  129  A    between atoms: N_507  and  CA_508
REMARK  130  A    between atoms: CA_508  and  C_509
REMARK  131  A    between atoms: CA_508  and  CB_511
REMARK  132  A    between atoms: CB_511  and  OG1_512
REMARK  133  A    between atoms: CB_511  and  CG2_513
REMARK  134  A    between atoms: N_521  and  CA_522
REMARK  135  A    between atoms: CA_522  and  C_523
REMARK  136  A    between atoms: CA_522  and  CB_525
REMARK  137  A    between atoms: CB_525  and  CG_526
REMARK  138  A    between atoms: CG_526  and  CD_527
REMARK  139  A    between atoms: CD_527  and  CE_528
REMARK  140  A    between atoms: CE_528  and  NZ_529
REMARK  141  A    between atoms: N_543  and  CA_544
REMARK  142  A    between atoms: CA_544  and  C_545
REMARK  143  A    between atoms: CA_544  and  CB_547
REMARK  144  A    between atoms: CB_547  and  OG1_548
REMARK  145  A    between atoms: CB_547  and  CG2_549
REMARK  146  A    between atoms: N_557  and  CA_558
REMARK  147  A    between atoms: CA_558  and  C_559
REMARK  148  A    between atoms: CA_558  and  CB_561
REMARK  149  A    between atoms: CB_561  and  OG1_562
REMARK  150  A    between atoms: CB_561  and  CG2_563
REMARK  151  A    between atoms: N_571  and  CA_572
REMARK  152  A    between atoms: CA_572  and  C_573
REMARK  153  A    between atoms: CA_572  and  CB_575
REMARK  154  A    between atoms: CB_575  and  OG1_576
REMARK  155  A    between atoms: CB_575  and  CG2_577
REMARK  156  A    between atoms: N_585  and  CA_586
REMARK  157  A    between atoms: CA_586  and  C_587
REMARK  158  A    between atoms: CA_586  and  CB_589
REMARK  159  A    between atoms: CB_589  and  CG_590
REMARK  160  A    between atoms: N_609  and  CA_610
REMARK  161  A    between atoms: CA_610  and  C_611
REMARK  162  A    between atoms: CA_610  and  CB_613
REMARK  163  A    between atoms: CB_613  and  CG_614
REMARK  164  A    between atoms: CG_614  and  CD_615
REMARK  165  A    between atoms: N_624  and  CA_625
REMARK  166  A    between atoms: CA_625  and  C_626
REMARK  167  A    between atoms: CA_625  and  CB_628
REMARK  168  A    between atoms: CB_628  and  CG_629
REMARK  169  A    between atoms: CA_637  and  C_638
REMARK  170  A    between atoms: N_650  and  CA_651
REMARK  171  A    between atoms: CA_651  and  C_652
REMARK  172  A    between atoms: CA_651  and  CB_654
REMARK  173  A    between atoms: CB_654  and  CG_655
REMARK  174  A    between atoms: CG_655  and  CD_656
REMARK  175  A    between atoms: CD_656  and  NE_657
REMARK  176  A    between atoms: N_674  and  CA_675
REMARK  177  A    between atoms: CA_675  and  C_676
REMARK  178  A    between atoms: CA_675  and  CB_678
REMARK  179  A    between atoms: CB_678  and  CG_679
REMARK  180  A    between atoms: CG_679  and  CD1_680
REMARK  181  A    between atoms: CG_679  and  CD2_681
REMARK  182  A    between atoms: N_693  and  CA_694
REMARK  183  A    between atoms: CA_694  and  C_695
REMARK  184  A    between atoms: CA_694  and  CB_697
REMARK  185  A    between atoms: CB_697  and  CG_698
REMARK  186  A    between atoms: CG_698  and  CD_699
REMARK  187  A    between atoms: CD_699  and  CE_700
REMARK  188  A    between atoms: CE_700  and  NZ_701
REMARK  189  A    between atoms: N_715  and  CA_716
REMARK  190  A    between atoms: CA_716  and  C_717
REMARK  191  A    between atoms: CA_716  and  CB_719
REMARK  192  A    between atoms: CB_719  and  CG1_720
REMARK  193  A    between atoms: CB_719  and  CG2_721
REMARK  194  A    between atoms: CG1_720  and  CD1_722
REMARK  195  A    between atoms: CA_744  and  C_746
REMARK  196  A    between atoms: N_748  and  CA_750
REMARK  197  A    between atoms: CA_750  and  CB_752
REMARK  198  A    between atoms: CA_750  and  C_756
REMARK  199  A    between atoms: C_756  and  N_758
REMARK  200  A    between atoms: N_758  and  CA_760
REMARK  201  A    between atoms: CA_760  and  CB_762
REMARK  202  A    between atoms: CA_760  and  C_773
REMARK  203  A    between atoms: CB_762  and  CG_765
REMARK  204  A    between atoms: N_776  and  CA_780
REMARK  205  A    between atoms: CA_780  and  CB_782
REMARK  206  A    between atoms: CA_780  and  C_795
REMARK  207  A    between atoms: CB_782  and  CG2_784
REMARK  208  A    between atoms: CB_782  and  CG1_788
REMARK  209  A    between atoms: CG1_788  and  CD1_791
REMARK  210  A    between atoms: N_797  and  CA_799
REMARK  211  A    between atoms: CA_799  and  CB_801
REMARK  212  A    between atoms: CA_799  and  C_814
REMARK  213  A    between atoms: CB_801  and  CG_804
REMARK  214  A    between atoms: CG_804  and  CD1_806
REMARK  215  A    between atoms: CG_804  and  CD2_810
REMARK  216  A    between atoms: CA_826  and  C_828
REMARK  217  A    between atoms: N_830  and  CA_831
REMARK  218  A    between atoms: CA_831  and  C_832
REMARK  219  A    between atoms: CA_831  and  CB_834
REMARK  220  A    between atoms: CB_834  and  OG1_835
REMARK  221  A    between atoms: CB_834  and  CG2_836
REMARK  222  A    between atoms: N_844  and  CA_845
REMARK  223  A    between atoms: CA_845  and  C_846
REMARK  224  A    between atoms: CA_845  and  CB_848
REMARK  225  A    between atoms: CA_855  and  C_856
REMARK  226  A    between atoms: CA_869  and  C_870
REMARK  227  A    between atoms: N_882  and  CA_883
REMARK  228  A    between atoms: CA_883  and  C_884
REMARK  229  A    between atoms: CA_883  and  CB_886
REMARK  230  A    between atoms: CB_886  and  CG_887
REMARK  231  A    between atoms: CG_887  and  CD_888
REMARK  232  A    between atoms: N_897  and  CA_898
REMARK  233  A    between atoms: CA_898  and  C_899
REMARK  234  A    between atoms: CA_898  and  CB_901
REMARK  235  A    between atoms: CB_901  and  CG_902
REMARK  236  A    between atoms: CZ_907  and  OH_908
REMARK  237  A    between atoms: N_918  and  CA_919
REMARK  238  A    between atoms: CA_919  and  C_920
REMARK  239  A    between atoms: CA_919  and  CB_922
REMARK  240  A    between atoms: CB_922  and  CG_923
REMARK  241  A    between atoms: CG_923  and  SD_924
REMARK  242  A    between atoms: SD_924  and  CE_925
REMARK  243  A    between atoms: N_935  and  CA_936
REMARK  244  A    between atoms: CA_936  and  C_937
REMARK  245  A    between atoms: CA_936  and  CB_939
REMARK  246  A    between atoms: CB_939  and  CG_940
REMARK  247  A    between atoms: CG_940  and  CD_941
REMARK  248  A    between atoms: N_950  and  CA_951
REMARK  249  A    between atoms: CA_951  and  C_952
REMARK  250  A    between atoms: CA_951  and  CB_954
REMARK                            x       y       z     vdW  Elec       q    Type
REMARK                         _______ _______ _______ _____ _____    ______ ____
ROOT
ATOM      1  C   PRO B   6      -8.698   3.888  -3.782  0.00  0.00    +0.000 C 
ATOM      2  O   PRO B   6      -9.828   4.356  -3.615  0.00  0.00    +0.000 OA
ATOM      3  N   PRO B   7      -8.363   2.672  -3.341  0.00  0.00    +0.000 N 
ATOM      4  CA  PRO B   7      -9.277   1.816  -2.589  0.00  0.00    +0.000 C 
ATOM      5  CB  PRO B   7      -8.648   0.416  -2.707  0.00  0.00    +0.000 C 
ATOM      6  CG  PRO B   7      -7.443   0.569  -3.579  0.00  0.00    +0.000 C 
ATOM      7  CD  PRO B   7      -7.068   2.020  -3.541  0.00  0.00    +0.000 C 
ENDROOT
BRANCH   1  11
ATOM      8  C   ALA B   5      -8.323   4.536  -6.875  0.00  0.00    +0.000 C 
ATOM      9  O   ALA B   5      -8.122   3.325  -6.905  0.00  0.00    +0.000 OA
ATOM     10  N   PRO B   6      -8.114   5.265  -5.767  0.00  0.00    +0.000 N 
ATOM     11  CA  PRO B   6      -7.621   4.684  -4.518  0.00  0.00    +0.000 C 
ATOM     12  CB  PRO B   6      -7.209   5.911  -3.705  0.00  0.00    +0.000 C 
ATOM     13  CG  PRO B   6      -8.104   6.997  -4.188  0.00  0.00    +0.000 C 
ATOM     14  CD  PRO B   6      -8.353   6.715  -5.646  0.00  0.00    +0.000 C 
BRANCH   8  15
ATOM     15  CA  ALA B   5      -8.816   5.285  -8.109  0.00  0.00    +0.000 C 
ATOM     16  CB  ALA B   5      -9.919   4.505  -8.817  0.00  0.00    +0.000 C 
BRANCH  15  19
ATOM     17  C   THR B   4      -7.093   4.688  -9.776  0.00  0.00    +0.000 C 
ATOM     18  O   THR B   4      -7.336   3.480  -9.720  0.00  0.00    +0.000 OA
ATOM     19  N   ALA B   5      -7.715   5.606  -9.023  0.00  0.00    +0.000 N 
ATOM     20  H   ALA B   5      -7.406   6.538  -9.067  0.00  0.00    +0.000 HD
BRANCH  17  21
ATOM     21  CA  THR B   4      -6.003   5.204 -10.716  0.00  0.00    +0.000 C 
BRANCH  21  24
ATOM     22  C   PRO B   3      -4.045   4.623 -11.668  0.00  0.00    +0.000 C 
ATOM     23  O   PRO B   3      -3.171   4.855 -10.826  0.00  0.00    +0.000 OA
ATOM     24  N   THR B   4      -5.283   4.080 -11.347  0.00  0.00    +0.000 N 
ATOM     25  H   THR B   4      -4.820   3.498 -10.625  0.00  0.00    +0.000 HD
BRANCH  22  32
ATOM     26  C   LEU B   2      -2.056   6.241 -14.682  0.00  0.00    +0.000 C 
ATOM     27  O   LEU B   2      -0.857   6.473 -14.626  0.00  0.00    +0.000 OA
ATOM     28  N   PRO B   3      -2.441   5.583 -13.587  0.00  0.00    +0.000 N 
ATOM     29  CD  PRO B   3      -1.389   4.997 -12.802  0.00  0.00    +0.000 C 
ATOM     30  CG  PRO B   3      -1.727   3.722 -13.577  0.00  0.00    +0.000 C 
ATOM     31  CB  PRO B   3      -3.268   3.624 -13.694  0.00  0.00    +0.000 C 
ATOM     32  CA  PRO B   3      -3.709   4.982 -13.150  0.00  0.00    +0.000 C 
BRANCH  26  33
ATOM     33  CA  LEU B   2      -2.840   7.042 -15.718  0.00  0.00    +0.000 C 
BRANCH  33  36
ATOM     34  C   ILE B   1      -2.222   7.519 -18.002  0.00  0.00    +0.000 C 
ATOM     35  O   ILE B   1      -2.280   8.704 -18.270  0.00  0.00    +0.000 OA
ATOM     36  N   LEU B   2      -1.799   7.192 -16.752  0.00  0.00    +0.000 N 
ATOM     37  H   LEU B   2      -0.625   7.360 -16.657  0.00  0.00    +0.000 HD
BRANCH  34  38
ATOM     38  CA  ILE B   1      -2.040   6.653 -19.285  0.00  0.00    +0.000 C 
BRANCH  38  39
ATOM     39  N   ILE B   1      -0.655   6.230 -19.517  0.00  0.00    +0.000 N 
ATOM     40  H   ILE B   1       0.298   6.936 -19.700  0.00  0.00    +0.000 HD
ATOM     41  H2  ILE B   1      -0.557   5.463 -20.436  0.00  0.00    +0.000 HD
ATOM     42  H3  ILE B   1      -0.204   5.523 -18.657  0.00  0.00    +0.000 HD
ENDBRANCH  38  39
BRANCH  38  43
ATOM     43  CB  ILE B   1      -2.709   7.229 -20.564  0.00  0.00    +0.000 C 
ATOM     44  CG2 ILE B   1      -3.391   6.291 -21.556  0.00  0.00    +0.000 C 
BRANCH  43  45
ATOM     45  CG1 ILE B   1      -2.149   8.337 -21.453  0.00  0.00    +0.000 C 
ATOM     46  CD1 ILE B   1      -1.388   9.372 -20.655  0.00  0.00    +0.000 C 
ENDBRANCH  43  45
ENDBRANCH  38  43
ENDBRANCH  34  38
ENDBRANCH  33  36
BRANCH  33  47
ATOM     47  CB  LEU B   2      -3.282   8.253 -14.860  0.00  0.00    +0.000 C 
BRANCH  47  48
ATOM     48  CG  LEU B   2      -4.004   9.233 -15.798  0.00  0.00    +0.000 C 
ATOM     49  CD1 LEU B   2      -3.412   9.663 -17.145  0.00  0.00    +0.000 C 
ATOM     50  CD2 LEU B   2      -4.391  10.528 -15.122  0.00  0.00    +0.000 C 
ENDBRANCH  47  48
ENDBRANCH  33  47
ENDBRANCH  26  33
ENDBRANCH  22  32
ENDBRANCH  21  24
BRANCH  21  51
ATOM     51  CB  THR B   4      -6.613   6.122 -11.796  0.00  0.00    +0.000 C 
ATOM     52  CG2 THR B   4      -5.538   6.975 -12.452  0.00  0.00    +0.000 C 
BRANCH  51  53
ATOM     53  OG1 THR B   4      -7.278   5.339 -12.794  0.00  0.00    +0.000 OA
ATOM     54  HG1 THR B   4      -7.898   5.903 -13.279  0.00  0.00    +0.000 HD
ENDBRANCH  51  53
ENDBRANCH  21  51
ENDBRANCH  17  21
ENDBRANCH  15  19
ENDBRANCH   8  15
ENDBRANCH   1  11
BRANCH   4  55
ATOM     55  C   PRO B   7      -9.358   2.225  -1.123  0.00  0.00    +0.000 C 
ATOM     56  O   PRO B   7      -8.337   2.497  -0.495  0.00  0.00    +0.000 OA
ATOM     57  N   GLU B   8     -10.567   2.276  -0.582  0.00  0.00    +0.000 N 
ATOM     58  H   GLU B   8     -11.357   2.137  -1.152  0.00  0.00    +0.000 HD
BRANCH  57  59
ATOM     59  CA  GLU B   8     -10.743   2.532   0.842  0.00  0.00    +0.000 C 
BRANCH  59  60
ATOM     60  C   GLU B   8     -10.151   1.367   1.615  0.00  0.00    +0.000 C 
ATOM     61  O   GLU B   8     -10.381   0.206   1.268  0.00  0.00    +0.000 OA
ATOM     62  N   TYR B   9      -9.423   1.657   2.672  0.00  0.00    +0.000 N 
ATOM     63  H   TYR B   9      -9.424   2.576   3.026  0.00  0.00    +0.000 HD
BRANCH  62  64
ATOM     64  CA  TYR B   9      -8.661   0.620   3.336  0.00  0.00    +0.000 C 
BRANCH  64  65
ATOM     65  C   TYR B   9      -9.301   0.167   4.638  0.00  0.00    +0.000 C 
ATOM     66  O   TYR B   9      -9.577   0.971   5.529  0.00  0.00    +0.000 OA
ATOM     67  N   MET B  10      -9.510  -1.136   4.738  0.00  0.00    +0.000 N 
ATOM     68  H   MET B  10      -9.442  -1.692   3.933  0.00  0.00    +0.000 HD
BRANCH  67  69
ATOM     69  CA  MET B  10      -9.844  -1.771   5.996  0.00  0.00    +0.000 C 
BRANCH  69  70
ATOM     70  C   MET B  10      -9.616  -3.264   5.874  0.00  0.00    +0.000 C 
ATOM     71  O   MET B  10     -10.479  -4.013   5.419  0.00  0.00    +0.000 OA
ATOM     72  N   GLU B  11      -8.416  -3.665   6.231  0.00  0.00    +0.000 N 
ATOM     73  H   GLU B  11      -7.802  -3.008   6.615  0.00  0.00    +0.000 HD
BRANCH  72  74
ATOM     74  CA  GLU B  11      -7.978  -5.045   6.091  0.00  0.00    +0.000 C 
BRANCH  74  75
ATOM     75  C   GLU B  11      -7.466  -5.573   7.420  0.00  0.00    +0.000 C 
ATOM     76  O   GLU B  11      -6.413  -5.151   7.905  0.00  0.00    +0.000 OA
ATOM     77  N   ALA B  12      -8.226  -6.474   8.015  0.00  0.00    +0.000 N 
ATOM     78  H   ALA B  12      -9.053  -6.767   7.578  0.00  0.00    +0.000 HD
BRANCH  77  79
ATOM     79  CA  ALA B  12      -7.863  -7.054   9.294  0.00  0.00    +0.000 C 
ATOM     80  CB  ALA B  12      -8.909  -6.718  10.348  0.00  0.00    +0.000 C 
BRANCH  79  81
ATOM     81  C   ALA B  12      -7.700  -8.559   9.155  0.00  0.00    +0.000 C 
ATOM     82  O   ALA B  12      -6.548  -9.037   9.177  0.00  0.00    +0.000 OA
ATOM     83  OXT ALA B  12      -8.722  -9.253   8.988  0.00  0.00    +0.000 OA
ENDBRANCH  79  81
ENDBRANCH  77  79
ENDBRANCH  74  75
BRANCH  74  84
ATOM     84  CB  GLU B  11      -6.877  -5.146   5.033  0.00  0.00    +0.000 C 
BRANCH  84  85
ATOM     85  CG  GLU B  11      -7.375  -5.065   3.600  0.00  0.00    +0.000 C 
BRANCH  85  86
ATOM     86  CD  GLU B  11      -7.909  -6.391   3.103  0.00  0.00    +0.000 C 
ATOM     87  OE1 GLU B  11      -7.156  -7.387   3.149  0.00  0.00    +0.000 OA
ATOM     88  OE2 GLU B  11      -9.072  -6.448   2.660  0.00  0.00    +0.000 OA
ENDBRANCH  85  86
ENDBRANCH  84  85
ENDBRANCH  74  84
ENDBRANCH  72  74
ENDBRANCH  69  70
BRANCH  69  89
ATOM     89  CB  MET B  10     -11.276  -1.470   6.421  0.00  0.00    +0.000 C 
BRANCH  89  90
ATOM     90  CG  MET B  10     -11.603  -1.965   7.817  0.00  0.00    +0.000 C 
BRANCH  90  91
ATOM     91  SD  MET B  10     -10.466  -1.311   9.054  0.00  0.00    +0.000 S 
ATOM     92  CE  MET B  10     -11.162  -2.007  10.550  0.00  0.00    +0.000 C 
ENDBRANCH  90  91
ENDBRANCH  89  90
ENDBRANCH  69  89
ENDBRANCH  67  69
ENDBRANCH  64  65
BRANCH  64  93
ATOM     93  CB  TYR B   9      -7.230   1.066   3.624  0.00  0.00    +0.000 C 
BRANCH  93  94
ATOM     94  CG  TYR B   9      -6.360  -0.093   4.045  0.00  0.00    +0.000 A 
ATOM     95  CD1 TYR B   9      -5.747  -0.890   3.098  0.00  0.00    +0.000 A 
ATOM     96  CD2 TYR B   9      -6.179  -0.408   5.384  0.00  0.00    +0.000 A 
ATOM     97  CE1 TYR B   9      -4.974  -1.967   3.470  0.00  0.00    +0.000 A 
ATOM     98  CE2 TYR B   9      -5.401  -1.484   5.762  0.00  0.00    +0.000 A 
ATOM     99  CZ  TYR B   9      -4.803  -2.259   4.798  0.00  0.00    +0.000 A 
BRANCH  99 100
ATOM    100  OH  TYR B   9      -4.026  -3.329   5.163  0.00  0.00    +0.000 OA
ATOM    101  HH  TYR B   9      -3.233  -3.346   4.617  0.00  0.00    +0.000 HD
ENDBRANCH  99 100
ENDBRANCH  93  94
ENDBRANCH  64  93
ENDBRANCH  62  64
ENDBRANCH  59  60
BRANCH  59 102
ATOM    102  CB  GLU B   8     -12.216   2.689   1.227  0.00  0.00    +0.000 C 
BRANCH 102 103
ATOM    103  CG  GLU B   8     -13.076   3.408   0.195  0.00  0.00    +0.000 C 
BRANCH 103 104
ATOM    104  CD  GLU B   8     -13.562   2.486  -0.904  0.00  0.00    +0.000 C 
ATOM    105  OE1 GLU B   8     -14.631   1.865  -0.731  0.00  0.00    +0.000 OA
ATOM    106  OE2 GLU B   8     -12.878   2.376  -1.942  0.00  0.00    +0.000 OA
ENDBRANCH 103 104
ENDBRANCH 102 103
ENDBRANCH  59 102
ENDBRANCH  57  59
ENDBRANCH   4  55
TORSDOF 39
