REMARK  Name = /Users/acegid/Desktop/Smoking_Research/Docking/Docking_All_PDB/All_PDB/2KQC_H.pdb
REMARK  372 active torsions:
REMARK  status: ('A' for Active; 'I' for Inactive)
REMARK    1  A    between atoms: N_1  and  CA_5
REMARK    2  A    between atoms: CA_5  and  C_8
REMARK    3  A    between atoms: CA_20  and  C_22
REMARK    4  A    between atoms: N_24  and  CA_26
REMARK    5  A    between atoms: CA_26  and  CB_28
REMARK    6  A    between atoms: CA_26  and  C_41
REMARK    7  A    between atoms: CB_28  and  CG_31
REMARK    8  A    between atoms: CG_31  and  CD1_33
REMARK    9  A    between atoms: CG_31  and  CD2_37
REMARK   10  A    between atoms: N_43  and  CA_45
REMARK   11  A    between atoms: CA_45  and  C_48
REMARK   12  A    between atoms: N_50  and  CA_52
REMARK   13  A    between atoms: CA_52  and  CB_54
REMARK   14  A    between atoms: CA_52  and  C_59
REMARK   15  A    between atoms: CB_54  and  OG_57
REMARK   16  A    between atoms: N_61  and  CA_63
REMARK   17  A    between atoms: CA_63  and  C_66
REMARK   18  A    between atoms: N_68  and  CA_70
REMARK   19  A    between atoms: CA_70  and  CB_72
REMARK   20  A    between atoms: CA_70  and  C_77
REMARK   21  A    between atoms: CB_72  and  OG_75
REMARK   22  A    between atoms: N_79  and  CA_81
REMARK   23  A    between atoms: CA_81  and  CB_83
REMARK   24  A    between atoms: CA_81  and  C_92
REMARK   25  A    between atoms: CB_83  and  CG_86
REMARK   26  A    between atoms: CG_86  and  CD_89
REMARK   27  A    between atoms: N_94  and  CA_96
REMARK   28  A    between atoms: CA_96  and  C_99
REMARK   29  A    between atoms: N_101  and  CA_103
REMARK   30  A    between atoms: CA_103  and  CB_105
REMARK   31  A    between atoms: CA_103  and  C_113
REMARK   32  A    between atoms: CB_105  and  CG_108
REMARK   33  A    between atoms: N_115  and  CA_117
REMARK   34  A    between atoms: CA_117  and  CB_119
REMARK   35  A    between atoms: CA_117  and  C_135
REMARK   36  A    between atoms: CB_119  and  CG_122
REMARK   37  A    between atoms: CG_122  and  CD_125
REMARK   38  A    between atoms: CD_125  and  CE_128
REMARK   39  A    between atoms: CE_128  and  NZ_131
REMARK   40  A    between atoms: N_137  and  CA_139
REMARK   41  A    between atoms: CA_139  and  CB_141
REMARK   42  A    between atoms: CA_139  and  C_151
REMARK   43  A    between atoms: CB_141  and  CG1_143
REMARK   44  A    between atoms: CB_141  and  CG2_147
REMARK   45  A    between atoms: N_153  and  CA_155
REMARK   46  A    between atoms: CA_155  and  CB_157
REMARK   47  A    between atoms: CA_155  and  C_173
REMARK   48  A    between atoms: CB_157  and  CG_160
REMARK   49  A    between atoms: CG_160  and  CD_163
REMARK   50  A    between atoms: CD_163  and  CE_166
REMARK   51  A    between atoms: CE_166  and  NZ_169
REMARK   52  A    between atoms: N_175  and  CA_177
REMARK   53  A    between atoms: CA_177  and  CB_179
REMARK   54  A    between atoms: CA_177  and  C_197
REMARK   55  A    between atoms: CB_179  and  CG_182
REMARK   56  A    between atoms: CG_182  and  CD_185
REMARK   57  A    between atoms: CD_185  and  NE_188
REMARK   58  A    between atoms: N_199  and  CA_201
REMARK   59  A    between atoms: CA_201  and  CB_203
REMARK   60  A    between atoms: CA_201  and  C_211
REMARK   61  A    between atoms: CB_203  and  CG2_205
REMARK   62  A    between atoms: CB_203  and  OG1_209
REMARK   63  A    between atoms: N_213  and  CA_215
REMARK   64  A    between atoms: CA_215  and  CB_217
REMARK   65  A    between atoms: CA_215  and  C_222
REMARK   66  A    between atoms: CB_217  and  OG_220
REMARK   67  A    between atoms: N_224  and  CA_226
REMARK   68  A    between atoms: CA_226  and  CB_228
REMARK   69  A    between atoms: CA_226  and  C_233
REMARK   70  A    between atoms: CB_228  and  SG_231
REMARK   71  A    between atoms: N_235  and  CA_237
REMARK   72  A    between atoms: CA_237  and  CB_239
REMARK   73  A    between atoms: CA_237  and  C_250
REMARK   74  A    between atoms: CB_239  and  CG_242
REMARK   75  A    between atoms: CG_242  and  SD_245
REMARK   76  A    between atoms: SD_245  and  CE_246
REMARK   77  A    between atoms: N_252  and  CA_254
REMARK   78  A    between atoms: CA_254  and  CB_256
REMARK   79  A    between atoms: CA_254  and  C_271
REMARK   80  A    between atoms: CB_256  and  CG_259
REMARK   81  A    between atoms: CZ_264  and  OH_265
REMARK   82  A    between atoms: N_273  and  CA_275
REMARK   83  A    between atoms: CA_275  and  C_278
REMARK   84  A    between atoms: N_280  and  CA_282
REMARK   85  A    between atoms: CA_282  and  CB_284
REMARK   86  A    between atoms: CA_282  and  C_288
REMARK   87  A    between atoms: N_290  and  CA_292
REMARK   88  A    between atoms: CA_292  and  CB_294
REMARK   89  A    between atoms: CA_292  and  C_302
REMARK   90  A    between atoms: CB_294  and  CG_297
REMARK   91  A    between atoms: N_304  and  CA_306
REMARK   92  A    between atoms: CA_306  and  CB_308
REMARK   93  A    between atoms: CA_306  and  C_313
REMARK   94  A    between atoms: CB_308  and  SG_311
REMARK   95  A    between atoms: N_315  and  CA_317
REMARK   96  A    between atoms: CA_317  and  CB_319
REMARK   97  A    between atoms: CA_317  and  C_334
REMARK   98  A    between atoms: CB_319  and  CG_322
REMARK   99  A    between atoms: CZ_327  and  OH_328
REMARK  100  A    between atoms: N_336  and  CA_338
REMARK  101  A    between atoms: CA_338  and  CB_340
REMARK  102  A    between atoms: CA_338  and  C_358
REMARK  103  A    between atoms: CB_340  and  CG_343
REMARK  104  A    between atoms: CG_343  and  CD_346
REMARK  105  A    between atoms: CD_346  and  NE_349
REMARK  106  A    between atoms: N_360  and  CA_362
REMARK  107  A    between atoms: CA_362  and  CB_364
REMARK  108  A    between atoms: CA_362  and  C_380
REMARK  109  A    between atoms: CB_364  and  CG_367
REMARK  110  A    between atoms: CG_367  and  CD_370
REMARK  111  A    between atoms: CD_370  and  CE_373
REMARK  112  A    between atoms: CE_373  and  NZ_376
REMARK  113  A    between atoms: N_382  and  CA_384
REMARK  114  A    between atoms: CA_384  and  CB_386
REMARK  115  A    between atoms: CA_384  and  C_394
REMARK  116  A    between atoms: CB_386  and  CG_389
REMARK  117  A    between atoms: CA_406  and  C_408
REMARK  118  A    between atoms: N_410  and  CA_412
REMARK  119  A    between atoms: CA_412  and  CB_414
REMARK  120  A    between atoms: CA_412  and  C_424
REMARK  121  A    between atoms: CB_414  and  CG1_416
REMARK  122  A    between atoms: CB_414  and  CG2_420
REMARK  123  A    between atoms: N_426  and  CA_428
REMARK  124  A    between atoms: CA_428  and  CB_430
REMARK  125  A    between atoms: CA_428  and  C_441
REMARK  126  A    between atoms: CB_430  and  CG_433
REMARK  127  A    between atoms: N_443  and  CA_445
REMARK  128  A    between atoms: CA_445  and  CB_447
REMARK  129  A    between atoms: CA_445  and  C_461
REMARK  130  A    between atoms: CB_447  and  CG_450
REMARK  131  A    between atoms: N_463  and  CA_465
REMARK  132  A    between atoms: CA_465  and  CB_467
REMARK  133  A    between atoms: CA_465  and  C_478
REMARK  134  A    between atoms: CB_467  and  CG_470
REMARK  135  A    between atoms: CG_470  and  CD_473
REMARK  136  A    between atoms: N_480  and  CA_482
REMARK  137  A    between atoms: CA_482  and  CB_484
REMARK  138  A    between atoms: CA_482  and  C_495
REMARK  139  A    between atoms: CB_484  and  CG_487
REMARK  140  A    between atoms: N_497  and  CA_499
REMARK  141  A    between atoms: CA_499  and  CB_501
REMARK  142  A    between atoms: CA_499  and  C_515
REMARK  143  A    between atoms: CB_501  and  CG_504
REMARK  144  A    between atoms: N_517  and  CA_519
REMARK  145  A    between atoms: CA_519  and  CB_521
REMARK  146  A    between atoms: CA_519  and  C_526
REMARK  147  A    between atoms: CB_521  and  OG_524
REMARK  148  A    between atoms: N_528  and  CA_530
REMARK  149  A    between atoms: CA_530  and  CB_532
REMARK  150  A    between atoms: CA_530  and  C_543
REMARK  151  A    between atoms: CB_532  and  CG_535
REMARK  152  A    between atoms: CA_555  and  C_557
REMARK  153  A    between atoms: N_559  and  CA_561
REMARK  154  A    between atoms: CA_561  and  C_564
REMARK  155  A    between atoms: N_566  and  CA_568
REMARK  156  A    between atoms: CA_568  and  CB_570
REMARK  157  A    between atoms: CA_568  and  C_576
REMARK  158  A    between atoms: CB_570  and  CG_573
REMARK  159  A    between atoms: N_578  and  CA_580
REMARK  160  A    between atoms: CA_580  and  CB_582
REMARK  161  A    between atoms: CA_580  and  C_587
REMARK  162  A    between atoms: CB_582  and  OG_585
REMARK  163  A    between atoms: N_589  and  CA_591
REMARK  164  A    between atoms: CA_591  and  CB_593
REMARK  165  A    between atoms: CA_591  and  C_599
REMARK  166  A    between atoms: CB_593  and  CG_596
REMARK  167  A    between atoms: CA_603  and  CB_605
REMARK  168  A    between atoms: CB_605  and  CG_608
REMARK  169  A    between atoms: CZ_613  and  OH_614
REMARK  170  A    between atoms: N_622  and  CA_623
REMARK  171  A    between atoms: CA_623  and  C_624
REMARK  172  A    between atoms: N_629  and  CA_630
REMARK  173  A    between atoms: CA_630  and  C_631
REMARK  174  A    between atoms: N_636  and  CA_637
REMARK  175  A    between atoms: CA_637  and  C_638
REMARK  176  A    between atoms: CA_637  and  CB_640
REMARK  177  A    between atoms: CB_640  and  CG1_641
REMARK  178  A    between atoms: CB_640  and  CG2_642
REMARK  179  A    between atoms: N_652  and  CA_653
REMARK  180  A    between atoms: CA_653  and  C_654
REMARK  181  A    between atoms: CA_653  and  CB_656
REMARK  182  A    between atoms: CB_656  and  CG_657
REMARK  183  A    between atoms: CG_657  and  CD_658
REMARK  184  A    between atoms: N_669  and  CA_670
REMARK  185  A    between atoms: CA_670  and  C_671
REMARK  186  A    between atoms: CA_670  and  CB_673
REMARK  187  A    between atoms: CB_673  and  CG1_674
REMARK  188  A    between atoms: CB_673  and  CG2_675
REMARK  189  A    between atoms: CG1_674  and  CD1_676
REMARK  190  A    between atoms: N_688  and  CA_689
REMARK  191  A    between atoms: CA_689  and  C_690
REMARK  192  A    between atoms: CA_689  and  CB_692
REMARK  193  A    between atoms: CB_692  and  CG1_693
REMARK  194  A    between atoms: CB_692  and  CG2_694
REMARK  195  A    between atoms: N_704  and  CA_705
REMARK  196  A    between atoms: CA_705  and  C_706
REMARK  197  A    between atoms: N_711  and  CA_712
REMARK  198  A    between atoms: CA_712  and  C_713
REMARK  199  A    between atoms: CA_712  and  CB_715
REMARK  200  A    between atoms: CB_715  and  CG_716
REMARK  201  A    between atoms: CG_716  and  CD_717
REMARK  202  A    between atoms: N_728  and  CA_729
REMARK  203  A    between atoms: CA_729  and  C_730
REMARK  204  A    between atoms: CA_729  and  CB_732
REMARK  205  A    between atoms: CB_732  and  CG_733
REMARK  206  A    between atoms: N_740  and  CA_741
REMARK  207  A    between atoms: CA_741  and  C_742
REMARK  208  A    between atoms: CA_741  and  CB_744
REMARK  209  A    between atoms: CB_744  and  CG_745
REMARK  210  A    between atoms: CG_745  and  CD_746
REMARK  211  A    between atoms: N_755  and  CA_756
REMARK  212  A    between atoms: CA_756  and  C_757
REMARK  213  A    between atoms: CA_756  and  CB_759
REMARK  214  A    between atoms: CB_759  and  OG1_760
REMARK  215  A    between atoms: CB_759  and  CG2_761
REMARK  216  A    between atoms: N_769  and  CA_770
REMARK  217  A    between atoms: CA_770  and  C_771
REMARK  218  A    between atoms: CA_770  and  CB_773
REMARK  219  A    between atoms: CB_773  and  CG_774
REMARK  220  A    between atoms: N_781  and  CA_782
REMARK  221  A    between atoms: CA_782  and  C_783
REMARK  222  A    between atoms: CA_782  and  CB_785
REMARK  223  A    between atoms: CB_785  and  CG_786
REMARK  224  A    between atoms: N_793  and  CA_794
REMARK  225  A    between atoms: CA_794  and  C_795
REMARK  226  A    between atoms: CA_794  and  CB_797
REMARK  227  A    between atoms: CB_797  and  CG_798
REMARK  228  A    between atoms: CG_798  and  CD_799
REMARK  229  A    between atoms: CD_799  and  NE_800
REMARK  230  A    between atoms: CA_818  and  C_819
REMARK  231  A    between atoms: N_831  and  CA_832
REMARK  232  A    between atoms: CA_832  and  C_833
REMARK  233  A    between atoms: CA_832  and  CB_835
REMARK  234  A    between atoms: CB_835  and  CG_836
REMARK  235  A    between atoms: CG_836  and  CD_837
REMARK  236  A    between atoms: N_846  and  CA_847
REMARK  237  A    between atoms: CA_847  and  C_848
REMARK  238  A    between atoms: CA_847  and  CB_850
REMARK  239  A    between atoms: CB_850  and  SG_851
REMARK  240  A    between atoms: CA_858  and  C_859
REMARK  241  A    between atoms: N_871  and  CA_872
REMARK  242  A    between atoms: CA_872  and  C_873
REMARK  243  A    between atoms: CA_872  and  CB_875
REMARK  244  A    between atoms: CB_875  and  CG_876
REMARK  245  A    between atoms: CZ_881  and  OH_882
REMARK  246  A    between atoms: N_892  and  CA_893
REMARK  247  A    between atoms: CA_893  and  C_894
REMARK  248  A    between atoms: CA_900  and  C_901
REMARK  249  A    between atoms: N_913  and  CA_914
REMARK  250  A    between atoms: CA_914  and  C_915
REMARK  251  A    between atoms: CA_914  and  CB_917
REMARK  252  A    between atoms: CB_917  and  OG_918
REMARK  253  A    between atoms: N_924  and  CA_925
REMARK  254  A    between atoms: CA_925  and  C_926
REMARK  255  A    between atoms: CA_925  and  CB_928
REMARK  256  A    between atoms: CB_928  and  SG_929
REMARK  257  A    between atoms: N_935  and  CA_936
REMARK  258  A    between atoms: CA_936  and  C_937
REMARK  259  A    between atoms: CA_936  and  CB_939
REMARK  260  A    between atoms: CB_939  and  CG_940
REMARK  261  A    between atoms: CZ_945  and  OH_946
REMARK  262  A    between atoms: N_956  and  CA_957
REMARK  263  A    between atoms: CA_957  and  C_958
REMARK  264  A    between atoms: CA_957  and  CB_960
REMARK  265  A    between atoms: CB_960  and  CG_961
REMARK  266  A    between atoms: CG_961  and  CD_962
REMARK  267  A    between atoms: CD_962  and  NE_963
REMARK  268  A    between atoms: N_980  and  CA_981
REMARK  269  A    between atoms: CA_981  and  C_982
REMARK  270  A    between atoms: CA_981  and  CB_984
REMARK  271  A    between atoms: CB_984  and  CG_985
REMARK  272  A    between atoms: CG_985  and  CD_986
REMARK  273  A    between atoms: CD_986  and  CE_987
REMARK  274  A    between atoms: CE_987  and  NZ_988
REMARK  275  A    between atoms: N_1002  and  CA_1003
REMARK  276  A    between atoms: CA_1003  and  C_1004
REMARK  277  A    between atoms: CA_1003  and  CB_1006
REMARK  278  A    between atoms: CB_1006  and  CG_1007
REMARK  279  A    between atoms: CA_1017  and  C_1018
REMARK  280  A    between atoms: N_1030  and  CA_1031
REMARK  281  A    between atoms: CA_1031  and  C_1032
REMARK  282  A    between atoms: CA_1031  and  CB_1034
REMARK  283  A    between atoms: CB_1034  and  CG_1035
REMARK  284  A    between atoms: CG_1035  and  CD_1036
REMARK  285  A    between atoms: N_1047  and  CA_1048
REMARK  286  A    between atoms: CA_1048  and  C_1049
REMARK  287  A    between atoms: CA_1048  and  CB_1051
REMARK  288  A    between atoms: CB_1051  and  CG_1052
REMARK  289  A    between atoms: N_1064  and  CA_1065
REMARK  290  A    between atoms: CA_1065  and  C_1066
REMARK  291  A    between atoms: CA_1065  and  CB_1068
REMARK  292  A    between atoms: CB_1068  and  CG_1069
REMARK  293  A    between atoms: CG_1069  and  CD_1070
REMARK  294  A    between atoms: CD_1070  and  CE_1071
REMARK  295  A    between atoms: CE_1071  and  NZ_1072
REMARK  296  A    between atoms: N_1086  and  CA_1087
REMARK  297  A    between atoms: CA_1087  and  C_1088
REMARK  298  A    between atoms: CA_1087  and  CB_1090
REMARK  299  A    between atoms: CB_1090  and  CG1_1091
REMARK  300  A    between atoms: CB_1090  and  CG2_1092
REMARK  301  A    between atoms: CG1_1091  and  CD1_1093
REMARK  302  A    between atoms: N_1105  and  CA_1106
REMARK  303  A    between atoms: CA_1106  and  C_1107
REMARK  304  A    between atoms: CA_1106  and  CB_1109
REMARK  305  A    between atoms: CB_1109  and  CG_1110
REMARK  306  A    between atoms: CG_1110  and  CD_1111
REMARK  307  A    between atoms: N_1120  and  CA_1121
REMARK  308  A    between atoms: CA_1121  and  C_1122
REMARK  309  A    between atoms: CA_1121  and  CB_1124
REMARK  310  A    between atoms: CB_1124  and  CG_1125
REMARK  311  A    between atoms: CZ_1130  and  OH_1131
REMARK  312  A    between atoms: N_1141  and  CA_1142
REMARK  313  A    between atoms: CA_1142  and  C_1143
REMARK  314  A    between atoms: CA_1142  and  CB_1145
REMARK  315  A    between atoms: CB_1145  and  CG_1146
REMARK  316  A    between atoms: CG_1146  and  CD_1147
REMARK  317  A    between atoms: CD_1147  and  NE_1148
REMARK  318  A    between atoms: N_1165  and  CA_1166
REMARK  319  A    between atoms: CA_1166  and  C_1167
REMARK  320  A    between atoms: CA_1166  and  CB_1169
REMARK  321  A    between atoms: CB_1169  and  CG_1170
REMARK  322  A    between atoms: N_1182  and  CA_1183
REMARK  323  A    between atoms: CA_1183  and  C_1184
REMARK  324  A    between atoms: CA_1183  and  CB_1186
REMARK  325  A    between atoms: CB_1186  and  CG_1187
REMARK  326  A    between atoms: N_1196  and  CA_1197
REMARK  327  A    between atoms: CA_1197  and  C_1198
REMARK  328  A    between atoms: CA_1197  and  CB_1200
REMARK  329  A    between atoms: CB_1200  and  OG1_1201
REMARK  330  A    between atoms: CB_1200  and  CG2_1202
REMARK  331  A    between atoms: N_1210  and  CA_1211
REMARK  332  A    between atoms: CA_1211  and  C_1212
REMARK  333  A    between atoms: CA_1211  and  CB_1214
REMARK  334  A    between atoms: CB_1214  and  CG_1215
REMARK  335  A    between atoms: CG_1215  and  CD1_1216
REMARK  336  A    between atoms: CG_1215  and  CD2_1217
REMARK  337  A    between atoms: CA_1230  and  C_1231
REMARK  338  A    between atoms: N_1243  and  CA_1244
REMARK  339  A    between atoms: CA_1244  and  C_1245
REMARK  340  A    between atoms: CA_1244  and  CB_1247
REMARK  341  A    between atoms: CB_1247  and  CG1_1248
REMARK  342  A    between atoms: CB_1247  and  CG2_1249
REMARK  343  A    between atoms: N_1259  and  CA_1260
REMARK  344  A    between atoms: CA_1260  and  C_1261
REMARK  345  A    between atoms: CA_1260  and  CB_1263
REMARK  346  A    between atoms: CB_1263  and  CG_1264
REMARK  347  A    between atoms: CG_1264  and  CD_1265
REMARK  348  A    between atoms: CD_1265  and  NE_1266
REMARK  349  A    between atoms: N_1283  and  CA_1284
REMARK  350  A    between atoms: CA_1284  and  C_1285
REMARK  351  A    between atoms: CA_1284  and  CB_1287
REMARK  352  A    between atoms: CB_1287  and  CG_1288
REMARK  353  A    between atoms: N_1297  and  CA_1298
REMARK  354  A    between atoms: CA_1298  and  C_1299
REMARK  355  A    between atoms: CA_1298  and  CB_1301
REMARK  356  A    between atoms: CB_1301  and  CG1_1302
REMARK  357  A    between atoms: CB_1301  and  CG2_1303
REMARK  358  A    between atoms: N_1313  and  CA_1314
REMARK  359  A    between atoms: CA_1314  and  C_1315
REMARK  360  A    between atoms: CA_1314  and  CB_1317
REMARK  361  A    between atoms: CB_1317  and  CG_1318
REMARK  362  A    between atoms: CG_1318  and  CD1_1319
REMARK  363  A    between atoms: CG_1318  and  CD2_1320
REMARK  364  A    between atoms: N_1332  and  CA_1333
REMARK  365  A    between atoms: CA_1333  and  C_1334
REMARK  366  A    between atoms: CA_1333  and  CB_1336
REMARK  367  A    between atoms: CB_1336  and  CG_1337
REMARK  368  A    between atoms: N_1344  and  CA_1345
REMARK  369  A    between atoms: CA_1345  and  C_1346
REMARK  370  A    between atoms: CA_1345  and  CB_1348
REMARK  371  A    between atoms: CB_1348  and  CG_1349
REMARK  372  A    between atoms: CG_1349  and  CD_1350
REMARK                            x       y       z     vdW  Elec       q    Type
REMARK                         _______ _______ _______ _____ _____    ______ ____
ROOT
ATOM      1  CA  CYS A  23     -87.221  13.584  82.145  0.00  0.00    +0.000 C 
ENDROOT
BRANCH   1   2
ATOM      2  C   CYS A  23     -85.737  13.376  81.161  0.00  0.00    +0.000 C 
ATOM      3  O   CYS A  23     -85.354  12.312  81.649  0.00  0.00    +0.000 OA
ATOM      4  N   TYR A  24     -84.605  13.742  80.087  0.00  0.00    +0.000 N 
ATOM      5  H   TYR A  24     -85.289  14.182  79.221  0.00  0.00    +0.000 HD
BRANCH   4   6
ATOM      6  CA  TYR A  24     -83.154  13.213  79.328  0.00  0.00    +0.000 C 
BRANCH   6   7
ATOM      7  C   TYR A  24     -81.655  12.987  78.357  0.00  0.00    +0.000 C 
ATOM      8  O   TYR A  24     -81.350  11.836  78.680  0.00  0.00    +0.000 OA
ATOM      9  N   ARG A  25     -80.537  13.425  77.312  0.00  0.00    +0.000 N 
ATOM     10  H   ARG A  25     -81.314  14.036  76.653  0.00  0.00    +0.000 HD
BRANCH   9  11
ATOM     11  CA  ARG A  25     -79.028  13.395  76.492  0.00  0.00    +0.000 C 
BRANCH  11  12
ATOM     12  C   ARG A  25     -77.750  12.686  75.499  0.00  0.00    +0.000 C 
ATOM     13  O   ARG A  25     -77.983  11.485  75.420  0.00  0.00    +0.000 OA
ATOM     14  N   LYS A  26     -76.515  13.050  74.580  0.00  0.00    +0.000 N 
ATOM     15  H   LYS A  26     -77.047  13.986  74.075  0.00  0.00    +0.000 HD
BRANCH  14  16
ATOM     16  CA  LYS A  26     -75.258  12.982  73.435  0.00  0.00    +0.000 C 
BRANCH  16  17
ATOM     17  C   LYS A  26     -73.721  12.559  72.646  0.00  0.00    +0.000 C 
ATOM     18  O   LYS A  26     -73.218  11.620  73.266  0.00  0.00    +0.000 OA
ATOM     19  N   ASN A  27     -72.799  12.678  71.368  0.00  0.00    +0.000 N 
ATOM     20  H   ASN A  27     -73.552  12.663  70.450  0.00  0.00    +0.000 HD
BRANCH  19  21
ATOM     21  CA  ASN A  27     -71.280  12.294  70.736  0.00  0.00    +0.000 C 
BRANCH  21  22
ATOM     22  C   ASN A  27     -69.809  12.135  69.762  0.00  0.00    +0.000 C 
ATOM     23  O   ASN A  27     -69.369  11.070  70.221  0.00  0.00    +0.000 OA
ATOM     24  N   PRO A  28     -68.879  12.441  68.537  0.00  0.00    +0.000 N 
ATOM     25  CD  PRO A  28     -69.152  13.668  67.826  0.00  0.00    +0.000 C 
ATOM     26  CG  PRO A  28     -68.012  14.335  68.573  0.00  0.00    +0.000 C 
ATOM     27  CB  PRO A  28     -66.916  13.252  68.590  0.00  0.00    +0.000 C 
ATOM     28  CA  PRO A  28     -67.398  11.974  67.887  0.00  0.00    +0.000 C 
BRANCH  28  29
ATOM     29  C   PRO A  28     -65.892  11.789  66.939  0.00  0.00    +0.000 C 
ATOM     30  O   PRO A  28     -65.537  10.703  67.411  0.00  0.00    +0.000 OA
ATOM     31  N   VAL A  29     -64.800  12.130  65.816  0.00  0.00    +0.000 N 
ATOM     32  H   VAL A  29     -65.495  12.511  64.933  0.00  0.00    +0.000 HD
BRANCH  31  33
ATOM     33  CA  VAL A  29     -63.333  11.658  65.048  0.00  0.00    +0.000 C 
BRANCH  33  34
ATOM     34  C   VAL A  29     -62.192  11.845  63.694  0.00  0.00    +0.000 C 
ATOM     35  O   VAL A  29     -62.736  12.547  62.838  0.00  0.00    +0.000 OA
ATOM     36  N   HIS A  30     -60.794  11.330  63.137  0.00  0.00    +0.000 N 
ATOM     37  H   HIS A  30     -61.197  10.281  62.747  0.00  0.00    +0.000 HD
BRANCH  36  38
ATOM     38  CA  HIS A  30     -59.217  11.244  62.485  0.00  0.00    +0.000 C 
BRANCH  38  39
ATOM     39  C   HIS A  30     -57.753  11.257  61.459  0.00  0.00    +0.000 C 
ATOM     40  O   HIS A  30     -57.130  10.593  62.288  0.00  0.00    +0.000 OA
ATOM     41  N   PHE A  31     -56.826  11.392  60.162  0.00  0.00    +0.000 N 
ATOM     42  H   PHE A  31     -57.565  11.191  59.255  0.00  0.00    +0.000 HD
BRANCH  41  43
ATOM     43  CA  PHE A  31     -55.205  11.411  59.578  0.00  0.00    +0.000 C 
BRANCH  43  44
ATOM     44  C   PHE A  31     -54.121  11.314  58.149  0.00  0.00    +0.000 C 
ATOM     45  O   PHE A  31     -54.810  10.787  57.287  0.00  0.00    +0.000 OA
ATOM     46  N   GLN A  32     -52.692  11.467  57.436  0.00  0.00    +0.000 N 
ATOM     47  H   GLN A  32     -52.829  12.525  56.915  0.00  0.00    +0.000 HD
BRANCH  46  48
ATOM     48  CA  GLN A  32     -51.418  10.839  56.480  0.00  0.00    +0.000 C 
BRANCH  48  49
ATOM     49  C   GLN A  32     -49.908  10.652  55.520  0.00  0.00    +0.000 C 
ATOM     50  O   GLN A  32     -49.836   9.419  55.378  0.00  0.00    +0.000 OA
ATOM     51  N   HIS A  33     -48.538  11.146  54.880  0.00  0.00    +0.000 N 
ATOM     52  H   HIS A  33     -48.982  12.175  54.484  0.00  0.00    +0.000 HD
BRANCH  51  53
ATOM     53  CA  HIS A  33     -47.167  11.065  53.830  0.00  0.00    +0.000 C 
BRANCH  53  54
ATOM     54  C   HIS A  33     -45.616  10.609  53.045  0.00  0.00    +0.000 C 
ATOM     55  O   HIS A  33     -45.194   9.616  53.640  0.00  0.00    +0.000 OA
ATOM     56  N   PHE A  34     -44.625  10.706  51.797  0.00  0.00    +0.000 N 
ATOM     57  H   PHE A  34     -45.353  10.623  50.863  0.00  0.00    +0.000 HD
BRANCH  56  58
ATOM     58  CA  PHE A  34     -43.029  10.538  51.156  0.00  0.00    +0.000 C 
BRANCH  58  59
ATOM     59  C   PHE A  34     -41.948  10.422  49.723  0.00  0.00    +0.000 C 
ATOM     60  O   PHE A  34     -42.543   9.945  48.755  0.00  0.00    +0.000 OA
ATOM     61  N   SER A  35     -40.426  10.435  49.307  0.00  0.00    +0.000 N 
ATOM     62  H   SER A  35     -40.083   9.911  50.313  0.00  0.00    +0.000 HD
BRANCH  61  63
ATOM     63  CA  SER A  35     -38.994  10.558  48.374  0.00  0.00    +0.000 C 
BRANCH  63  64
ATOM     64  C   SER A  35     -37.659  10.192  47.226  0.00  0.00    +0.000 C 
ATOM     65  O   SER A  35     -38.146   9.074  47.206  0.00  0.00    +0.000 OA
ATOM     66  N   HIS A  36     -36.568   9.686  46.179  0.00  0.00    +0.000 N 
ATOM     67  H   HIS A  36     -37.262   9.245  45.319  0.00  0.00    +0.000 HD
BRANCH  66  68
ATOM     68  CA  HIS A  36     -35.173   9.658  45.188  0.00  0.00    +0.000 C 
BRANCH  68  69
ATOM     69  C   HIS A  36     -33.542   9.569  44.485  0.00  0.00    +0.000 C 
ATOM     70  O   HIS A  36     -33.105   8.571  45.055  0.00  0.00    +0.000 OA
ATOM     71  N   PRO A  37     -32.535   9.785  43.253  0.00  0.00    +0.000 N 
ATOM     72  CD  PRO A  37     -32.844  10.890  42.395  0.00  0.00    +0.000 C 
ATOM     73  CG  PRO A  37     -31.774  11.838  42.929  0.00  0.00    +0.000 C 
ATOM     74  CB  PRO A  37     -30.627  10.855  43.183  0.00  0.00    +0.000 C 
ATOM     75  CA  PRO A  37     -30.951   9.419  42.680  0.00  0.00    +0.000 C 
BRANCH  75  76
ATOM     76  C   PRO A  37     -29.381   9.286  41.774  0.00  0.00    +0.000 C 
ATOM     77  O   PRO A  37     -28.720   8.424  42.360  0.00  0.00    +0.000 OA
ATOM     78  N   GLY A  38     -28.392   9.656  40.584  0.00  0.00    +0.000 N 
ATOM     79  H   GLY A  38     -29.197  10.151  39.871  0.00  0.00    +0.000 HD
BRANCH  78  80
ATOM     80  CA  GLY A  38     -26.885   9.666  39.737  0.00  0.00    +0.000 C 
BRANCH  80  81
ATOM     81  C   GLY A  38     -25.531   8.976  38.798  0.00  0.00    +0.000 C 
ATOM     82  O   GLY A  38     -25.872   7.804  38.745  0.00  0.00    +0.000 OA
ATOM     83  N   ASP A  39     -24.071   9.211  38.137  0.00  0.00    +0.000 N 
ATOM     84  H   ASP A  39     -24.070  10.386  38.319  0.00  0.00    +0.000 HD
BRANCH  83  85
ATOM     85  CA  ASP A  39     -22.701   9.173  37.087  0.00  0.00    +0.000 C 
BRANCH  85  86
ATOM     86  C   ASP A  39     -21.255   8.645  36.176  0.00  0.00    +0.000 C 
ATOM     87  O   ASP A  39     -21.405   7.424  36.129  0.00  0.00    +0.000 OA
ATOM     88  N   SER A  40     -20.069   8.993  35.173  0.00  0.00    +0.000 N 
ATOM     89  H   SER A  40     -20.499   9.904  34.544  0.00  0.00    +0.000 HD
BRANCH  88  90
ATOM     90  CA  SER A  40     -18.735   8.385  34.306  0.00  0.00    +0.000 C 
BRANCH  90  91
ATOM     91  C   SER A  40     -17.255   8.208  33.308  0.00  0.00    +0.000 C 
ATOM     92  O   SER A  40     -17.322   7.027  32.967  0.00  0.00    +0.000 OA
ATOM     93  N   ASP A  41     -16.010   8.708  32.459  0.00  0.00    +0.000 N 
ATOM     94  H   ASP A  41     -16.374   9.820  32.255  0.00  0.00    +0.000 HD
BRANCH  93  95
ATOM     95  CA  ASP A  41     -14.676   8.657  31.335  0.00  0.00    +0.000 C 
BRANCH  95  96
ATOM     96  C   ASP A  41     -13.079   8.350  30.540  0.00  0.00    +0.000 C 
ATOM     97  O   ASP A  41     -12.269   7.963  31.388  0.00  0.00    +0.000 OA
ATOM     98  N   TYR A  42     -12.144   8.310  29.241  0.00  0.00    +0.000 N 
ATOM     99  H   TYR A  42     -12.861   7.783  28.452  0.00  0.00    +0.000 HD
ATOM    100  CA  TYR A  42     -10.519   8.171  28.701  0.00  0.00    +0.000 C 
BRANCH 100 101
ATOM    101  CB  TYR A  42     -10.608   9.730  28.542  0.00  0.00    +0.000 C 
BRANCH 101 102
ATOM    102  CG  TYR A  42     -10.423  10.665  29.755  0.00  0.00    +0.000 A 
ATOM    103  CD1 TYR A  42     -10.898  11.998  29.829  0.00  0.00    +0.000 A 
ATOM    104  CE1 TYR A  42     -10.672  12.787  30.988  0.00  0.00    +0.000 A 
ATOM    105  CZ  TYR A  42      -9.900  12.306  32.085  0.00  0.00    +0.000 A 
ATOM    106  CE2 TYR A  42      -9.589  10.920  32.068  0.00  0.00    +0.000 A 
ATOM    107  CD2 TYR A  42      -9.706  10.191  30.869  0.00  0.00    +0.000 A 
BRANCH 105 108
ATOM    108  OH  TYR A  42      -9.474  13.144  33.093  0.00  0.00    +0.000 OA
ATOM    109  HH  TYR A  42     -10.399  13.578  33.690  0.00  0.00    +0.000 HD
ENDBRANCH 105 108
ENDBRANCH 101 102
ENDBRANCH 100 101
ENDBRANCH  95  96
BRANCH  95 110
ATOM    110  CB  ASP A  41     -13.653   8.289  32.405  0.00  0.00    +0.000 C 
BRANCH 110 111
ATOM    111  CG  ASP A  41     -13.866   8.003  33.867  0.00  0.00    +0.000 C 
ATOM    112  OD1 ASP A  41     -14.986   8.040  34.397  0.00  0.00    +0.000 OA
ATOM    113  OD2 ASP A  41     -12.808   7.685  34.419  0.00  0.00    +0.000 OA
ENDBRANCH 110 111
ENDBRANCH  95 110
ENDBRANCH  93  95
ENDBRANCH  90  91
BRANCH  90 114
ATOM    114  CB  SER A  40     -17.954   8.882  35.536  0.00  0.00    +0.000 C 
BRANCH 114 115
ATOM    115  OG  SER A  40     -17.863  10.286  35.502  0.00  0.00    +0.000 OA
ATOM    116  HG  SER A  40     -16.760  10.625  35.764  0.00  0.00    +0.000 HD
ENDBRANCH 114 115
ENDBRANCH  90 114
ENDBRANCH  88  90
ENDBRANCH  85  86
BRANCH  85 117
ATOM    117  CB  ASP A  39     -22.097   7.970  37.836  0.00  0.00    +0.000 C 
BRANCH 117 118
ATOM    118  CG  ASP A  39     -22.634   7.577  39.202  0.00  0.00    +0.000 C 
ATOM    119  OD1 ASP A  39     -23.514   8.326  39.643  0.00  0.00    +0.000 OA
ATOM    120  OD2 ASP A  39     -22.150   6.582  39.790  0.00  0.00    +0.000 OA
ENDBRANCH 117 118
ENDBRANCH  85 117
ENDBRANCH  83  85
ENDBRANCH  80  81
ENDBRANCH  78  80
ENDBRANCH  75  76
ENDBRANCH  68  69
BRANCH  68 121
ATOM    121  CB  HIS A  36     -34.465   8.998  46.385  0.00  0.00    +0.000 C 
BRANCH 121 122
ATOM    122  CG  HIS A  36     -33.754   9.859  47.430  0.00  0.00    +0.000 A 
ATOM    123  ND1 HIS A  36     -34.129  10.030  48.769  0.00  0.00    +0.000 N 
ATOM    124  HD1 HIS A  36     -34.756   9.442  49.590  0.00  0.00    +0.000 HD
ATOM    125  CE1 HIS A  36     -33.216  10.842  49.356  0.00  0.00    +0.000 A 
ATOM    126  NE2 HIS A  36     -32.313  11.258  48.456  0.00  0.00    +0.000 NA
ATOM    127  CD2 HIS A  36     -32.627  10.647  47.234  0.00  0.00    +0.000 A 
ENDBRANCH 121 122
ENDBRANCH  68 121
ENDBRANCH  66  68
ENDBRANCH  63  64
BRANCH  63 128
ATOM    128  CB  SER A  35     -38.744  12.022  48.772  0.00  0.00    +0.000 C 
BRANCH 128 129
ATOM    129  OG  SER A  35     -37.752  12.172  49.764  0.00  0.00    +0.000 OA
ATOM    130  HG  SER A  35     -37.668  13.281  50.168  0.00  0.00    +0.000 HD
ENDBRANCH 128 129
ENDBRANCH  63 128
ENDBRANCH  61  63
ENDBRANCH  58  59
BRANCH  58 131
ATOM    131  CB  PHE A  34     -42.696  12.010  51.458  0.00  0.00    +0.000 C 
BRANCH 131 132
ATOM    132  CG  PHE A  34     -41.733  12.288  52.618  0.00  0.00    +0.000 A 
ATOM    133  CD1 PHE A  34     -41.227  11.284  53.471  0.00  0.00    +0.000 A 
ATOM    134  CE1 PHE A  34     -40.330  11.599  54.506  0.00  0.00    +0.000 A 
ATOM    135  CZ  PHE A  34     -39.988  12.935  54.771  0.00  0.00    +0.000 A 
ATOM    136  CE2 PHE A  34     -40.606  13.954  54.022  0.00  0.00    +0.000 A 
ATOM    137  CD2 PHE A  34     -41.320  13.607  52.863  0.00  0.00    +0.000 A 
ENDBRANCH 131 132
ENDBRANCH  58 131
ENDBRANCH  56  58
ENDBRANCH  53  54
BRANCH  53 138
ATOM    138  CB  HIS A  33     -46.511  10.451  55.064  0.00  0.00    +0.000 C 
BRANCH 138 139
ATOM    139  CG  HIS A  33     -45.732  11.488  55.842  0.00  0.00    +0.000 C 
ATOM    140  ND1 HIS A  33     -46.230  12.211  56.906  0.00  0.00    +0.000 N 
ATOM    141  HD1 HIS A  33     -46.473  11.717  57.959  0.00  0.00    +0.000 HD
ATOM    142  CE1 HIS A  33     -45.293  13.111  57.248  0.00  0.00    +0.000 C 
ATOM    143  NE2 HIS A  33     -44.221  12.969  56.462  0.00  0.00    +0.000 NA
ATOM    144  CD2 HIS A  33     -44.442  11.887  55.619  0.00  0.00    +0.000 C 
ENDBRANCH 138 139
ENDBRANCH  53 138
ENDBRANCH  51  53
ENDBRANCH  48  49
BRANCH  48 145
ATOM    145  CB  GLN A  32     -50.692  10.642  57.812  0.00  0.00    +0.000 C 
BRANCH 145 146
ATOM    146  CG  GLN A  32     -49.674  11.775  57.956  0.00  0.00    +0.000 C 
BRANCH 146 147
ATOM    147  CD  GLN A  32     -50.030  12.949  58.875  0.00  0.00    +0.000 C 
ATOM    148  OE1 GLN A  32     -49.937  14.117  58.492  0.00  0.00    +0.000 OA
ATOM    149  NE2 GLN A  32     -50.106  12.660  60.170  0.00  0.00    +0.000 N 
ATOM    150 HE21 GLN A  32     -50.832  13.401  60.745  0.00  0.00    +0.000 HD
ATOM    151 HE22 GLN A  32     -49.212  12.309  60.872  0.00  0.00    +0.000 HD
ENDBRANCH 146 147
ENDBRANCH 145 146
ENDBRANCH  48 145
ENDBRANCH  46  48
ENDBRANCH  43  44
BRANCH  43 152
ATOM    152  CB  PHE A  31     -55.111  12.947  59.776  0.00  0.00    +0.000 C 
BRANCH 152 153
ATOM    153  CG  PHE A  31     -54.213  13.307  60.966  0.00  0.00    +0.000 A 
ATOM    154  CD1 PHE A  31     -53.581  12.269  61.665  0.00  0.00    +0.000 A 
ATOM    155  CE1 PHE A  31     -52.725  12.496  62.752  0.00  0.00    +0.000 A 
ATOM    156  CZ  PHE A  31     -52.528  13.806  63.201  0.00  0.00    +0.000 A 
ATOM    157  CE2 PHE A  31     -53.194  14.867  62.564  0.00  0.00    +0.000 A 
ATOM    158  CD2 PHE A  31     -53.975  14.619  61.414  0.00  0.00    +0.000 A 
ENDBRANCH 152 153
ENDBRANCH  43 152
ENDBRANCH  41  43
ENDBRANCH  38  39
BRANCH  38 159
ATOM    159  CB  HIS A  30     -58.530  11.086  63.866  0.00  0.00    +0.000 C 
BRANCH 159 160
ATOM    160  CG  HIS A  30     -57.901  12.286  64.557  0.00  0.00    +0.000 C 
ATOM    161  ND1 HIS A  30     -58.585  13.275  65.247  0.00  0.00    +0.000 NA
ATOM    162  HD1 HIS A  30     -59.064  13.127  66.323  0.00  0.00    +0.000 HD
ATOM    163  CE1 HIS A  30     -57.687  14.252  65.470  0.00  0.00    +0.000 C 
ATOM    164  NE2 HIS A  30     -56.459  13.908  65.034  0.00  0.00    +0.000 NA
ATOM    165  CD2 HIS A  30     -56.552  12.583  64.598  0.00  0.00    +0.000 C 
ENDBRANCH 159 160
ENDBRANCH  38 159
ENDBRANCH  36  38
ENDBRANCH  33  34
BRANCH  33 166
ATOM    166  CB  VAL A  29     -62.393  12.442  65.984  0.00  0.00    +0.000 C 
ATOM    167  CG1 VAL A  29     -62.409  11.951  67.435  0.00  0.00    +0.000 C 
ATOM    168  CG2 VAL A  29     -62.673  13.945  65.928  0.00  0.00    +0.000 C 
ENDBRANCH  33 166
ENDBRANCH  31  33
ENDBRANCH  28  29
ENDBRANCH  21  22
BRANCH  21 169
ATOM    169  CB  ASN A  27     -70.752  13.723  71.050  0.00  0.00    +0.000 C 
BRANCH 169 170
ATOM    170  CG  ASN A  27     -71.420  14.791  71.930  0.00  0.00    +0.000 C 
ATOM    171  OD1 ASN A  27     -70.928  15.083  73.019  0.00  0.00    +0.000 OA
ATOM    172  ND2 ASN A  27     -71.882  15.812  71.200  0.00  0.00    +0.000 N 
ATOM    173 HD21 ASN A  27     -71.415  16.594  70.433  0.00  0.00    +0.000 HD
ATOM    174 HD22 ASN A  27     -72.906  16.294  71.573  0.00  0.00    +0.000 HD
ENDBRANCH 169 170
ENDBRANCH  21 169
ENDBRANCH  19  21
ENDBRANCH  16  17
BRANCH  16 175
ATOM    175  CB  LYS A  26     -74.551  12.526  74.714  0.00  0.00    +0.000 C 
BRANCH 175 176
ATOM    176  CG  LYS A  26     -73.733  13.672  75.304  0.00  0.00    +0.000 C 
BRANCH 176 177
ATOM    177  CD  LYS A  26     -73.089  13.139  76.577  0.00  0.00    +0.000 C 
BRANCH 177 178
ATOM    178  CE  LYS A  26     -72.215  14.226  77.190  0.00  0.00    +0.000 C 
BRANCH 178 179
ATOM    179  NZ  LYS A  26     -71.768  13.757  78.506  0.00  0.00    +0.000 N 
ATOM    180  HZ1 LYS A  26     -72.534  13.440  79.373  0.00  0.00    +0.000 HD
ATOM    181  HZ2 LYS A  26     -71.179  14.651  79.052  0.00  0.00    +0.000 HD
ATOM    182  HZ3 LYS A  26     -70.944  12.883  78.495  0.00  0.00    +0.000 HD
ENDBRANCH 178 179
ENDBRANCH 177 178
ENDBRANCH 176 177
ENDBRANCH 175 176
ENDBRANCH  16 175
ENDBRANCH  14  16
ENDBRANCH  11  12
BRANCH  11 183
ATOM    183  CB  ARG A  25     -78.193  14.371  77.330  0.00  0.00    +0.000 C 
BRANCH 183 184
ATOM    184  CG  ARG A  25     -77.889  14.259  78.837  0.00  0.00    +0.000 C 
BRANCH 184 185
ATOM    185  CD  ARG A  25     -77.605  12.936  79.556  0.00  0.00    +0.000 C 
BRANCH 185 186
ATOM    186  NE  ARG A  25     -76.714  13.241  80.692  0.00  0.00    +0.000 N 
ATOM    187  HE  ARG A  25     -75.720  12.599  80.812  0.00  0.00    +0.000 HD
ATOM    188  CZ  ARG A  25     -76.964  14.064  81.731  0.00  0.00    +0.000 C 
ATOM    189  NH1 ARG A  25     -76.758  15.382  81.612  0.00  0.00    +0.000 N 
ATOM    190 HH11 ARG A  25     -76.686  15.999  82.631  0.00  0.00    +0.000 HD
ATOM    191 HH12 ARG A  25     -76.495  16.260  80.851  0.00  0.00    +0.000 HD
ATOM    192  NH2 ARG A  25     -76.984  13.573  82.979  0.00  0.00    +0.000 N 
ATOM    193 HH21 ARG A  25     -76.220  13.749  83.875  0.00  0.00    +0.000 HD
ATOM    194 HH22 ARG A  25     -77.802  12.797  83.355  0.00  0.00    +0.000 HD
ENDBRANCH 185 186
ENDBRANCH 184 185
ENDBRANCH 183 184
ENDBRANCH  11 183
ENDBRANCH   9  11
ENDBRANCH   6   7
BRANCH   6 195
ATOM    195  CB  TYR A  24     -82.312  14.130  80.247  0.00  0.00    +0.000 C 
BRANCH 195 196
ATOM    196  CG  TYR A  24     -82.780  15.379  81.001  0.00  0.00    +0.000 A 
ATOM    197  CD1 TYR A  24     -83.351  16.515  80.387  0.00  0.00    +0.000 A 
ATOM    198  CE1 TYR A  24     -83.380  17.733  81.092  0.00  0.00    +0.000 A 
ATOM    199  CZ  TYR A  24     -82.631  17.824  82.283  0.00  0.00    +0.000 A 
ATOM    200  CE2 TYR A  24     -82.537  16.655  83.056  0.00  0.00    +0.000 A 
ATOM    201  CD2 TYR A  24     -82.616  15.421  82.398  0.00  0.00    +0.000 A 
BRANCH 199 202
ATOM    202  OH  TYR A  24     -82.001  18.970  82.687  0.00  0.00    +0.000 OA
ATOM    203  HH  TYR A  24     -81.709  18.926  83.834  0.00  0.00    +0.000 HD
ENDBRANCH 199 202
ENDBRANCH 195 196
ENDBRANCH   6 195
ENDBRANCH   4   6
ENDBRANCH   1   2
BRANCH   1 206
ATOM    204  C   ASN A  22     -89.785  13.859  83.907  0.00  0.00    +0.000 C 
ATOM    205  O   ASN A  22     -89.588  12.659  84.100  0.00  0.00    +0.000 OA
ATOM    206  N   CYS A  23     -88.657  14.170  82.841  0.00  0.00    +0.000 N 
ATOM    207  H   CYS A  23     -89.186  14.850  82.023  0.00  0.00    +0.000 HD
BRANCH 204 208
ATOM    208  CA  ASN A  22     -91.300  14.078  84.837  0.00  0.00    +0.000 C 
BRANCH 208 211
ATOM    209  C   ALA A  21     -93.872  14.291  86.617  0.00  0.00    +0.000 C 
ATOM    210  O   ALA A  21     -93.877  13.065  86.680  0.00  0.00    +0.000 OA
ATOM    211  N   ASN A  22     -92.785  14.584  85.495  0.00  0.00    +0.000 N 
ATOM    212  H   ASN A  22     -93.422  15.009  84.587  0.00  0.00    +0.000 HD
BRANCH 209 213
ATOM    213  CA  ALA A  21     -95.269  14.853  87.585  0.00  0.00    +0.000 C 
ATOM    214  CB  ALA A  21     -94.965  13.569  88.353  0.00  0.00    +0.000 C 
BRANCH 213 217
ATOM    215  C   GLY A  20     -98.124  14.676  89.143  0.00  0.00    +0.000 C 
ATOM    216  O   GLY A  20     -98.780  14.163  88.222  0.00  0.00    +0.000 OA
ATOM    217  N   ALA A  21     -96.640  14.900  88.628  0.00  0.00    +0.000 N 
ATOM    218  H   ALA A  21     -96.360  15.861  89.266  0.00  0.00    +0.000 HD
BRANCH 215 219
ATOM    219  CA  GLY A  20     -99.187  15.154  90.483  0.00  0.00    +0.000 C 
BRANCH 219 222
ATOM    220  C   TYR A  19    -101.854  14.862  92.301  0.00  0.00    +0.000 C 
ATOM    221  O   TYR A  19    -101.967  13.631  92.208  0.00  0.00    +0.000 OA
ATOM    222  N   GLY A  20    -100.631  15.290  91.393  0.00  0.00    +0.000 N 
ATOM    223  H   GLY A  20    -101.074  16.337  91.058  0.00  0.00    +0.000 HD
BRANCH 220 224
ATOM    224  CA  TYR A  19    -103.006  15.546  93.478  0.00  0.00    +0.000 C 
BRANCH 224 227
ATOM    225  C   MET A  18    -105.670  15.073  95.233  0.00  0.00    +0.000 C 
ATOM    226  O   MET A  18    -105.577  13.850  95.137  0.00  0.00    +0.000 OA
ATOM    227  N   TYR A  19    -104.504  15.585  94.310  0.00  0.00    +0.000 N 
ATOM    228  H   TYR A  19    -105.230  16.336  93.743  0.00  0.00    +0.000 HD
BRANCH 225 229
ATOM    229  CA  MET A  18    -107.123  15.261  96.252  0.00  0.00    +0.000 C 
BRANCH 229 232
ATOM    230  C   CYS A  17    -109.578  15.447  98.105  0.00  0.00    +0.000 C 
ATOM    231  O   CYS A  17    -109.264  14.295  98.385  0.00  0.00    +0.000 OA
ATOM    232  N   MET A  18    -108.462  15.870  97.099  0.00  0.00    +0.000 N 
ATOM    233  H   MET A  18    -109.154  16.383  96.280  0.00  0.00    +0.000 HD
BRANCH 230 234
ATOM    234  CA  CYS A  17    -111.041  15.624  99.072  0.00  0.00    +0.000 C 
BRANCH 234 237
ATOM    235  C   SER A  16    -113.514  15.830 100.852  0.00  0.00    +0.000 C 
ATOM    236  O   SER A  16    -113.287  14.620 100.947  0.00  0.00    +0.000 OA
ATOM    237  N   CYS A  17    -112.452  16.216  99.774  0.00  0.00    +0.000 N 
ATOM    238  H   CYS A  17    -113.009  16.895  98.977  0.00  0.00    +0.000 HD
BRANCH 235 239
ATOM    239  CA  SER A  16    -114.973  16.022 101.825  0.00  0.00    +0.000 C 
BRANCH 239 242
ATOM    240  C   THR A  15    -117.390  16.224 103.699  0.00  0.00    +0.000 C 
ATOM    241  O   THR A  15    -116.799  15.416 104.439  0.00  0.00    +0.000 OA
ATOM    242  N   SER A  16    -116.410  16.542 102.527  0.00  0.00    +0.000 N 
ATOM    243  H   SER A  16    -117.066  17.020 101.660  0.00  0.00    +0.000 HD
BRANCH 240 244
ATOM    244  CA  THR A  15    -118.909  16.346 104.566  0.00  0.00    +0.000 C 
BRANCH 244 247
ATOM    245  C   ARG A  14    -121.751  16.682 105.896  0.00  0.00    +0.000 C 
ATOM    246  O   ARG A  14    -122.127  15.516 105.772  0.00  0.00    +0.000 OA
ATOM    247  N   THR A  15    -120.465  16.750 104.982  0.00  0.00    +0.000 N 
ATOM    248  H   THR A  15    -121.004  16.733 103.923  0.00  0.00    +0.000 HD
BRANCH 245 249
ATOM    249  CA  ARG A  14    -122.763  17.317 107.197  0.00  0.00    +0.000 C 
BRANCH 249 252
ATOM    250  C   LYS A  13    -125.156  17.669 109.122  0.00  0.00    +0.000 C 
ATOM    251  O   LYS A  13    -124.785  18.798 109.441  0.00  0.00    +0.000 OA
ATOM    252  N   ARG A  14    -124.296  17.237 107.892  0.00  0.00    +0.000 N 
ATOM    253  H   ARG A  14    -125.026  16.565 107.238  0.00  0.00    +0.000 HD
BRANCH 250 254
ATOM    254  CA  LYS A  13    -126.534  17.764 110.173  0.00  0.00    +0.000 C 
BRANCH 254 257
ATOM    255  C   VAL A  12    -128.747  18.061 112.040  0.00  0.00    +0.000 C 
ATOM    256  O   VAL A  12    -127.940  18.788 112.617  0.00  0.00    +0.000 OA
ATOM    257  N   LYS A  13    -128.028  17.570 110.807  0.00  0.00    +0.000 N 
ATOM    258  H   LYS A  13    -128.820  17.314 109.957  0.00  0.00    +0.000 HD
BRANCH 255 259
ATOM    259  CA  VAL A  12    -130.114  18.340 113.026  0.00  0.00    +0.000 C 
BRANCH 259 262
ATOM    260  C   LYS A  11    -132.995  17.998 114.164  0.00  0.00    +0.000 C 
ATOM    261  O   LYS A  11    -133.381  16.938 113.681  0.00  0.00    +0.000 OA
ATOM    262  N   VAL A  12    -131.653  18.379 113.585  0.00  0.00    +0.000 N 
ATOM    263  H   VAL A  12    -132.127  19.129 112.789  0.00  0.00    +0.000 HD
BRANCH 260 264
ATOM    264  CA  LYS A  11    -133.912  18.407 115.538  0.00  0.00    +0.000 C 
BRANCH 264 267
ATOM    265  C   ASN A  10    -136.318  18.084 117.350  0.00  0.00    +0.000 C 
ATOM    266  O   ASN A  10    -135.777  17.409 118.226  0.00  0.00    +0.000 OA
ATOM    267  N   LYS A  11    -135.277  17.902 116.253  0.00  0.00    +0.000 N 
ATOM    268  H   LYS A  11    -135.908  17.354 115.406  0.00  0.00    +0.000 HD
BRANCH 265 269
ATOM    269  CA  ASN A  10    -137.766  18.348 118.198  0.00  0.00    +0.000 C 
BRANCH 269 272
ATOM    270  C   GLY A   9    -139.931  18.702 119.897  0.00  0.00    +0.000 C 
ATOM    271  O   GLY A   9    -139.158  18.113 120.647  0.00  0.00    +0.000 OA
ATOM    272  N   ASN A  10    -139.303  18.615 118.575  0.00  0.00    +0.000 N 
ATOM    273  H   ASN A  10    -140.081  18.206 117.774  0.00  0.00    +0.000 HD
BRANCH 270 274
ATOM    274  CA  GLY A   9    -141.215  18.975 120.924  0.00  0.00    +0.000 C 
BRANCH 274 277
ATOM    275  C   GLU A   8    -143.984  19.000 121.948  0.00  0.00    +0.000 C 
ATOM    276  O   GLU A   8    -144.606  18.423 121.047  0.00  0.00    +0.000 OA
ATOM    277  N   GLY A   9    -142.608  19.289 121.584  0.00  0.00    +0.000 N 
ATOM    278  H   GLY A   9    -142.704  20.443 121.318  0.00  0.00    +0.000 HD
BRANCH 275 279
ATOM    279  CA  GLU A   8    -144.794  19.372 123.335  0.00  0.00    +0.000 C 
BRANCH 279 282
ATOM    280  C   SER A   7    -147.247  19.035 124.826  0.00  0.00    +0.000 C 
ATOM    281  O   SER A   7    -147.418  17.925 125.337  0.00  0.00    +0.000 OA
ATOM    282  N   GLU A   8    -146.179  18.895 123.848  0.00  0.00    +0.000 N 
ATOM    283  H   GLU A   8    -146.763  18.449 122.912  0.00  0.00    +0.000 HD
BRANCH 280 284
ATOM    284  CA  SER A   7    -148.249  20.078 125.502  0.00  0.00    +0.000 C 
BRANCH 284 287
ATOM    285  C   GLY A   6    -150.175  19.245 127.277  0.00  0.00    +0.000 C 
ATOM    286  O   GLY A   6    -149.550  18.201 127.469  0.00  0.00    +0.000 OA
ATOM    287  N   SER A   7    -149.646  19.956 126.194  0.00  0.00    +0.000 N 
ATOM    288  H   SER A   7    -150.583  20.340 125.571  0.00  0.00    +0.000 HD
BRANCH 285 289
ATOM    289  CA  GLY A   6    -151.476  19.304 128.253  0.00  0.00    +0.000 C 
BRANCH 289 292
ATOM    290  C   SER A   5    -153.590  19.455 129.648  0.00  0.00    +0.000 C 
ATOM    291  O   SER A   5    -153.198  18.306 129.835  0.00  0.00    +0.000 OA
ATOM    292  N   GLY A   6    -152.774  20.016 128.644  0.00  0.00    +0.000 N 
ATOM    293  H   GLY A   6    -153.143  20.931 127.984  0.00  0.00    +0.000 HD
BRANCH 290 294
ATOM    294  CA  SER A   5    -154.902  19.637 130.546  0.00  0.00    +0.000 C 
BRANCH 294 297
ATOM    295  C   GLY A   4    -156.911  19.740 132.057  0.00  0.00    +0.000 C 
ATOM    296  O   GLY A   4    -156.684  18.527 132.100  0.00  0.00    +0.000 OA
ATOM    297  N   SER A   5    -156.159  20.346 131.027  0.00  0.00    +0.000 N 
ATOM    298  H   SER A   5    -156.742  21.039 130.258  0.00  0.00    +0.000 HD
BRANCH 295 299
ATOM    299  CA  GLY A   4    -158.207  19.926 132.975  0.00  0.00    +0.000 C 
BRANCH 299 302
ATOM    300  C   LEU A   3    -160.369  20.487 134.231  0.00  0.00    +0.000 C 
ATOM    301  O   LEU A   3    -160.755  19.320 134.246  0.00  0.00    +0.000 OA
ATOM    302  N   GLY A   4    -159.378  20.818 133.296  0.00  0.00    +0.000 N 
ATOM    303  H   GLY A   4    -159.530  21.627 132.439  0.00  0.00    +0.000 HD
BRANCH 300 304
ATOM    304  CA  LEU A   3    -161.276  21.465 135.061  0.00  0.00    +0.000 C 
BRANCH 304 307
ATOM    305  C   PRO A   2    -163.014  20.078 136.465  0.00  0.00    +0.000 C 
ATOM    306  O   PRO A   2    -162.249  19.123 136.605  0.00  0.00    +0.000 OA
ATOM    307  N   LEU A   3    -162.620  21.091 135.626  0.00  0.00    +0.000 N 
ATOM    308  H   LEU A   3    -163.437  21.115 134.761  0.00  0.00    +0.000 HD
BRANCH 305 315
ATOM    309  C   GLY A   1    -166.767  20.078 137.911  0.00  0.00    +0.000 C 
ATOM    310  O   GLY A   1    -167.090  18.887 137.942  0.00  0.00    +0.000 OA
ATOM    311  N   PRO A   2    -165.633  20.535 137.332  0.00  0.00    +0.000 N 
ATOM    312  CD  PRO A   2    -165.556  21.933 137.035  0.00  0.00    +0.000 C 
ATOM    313  CG  PRO A   2    -164.773  22.110 138.327  0.00  0.00    +0.000 C 
ATOM    314  CB  PRO A   2    -164.077  20.740 138.468  0.00  0.00    +0.000 C 
ATOM    315  CA  PRO A   2    -164.350  19.830 137.248  0.00  0.00    +0.000 C 
BRANCH 309 316
ATOM    316  CA  GLY A   1    -167.846  21.109 138.229  0.00  0.00    +0.000 C 
BRANCH 316 317
ATOM    317  N   GLY A   1    -168.827  20.513 139.150  0.00  0.00    +0.000 N 
ATOM    318  H   GLY A   1    -169.754  21.245 139.365  0.00  0.00    +0.000 HD
ATOM    319  H2  GLY A   1    -168.381  20.311 140.245  0.00  0.00    +0.000 HD
ATOM    320  H3  GLY A   1    -169.398  19.500 138.862  0.00  0.00    +0.000 HD
ENDBRANCH 316 317
ENDBRANCH 309 316
ENDBRANCH 305 315
ENDBRANCH 304 307
BRANCH 304 321
ATOM    321  CB  LEU A   3    -160.506  22.482 135.932  0.00  0.00    +0.000 C 
BRANCH 321 322
ATOM    322  CG  LEU A   3    -161.161  23.605 136.755  0.00  0.00    +0.000 C 
ATOM    323  CD1 LEU A   3    -160.162  24.467 137.534  0.00  0.00    +0.000 C 
ATOM    324  CD2 LEU A   3    -162.471  23.374 137.503  0.00  0.00    +0.000 C 
ENDBRANCH 321 322
ENDBRANCH 304 321
ENDBRANCH 300 304
ENDBRANCH 299 302
ENDBRANCH 295 299
ENDBRANCH 294 297
BRANCH 294 325
ATOM    325  CB  SER A   5    -154.087  20.583 131.461  0.00  0.00    +0.000 C 
BRANCH 325 326
ATOM    326  OG  SER A   5    -154.836  21.652 132.012  0.00  0.00    +0.000 OA
ATOM    327  HG  SER A   5    -154.159  22.595 132.253  0.00  0.00    +0.000 HD
ENDBRANCH 325 326
ENDBRANCH 294 325
ENDBRANCH 290 294
ENDBRANCH 289 292
ENDBRANCH 285 289
ENDBRANCH 284 287
BRANCH 284 328
ATOM    328  CB  SER A   7    -147.578  21.273 126.208  0.00  0.00    +0.000 C 
BRANCH 328 329
ATOM    329  OG  SER A   7    -148.607  22.112 126.697  0.00  0.00    +0.000 OA
ATOM    330  HG  SER A   7    -148.170  23.078 127.229  0.00  0.00    +0.000 HD
ENDBRANCH 328 329
ENDBRANCH 284 328
ENDBRANCH 280 284
ENDBRANCH 279 282
BRANCH 279 331
ATOM    331  CB  GLU A   8    -143.989  18.362 124.168  0.00  0.00    +0.000 C 
BRANCH 331 332
ATOM    332  CG  GLU A   8    -143.417  18.826 125.526  0.00  0.00    +0.000 C 
BRANCH 332 333
ATOM    333  CD  GLU A   8    -144.402  19.037 126.683  0.00  0.00    +0.000 C 
ATOM    334  OE1 GLU A   8    -144.555  18.134 127.544  0.00  0.00    +0.000 OA
ATOM    335  OE2 GLU A   8    -144.624  20.242 126.935  0.00  0.00    +0.000 OA
ENDBRANCH 332 333
ENDBRANCH 331 332
ENDBRANCH 279 331
ENDBRANCH 275 279
ENDBRANCH 274 277
ENDBRANCH 270 274
ENDBRANCH 269 272
BRANCH 269 336
ATOM    336  CB  ASN A  10    -137.648  19.895 118.061  0.00  0.00    +0.000 C 
BRANCH 336 337
ATOM    337  CG  ASN A  10    -138.748  20.738 118.745  0.00  0.00    +0.000 C 
ATOM    338  OD1 ASN A  10    -138.726  20.877 119.985  0.00  0.00    +0.000 OA
ATOM    339  ND2 ASN A  10    -139.594  21.419 117.960  0.00  0.00    +0.000 N 
ATOM    340 HD21 ASN A  10    -139.248  22.470 117.518  0.00  0.00    +0.000 HD
ATOM    341 HD22 ASN A  10    -140.755  21.273 117.746  0.00  0.00    +0.000 HD
ENDBRANCH 336 337
ENDBRANCH 269 336
ENDBRANCH 265 269
ENDBRANCH 264 267
BRANCH 264 342
ATOM    342  CB  LYS A  11    -132.993  17.597 116.456  0.00  0.00    +0.000 C 
BRANCH 342 343
ATOM    343  CG  LYS A  11    -133.033  18.382 117.760  0.00  0.00    +0.000 C 
BRANCH 343 344
ATOM    344  CD  LYS A  11    -132.246  17.634 118.810  0.00  0.00    +0.000 C 
BRANCH 344 345
ATOM    345  CE  LYS A  11    -132.449  18.456 120.075  0.00  0.00    +0.000 C 
BRANCH 345 346
ATOM    346  NZ  LYS A  11    -132.780  17.682 121.295  0.00  0.00    +0.000 N 
ATOM    347  HZ1 LYS A  11    -133.814  17.076 121.320  0.00  0.00    +0.000 HD
ATOM    348  HZ2 LYS A  11    -131.947  16.884 121.625  0.00  0.00    +0.000 HD
ATOM    349  HZ3 LYS A  11    -132.859  18.358 122.284  0.00  0.00    +0.000 HD
ENDBRANCH 345 346
ENDBRANCH 344 345
ENDBRANCH 343 344
ENDBRANCH 342 343
ENDBRANCH 264 342
ENDBRANCH 260 264
ENDBRANCH 259 262
BRANCH 259 350
ATOM    350  CB  VAL A  12    -129.424  18.925 114.271  0.00  0.00    +0.000 C 
ATOM    351  CG1 VAL A  12    -128.232  19.876 114.089  0.00  0.00    +0.000 C 
ATOM    352  CG2 VAL A  12    -130.413  19.637 115.192  0.00  0.00    +0.000 C 
ENDBRANCH 259 350
ENDBRANCH 255 259
ENDBRANCH 254 257
BRANCH 254 353
ATOM    353  CB  LYS A  13    -126.267  16.407 110.849  0.00  0.00    +0.000 C 
BRANCH 353 354
ATOM    354  CG  LYS A  13    -125.431  16.637 112.099  0.00  0.00    +0.000 C 
BRANCH 354 355
ATOM    355  CD  LYS A  13    -125.094  15.328 112.798  0.00  0.00    +0.000 C 
BRANCH 355 356
ATOM    356  CE  LYS A  13    -124.241  15.734 114.004  0.00  0.00    +0.000 C 
BRANCH 356 357
ATOM    357  NZ  LYS A  13    -124.759  15.284 115.307  0.00  0.00    +0.000 N 
ATOM    358  HZ1 LYS A  13    -125.475  16.064 115.868  0.00  0.00    +0.000 HD
ATOM    359  HZ2 LYS A  13    -123.864  15.138 116.094  0.00  0.00    +0.000 HD
ATOM    360  HZ3 LYS A  13    -125.327  14.233 115.418  0.00  0.00    +0.000 HD
ENDBRANCH 356 357
ENDBRANCH 355 356
ENDBRANCH 354 355
ENDBRANCH 353 354
ENDBRANCH 254 353
ENDBRANCH 250 254
ENDBRANCH 249 252
BRANCH 249 361
ATOM    361  CB  ARG A  14    -123.048  18.604 106.420  0.00  0.00    +0.000 C 
BRANCH 361 362
ATOM    362  CG  ARG A  14    -122.069  19.601 107.089  0.00  0.00    +0.000 C 
BRANCH 362 363
ATOM    363  CD  ARG A  14    -121.680  19.237 108.546  0.00  0.00    +0.000 C 
BRANCH 363 364
ATOM    364  NE  ARG A  14    -120.454  19.708 109.246  0.00  0.00    +0.000 N 
ATOM    365  HE  ARG A  14    -119.870  20.688 108.905  0.00  0.00    +0.000 HD
ATOM    366  CZ  ARG A  14    -119.898  19.173 110.371  0.00  0.00    +0.000 C 
ATOM    367  NH1 ARG A  14    -119.674  19.916 111.457  0.00  0.00    +0.000 N 
ATOM    368 HH11 ARG A  14    -120.189  20.949 111.745  0.00  0.00    +0.000 HD
ATOM    369 HH12 ARG A  14    -118.813  19.692 112.249  0.00  0.00    +0.000 HD
ATOM    370  NH2 ARG A  14    -119.927  17.867 110.657  0.00  0.00    +0.000 N 
ATOM    371 HH21 ARG A  14    -120.603  17.320 111.470  0.00  0.00    +0.000 HD
ATOM    372 HH22 ARG A  14    -118.958  17.207 110.446  0.00  0.00    +0.000 HD
ENDBRANCH 363 364
ENDBRANCH 362 363
ENDBRANCH 361 362
ENDBRANCH 249 361
ENDBRANCH 245 249
ENDBRANCH 244 247
BRANCH 244 373
ATOM    373  CB  THR A  15    -118.573  17.723 105.149  0.00  0.00    +0.000 C 
ATOM    374  CG2 THR A  15    -118.791  17.783 106.676  0.00  0.00    +0.000 C 
BRANCH 373 375
ATOM    375  OG1 THR A  15    -119.294  18.658 104.368  0.00  0.00    +0.000 OA
ATOM    376  HG1 THR A  15    -118.656  19.635 104.146  0.00  0.00    +0.000 HD
ENDBRANCH 373 375
ENDBRANCH 244 373
ENDBRANCH 240 244
ENDBRANCH 239 242
BRANCH 239 377
ATOM    377  CB  SER A  16    -114.241  17.139 102.560  0.00  0.00    +0.000 C 
BRANCH 377 378
ATOM    378  OG  SER A  16    -113.480  16.663 103.647  0.00  0.00    +0.000 OA
ATOM    379  HG  SER A  16    -113.759  17.178 104.675  0.00  0.00    +0.000 HD
ENDBRANCH 377 378
ENDBRANCH 239 377
ENDBRANCH 235 239
ENDBRANCH 234 237
BRANCH 234 380
ATOM    380  CB  CYS A  17    -110.318  16.519 100.090  0.00  0.00    +0.000 C 
BRANCH 380 381
ATOM    381  SG  CYS A  17    -109.760  15.543 101.520  0.00  0.00    +0.000 S 
ATOM    382  HG  CYS A  17    -109.386  15.014 102.506  0.00  0.00    +0.000 HD
ENDBRANCH 380 381
ENDBRANCH 234 380
ENDBRANCH 230 234
ENDBRANCH 229 232
BRANCH 229 383
ATOM    383  CB  MET A  18    -106.248  15.835  97.374  0.00  0.00    +0.000 C 
BRANCH 383 384
ATOM    384  CG  MET A  18    -106.620  17.288  97.678  0.00  0.00    +0.000 C 
BRANCH 384 385
ATOM    385  SD  MET A  18    -106.518  17.773  99.425  0.00  0.00    +0.000 S 
ATOM    386  CE  MET A  18    -107.735  19.106  99.579  0.00  0.00    +0.000 C 
ENDBRANCH 384 385
ENDBRANCH 383 384
ENDBRANCH 229 383
ENDBRANCH 225 229
ENDBRANCH 224 227
BRANCH 224 387
ATOM    387  CB  TYR A  19    -102.125  16.188  94.569  0.00  0.00    +0.000 C 
BRANCH 387 388
ATOM    388  CG  TYR A  19    -102.450  17.554  95.182  0.00  0.00    +0.000 A 
ATOM    389  CD1 TYR A  19    -102.898  18.659  94.428  0.00  0.00    +0.000 A 
ATOM    390  CE1 TYR A  19    -102.838  19.962  94.976  0.00  0.00    +0.000 A 
ATOM    391  CZ  TYR A  19    -102.155  20.146  96.204  0.00  0.00    +0.000 A 
ATOM    392  CE2 TYR A  19    -102.212  19.065  97.113  0.00  0.00    +0.000 A 
ATOM    393  CD2 TYR A  19    -102.298  17.760  96.572  0.00  0.00    +0.000 A 
BRANCH 391 394
ATOM    394  OH  TYR A  19    -101.450  21.286  96.495  0.00  0.00    +0.000 OA
ATOM    395  HH  TYR A  19    -101.768  21.729  97.546  0.00  0.00    +0.000 HD
ENDBRANCH 391 394
ENDBRANCH 387 388
ENDBRANCH 224 387
ENDBRANCH 220 224
ENDBRANCH 219 222
ENDBRANCH 215 219
ENDBRANCH 213 217
ENDBRANCH 209 213
ENDBRANCH 208 211
BRANCH 208 396
ATOM    396  CB  ASN A  22     -90.592  15.201  85.604  0.00  0.00    +0.000 C 
BRANCH 396 397
ATOM    397  CG  ASN A  22     -91.306  15.993  86.701  0.00  0.00    +0.000 C 
ATOM    398  OD1 ASN A  22     -91.035  15.779  87.883  0.00  0.00    +0.000 OA
ATOM    399  ND2 ASN A  22     -91.533  17.257  86.327  0.00  0.00    +0.000 N 
ATOM    400 HD21 ASN A  22     -92.205  17.912  87.062  0.00  0.00    +0.000 HD
ATOM    401 HD22 ASN A  22     -91.176  18.035  85.499  0.00  0.00    +0.000 HD
ENDBRANCH 396 397
ENDBRANCH 208 396
ENDBRANCH 204 208
ENDBRANCH   1 206
BRANCH   1 402
ATOM    402  CB  CYS A  23     -86.476  14.500  83.110  0.00  0.00    +0.000 C 
BRANCH 402 403
ATOM    403  SG  CYS A  23     -85.650  13.395  84.292  0.00  0.00    +0.000 S 
ATOM    404  HG  CYS A  23     -85.213  12.802  85.214  0.00  0.00    +0.000 HD
ENDBRANCH 402 403
ENDBRANCH   1 402
TORSDOF 160
REMARK  Name = /Users/acegid/Desktop/Smoking_Research/Docking/Docking_All_PDB/All_PDB/2KQC_H.pdb
REMARK  372 active torsions:
REMARK  status: ('A' for Active; 'I' for Inactive)
REMARK    1  A    between atoms: N_1  and  CA_5
REMARK    2  A    between atoms: CA_5  and  C_8
REMARK    3  A    between atoms: CA_20  and  C_22
REMARK    4  A    between atoms: N_24  and  CA_26
REMARK    5  A    between atoms: CA_26  and  CB_28
REMARK    6  A    between atoms: CA_26  and  C_41
REMARK    7  A    between atoms: CB_28  and  CG_31
REMARK    8  A    between atoms: CG_31  and  CD1_33
REMARK    9  A    between atoms: CG_31  and  CD2_37
REMARK   10  A    between atoms: N_43  and  CA_45
REMARK   11  A    between atoms: CA_45  and  C_48
REMARK   12  A    between atoms: N_50  and  CA_52
REMARK   13  A    between atoms: CA_52  and  CB_54
REMARK   14  A    between atoms: CA_52  and  C_59
REMARK   15  A    between atoms: CB_54  and  OG_57
REMARK   16  A    between atoms: N_61  and  CA_63
REMARK   17  A    between atoms: CA_63  and  C_66
REMARK   18  A    between atoms: N_68  and  CA_70
REMARK   19  A    between atoms: CA_70  and  CB_72
REMARK   20  A    between atoms: CA_70  and  C_77
REMARK   21  A    between atoms: CB_72  and  OG_75
REMARK   22  A    between atoms: N_79  and  CA_81
REMARK   23  A    between atoms: CA_81  and  CB_83
REMARK   24  A    between atoms: CA_81  and  C_92
REMARK   25  A    between atoms: CB_83  and  CG_86
REMARK   26  A    between atoms: CG_86  and  CD_89
REMARK   27  A    between atoms: N_94  and  CA_96
REMARK   28  A    between atoms: CA_96  and  C_99
REMARK   29  A    between atoms: N_101  and  CA_103
REMARK   30  A    between atoms: CA_103  and  CB_105
REMARK   31  A    between atoms: CA_103  and  C_113
REMARK   32  A    between atoms: CB_105  and  CG_108
REMARK   33  A    between atoms: N_115  and  CA_117
REMARK   34  A    between atoms: CA_117  and  CB_119
REMARK   35  A    between atoms: CA_117  and  C_135
REMARK   36  A    between atoms: CB_119  and  CG_122
REMARK   37  A    between atoms: CG_122  and  CD_125
REMARK   38  A    between atoms: CD_125  and  CE_128
REMARK   39  A    between atoms: CE_128  and  NZ_131
REMARK   40  A    between atoms: N_137  and  CA_139
REMARK   41  A    between atoms: CA_139  and  CB_141
REMARK   42  A    between atoms: CA_139  and  C_151
REMARK   43  A    between atoms: CB_141  and  CG1_143
REMARK   44  A    between atoms: CB_141  and  CG2_147
REMARK   45  A    between atoms: N_153  and  CA_155
REMARK   46  A    between atoms: CA_155  and  CB_157
REMARK   47  A    between atoms: CA_155  and  C_173
REMARK   48  A    between atoms: CB_157  and  CG_160
REMARK   49  A    between atoms: CG_160  and  CD_163
REMARK   50  A    between atoms: CD_163  and  CE_166
REMARK   51  A    between atoms: CE_166  and  NZ_169
REMARK   52  A    between atoms: N_175  and  CA_177
REMARK   53  A    between atoms: CA_177  and  CB_179
REMARK   54  A    between atoms: CA_177  and  C_197
REMARK   55  A    between atoms: CB_179  and  CG_182
REMARK   56  A    between atoms: CG_182  and  CD_185
REMARK   57  A    between atoms: CD_185  and  NE_188
REMARK   58  A    between atoms: N_199  and  CA_201
REMARK   59  A    between atoms: CA_201  and  CB_203
REMARK   60  A    between atoms: CA_201  and  C_211
REMARK   61  A    between atoms: CB_203  and  CG2_205
REMARK   62  A    between atoms: CB_203  and  OG1_209
REMARK   63  A    between atoms: N_213  and  CA_215
REMARK   64  A    between atoms: CA_215  and  CB_217
REMARK   65  A    between atoms: CA_215  and  C_222
REMARK   66  A    between atoms: CB_217  and  OG_220
REMARK   67  A    between atoms: N_224  and  CA_226
REMARK   68  A    between atoms: CA_226  and  CB_228
REMARK   69  A    between atoms: CA_226  and  C_233
REMARK   70  A    between atoms: CB_228  and  SG_231
REMARK   71  A    between atoms: N_235  and  CA_237
REMARK   72  A    between atoms: CA_237  and  CB_239
REMARK   73  A    between atoms: CA_237  and  C_250
REMARK   74  A    between atoms: CB_239  and  CG_242
REMARK   75  A    between atoms: CG_242  and  SD_245
REMARK   76  A    between atoms: SD_245  and  CE_246
REMARK   77  A    between atoms: N_252  and  CA_254
REMARK   78  A    between atoms: CA_254  and  CB_256
REMARK   79  A    between atoms: CA_254  and  C_271
REMARK   80  A    between atoms: CB_256  and  CG_259
REMARK   81  A    between atoms: CZ_264  and  OH_265
REMARK   82  A    between atoms: N_273  and  CA_275
REMARK   83  A    between atoms: CA_275  and  C_278
REMARK   84  A    between atoms: N_280  and  CA_282
REMARK   85  A    between atoms: CA_282  and  CB_284
REMARK   86  A    between atoms: CA_282  and  C_288
REMARK   87  A    between atoms: N_290  and  CA_292
REMARK   88  A    between atoms: CA_292  and  CB_294
REMARK   89  A    between atoms: CA_292  and  C_302
REMARK   90  A    between atoms: CB_294  and  CG_297
REMARK   91  A    between atoms: N_304  and  CA_306
REMARK   92  A    between atoms: CA_306  and  CB_308
REMARK   93  A    between atoms: CA_306  and  C_313
REMARK   94  A    between atoms: CB_308  and  SG_311
REMARK   95  A    between atoms: N_315  and  CA_317
REMARK   96  A    between atoms: CA_317  and  CB_319
REMARK   97  A    between atoms: CA_317  and  C_334
REMARK   98  A    between atoms: CB_319  and  CG_322
REMARK   99  A    between atoms: CZ_327  and  OH_328
REMARK  100  A    between atoms: N_336  and  CA_338
REMARK  101  A    between atoms: CA_338  and  CB_340
REMARK  102  A    between atoms: CA_338  and  C_358
REMARK  103  A    between atoms: CB_340  and  CG_343
REMARK  104  A    between atoms: CG_343  and  CD_346
REMARK  105  A    between atoms: CD_346  and  NE_349
REMARK  106  A    between atoms: N_360  and  CA_362
REMARK  107  A    between atoms: CA_362  and  CB_364
REMARK  108  A    between atoms: CA_362  and  C_380
REMARK  109  A    between atoms: CB_364  and  CG_367
REMARK  110  A    between atoms: CG_367  and  CD_370
REMARK  111  A    between atoms: CD_370  and  CE_373
REMARK  112  A    between atoms: CE_373  and  NZ_376
REMARK  113  A    between atoms: N_382  and  CA_384
REMARK  114  A    between atoms: CA_384  and  CB_386
REMARK  115  A    between atoms: CA_384  and  C_394
REMARK  116  A    between atoms: CB_386  and  CG_389
REMARK  117  A    between atoms: CA_406  and  C_408
REMARK  118  A    between atoms: N_410  and  CA_412
REMARK  119  A    between atoms: CA_412  and  CB_414
REMARK  120  A    between atoms: CA_412  and  C_424
REMARK  121  A    between atoms: CB_414  and  CG1_416
REMARK  122  A    between atoms: CB_414  and  CG2_420
REMARK  123  A    between atoms: N_426  and  CA_428
REMARK  124  A    between atoms: CA_428  and  CB_430
REMARK  125  A    between atoms: CA_428  and  C_441
REMARK  126  A    between atoms: CB_430  and  CG_433
REMARK  127  A    between atoms: N_443  and  CA_445
REMARK  128  A    between atoms: CA_445  and  CB_447
REMARK  129  A    between atoms: CA_445  and  C_461
REMARK  130  A    between atoms: CB_447  and  CG_450
REMARK  131  A    between atoms: N_463  and  CA_465
REMARK  132  A    between atoms: CA_465  and  CB_467
REMARK  133  A    between atoms: CA_465  and  C_478
REMARK  134  A    between atoms: CB_467  and  CG_470
REMARK  135  A    between atoms: CG_470  and  CD_473
REMARK  136  A    between atoms: N_480  and  CA_482
REMARK  137  A    between atoms: CA_482  and  CB_484
REMARK  138  A    between atoms: CA_482  and  C_495
REMARK  139  A    between atoms: CB_484  and  CG_487
REMARK  140  A    between atoms: N_497  and  CA_499
REMARK  141  A    between atoms: CA_499  and  CB_501
REMARK  142  A    between atoms: CA_499  and  C_515
REMARK  143  A    between atoms: CB_501  and  CG_504
REMARK  144  A    between atoms: N_517  and  CA_519
REMARK  145  A    between atoms: CA_519  and  CB_521
REMARK  146  A    between atoms: CA_519  and  C_526
REMARK  147  A    between atoms: CB_521  and  OG_524
REMARK  148  A    between atoms: N_528  and  CA_530
REMARK  149  A    between atoms: CA_530  and  CB_532
REMARK  150  A    between atoms: CA_530  and  C_543
REMARK  151  A    between atoms: CB_532  and  CG_535
REMARK  152  A    between atoms: CA_555  and  C_557
REMARK  153  A    between atoms: N_559  and  CA_561
REMARK  154  A    between atoms: CA_561  and  C_564
REMARK  155  A    between atoms: N_566  and  CA_568
REMARK  156  A    between atoms: CA_568  and  CB_570
REMARK  157  A    between atoms: CA_568  and  C_576
REMARK  158  A    between atoms: CB_570  and  CG_573
REMARK  159  A    between atoms: N_578  and  CA_580
REMARK  160  A    between atoms: CA_580  and  CB_582
REMARK  161  A    between atoms: CA_580  and  C_587
REMARK  162  A    between atoms: CB_582  and  OG_585
REMARK  163  A    between atoms: N_589  and  CA_591
REMARK  164  A    between atoms: CA_591  and  CB_593
REMARK  165  A    between atoms: CA_591  and  C_599
REMARK  166  A    between atoms: CB_593  and  CG_596
REMARK  167  A    between atoms: CA_603  and  CB_605
REMARK  168  A    between atoms: CB_605  and  CG_608
REMARK  169  A    between atoms: CZ_613  and  OH_614
REMARK  170  A    between atoms: N_622  and  CA_623
REMARK  171  A    between atoms: CA_623  and  C_624
REMARK  172  A    between atoms: N_629  and  CA_630
REMARK  173  A    between atoms: CA_630  and  C_631
REMARK  174  A    between atoms: N_636  and  CA_637
REMARK  175  A    between atoms: CA_637  and  C_638
REMARK  176  A    between atoms: CA_637  and  CB_640
REMARK  177  A    between atoms: CB_640  and  CG1_641
REMARK  178  A    between atoms: CB_640  and  CG2_642
REMARK  179  A    between atoms: N_652  and  CA_653
REMARK  180  A    between atoms: CA_653  and  C_654
REMARK  181  A    between atoms: CA_653  and  CB_656
REMARK  182  A    between atoms: CB_656  and  CG_657
REMARK  183  A    between atoms: CG_657  and  CD_658
REMARK  184  A    between atoms: N_669  and  CA_670
REMARK  185  A    between atoms: CA_670  and  C_671
REMARK  186  A    between atoms: CA_670  and  CB_673
REMARK  187  A    between atoms: CB_673  and  CG1_674
REMARK  188  A    between atoms: CB_673  and  CG2_675
REMARK  189  A    between atoms: CG1_674  and  CD1_676
REMARK  190  A    between atoms: N_688  and  CA_689
REMARK  191  A    between atoms: CA_689  and  C_690
REMARK  192  A    between atoms: CA_689  and  CB_692
REMARK  193  A    between atoms: CB_692  and  CG1_693
REMARK  194  A    between atoms: CB_692  and  CG2_694
REMARK  195  A    between atoms: N_704  and  CA_705
REMARK  196  A    between atoms: CA_705  and  C_706
REMARK  197  A    between atoms: N_711  and  CA_712
REMARK  198  A    between atoms: CA_712  and  C_713
REMARK  199  A    between atoms: CA_712  and  CB_715
REMARK  200  A    between atoms: CB_715  and  CG_716
REMARK  201  A    between atoms: CG_716  and  CD_717
REMARK  202  A    between atoms: N_728  and  CA_729
REMARK  203  A    between atoms: CA_729  and  C_730
REMARK  204  A    between atoms: CA_729  and  CB_732
REMARK  205  A    between atoms: CB_732  and  CG_733
REMARK  206  A    between atoms: N_740  and  CA_741
REMARK  207  A    between atoms: CA_741  and  C_742
REMARK  208  A    between atoms: CA_741  and  CB_744
REMARK  209  A    between atoms: CB_744  and  CG_745
REMARK  210  A    between atoms: CG_745  and  CD_746
REMARK  211  A    between atoms: N_755  and  CA_756
REMARK  212  A    between atoms: CA_756  and  C_757
REMARK  213  A    between atoms: CA_756  and  CB_759
REMARK  214  A    between atoms: CB_759  and  OG1_760
REMARK  215  A    between atoms: CB_759  and  CG2_761
REMARK  216  A    between atoms: N_769  and  CA_770
REMARK  217  A    between atoms: CA_770  and  C_771
REMARK  218  A    between atoms: CA_770  and  CB_773
REMARK  219  A    between atoms: CB_773  and  CG_774
REMARK  220  A    between atoms: N_781  and  CA_782
REMARK  221  A    between atoms: CA_782  and  C_783
REMARK  222  A    between atoms: CA_782  and  CB_785
REMARK  223  A    between atoms: CB_785  and  CG_786
REMARK  224  A    between atoms: N_793  and  CA_794
REMARK  225  A    between atoms: CA_794  and  C_795
REMARK  226  A    between atoms: CA_794  and  CB_797
REMARK  227  A    between atoms: CB_797  and  CG_798
REMARK  228  A    between atoms: CG_798  and  CD_799
REMARK  229  A    between atoms: CD_799  and  NE_800
REMARK  230  A    between atoms: CA_818  and  C_819
REMARK  231  A    between atoms: N_831  and  CA_832
REMARK  232  A    between atoms: CA_832  and  C_833
REMARK  233  A    between atoms: CA_832  and  CB_835
REMARK  234  A    between atoms: CB_835  and  CG_836
REMARK  235  A    between atoms: CG_836  and  CD_837
REMARK  236  A    between atoms: N_846  and  CA_847
REMARK  237  A    between atoms: CA_847  and  C_848
REMARK  238  A    between atoms: CA_847  and  CB_850
REMARK  239  A    between atoms: CB_850  and  SG_851
REMARK  240  A    between atoms: CA_858  and  C_859
REMARK  241  A    between atoms: N_871  and  CA_872
REMARK  242  A    between atoms: CA_872  and  C_873
REMARK  243  A    between atoms: CA_872  and  CB_875
REMARK  244  A    between atoms: CB_875  and  CG_876
REMARK  245  A    between atoms: CZ_881  and  OH_882
REMARK  246  A    between atoms: N_892  and  CA_893
REMARK  247  A    between atoms: CA_893  and  C_894
REMARK  248  A    between atoms: CA_900  and  C_901
REMARK  249  A    between atoms: N_913  and  CA_914
REMARK  250  A    between atoms: CA_914  and  C_915
REMARK  251  A    between atoms: CA_914  and  CB_917
REMARK  252  A    between atoms: CB_917  and  OG_918
REMARK  253  A    between atoms: N_924  and  CA_925
REMARK  254  A    between atoms: CA_925  and  C_926
REMARK  255  A    between atoms: CA_925  and  CB_928
REMARK  256  A    between atoms: CB_928  and  SG_929
REMARK  257  A    between atoms: N_935  and  CA_936
REMARK  258  A    between atoms: CA_936  and  C_937
REMARK  259  A    between atoms: CA_936  and  CB_939
REMARK  260  A    between atoms: CB_939  and  CG_940
REMARK  261  A    between atoms: CZ_945  and  OH_946
REMARK  262  A    between atoms: N_956  and  CA_957
REMARK  263  A    between atoms: CA_957  and  C_958
REMARK  264  A    between atoms: CA_957  and  CB_960
REMARK  265  A    between atoms: CB_960  and  CG_961
REMARK  266  A    between atoms: CG_961  and  CD_962
REMARK  267  A    between atoms: CD_962  and  NE_963
REMARK  268  A    between atoms: N_980  and  CA_981
REMARK  269  A    between atoms: CA_981  and  C_982
REMARK  270  A    between atoms: CA_981  and  CB_984
REMARK  271  A    between atoms: CB_984  and  CG_985
REMARK  272  A    between atoms: CG_985  and  CD_986
REMARK  273  A    between atoms: CD_986  and  CE_987
REMARK  274  A    between atoms: CE_987  and  NZ_988
REMARK  275  A    between atoms: N_1002  and  CA_1003
REMARK  276  A    between atoms: CA_1003  and  C_1004
REMARK  277  A    between atoms: CA_1003  and  CB_1006
REMARK  278  A    between atoms: CB_1006  and  CG_1007
REMARK  279  A    between atoms: CA_1017  and  C_1018
REMARK  280  A    between atoms: N_1030  and  CA_1031
REMARK  281  A    between atoms: CA_1031  and  C_1032
REMARK  282  A    between atoms: CA_1031  and  CB_1034
REMARK  283  A    between atoms: CB_1034  and  CG_1035
REMARK  284  A    between atoms: CG_1035  and  CD_1036
REMARK  285  A    between atoms: N_1047  and  CA_1048
REMARK  286  A    between atoms: CA_1048  and  C_1049
REMARK  287  A    between atoms: CA_1048  and  CB_1051
REMARK  288  A    between atoms: CB_1051  and  CG_1052
REMARK  289  A    between atoms: N_1064  and  CA_1065
REMARK  290  A    between atoms: CA_1065  and  C_1066
REMARK  291  A    between atoms: CA_1065  and  CB_1068
REMARK  292  A    between atoms: CB_1068  and  CG_1069
REMARK  293  A    between atoms: CG_1069  and  CD_1070
REMARK  294  A    between atoms: CD_1070  and  CE_1071
REMARK  295  A    between atoms: CE_1071  and  NZ_1072
REMARK  296  A    between atoms: N_1086  and  CA_1087
REMARK  297  A    between atoms: CA_1087  and  C_1088
REMARK  298  A    between atoms: CA_1087  and  CB_1090
REMARK  299  A    between atoms: CB_1090  and  CG1_1091
REMARK  300  A    between atoms: CB_1090  and  CG2_1092
REMARK  301  A    between atoms: CG1_1091  and  CD1_1093
REMARK  302  A    between atoms: N_1105  and  CA_1106
REMARK  303  A    between atoms: CA_1106  and  C_1107
REMARK  304  A    between atoms: CA_1106  and  CB_1109
REMARK  305  A    between atoms: CB_1109  and  CG_1110
REMARK  306  A    between atoms: CG_1110  and  CD_1111
REMARK  307  A    between atoms: N_1120  and  CA_1121
REMARK  308  A    between atoms: CA_1121  and  C_1122
REMARK  309  A    between atoms: CA_1121  and  CB_1124
REMARK  310  A    between atoms: CB_1124  and  CG_1125
REMARK  311  A    between atoms: CZ_1130  and  OH_1131
REMARK  312  A    between atoms: N_1141  and  CA_1142
REMARK  313  A    between atoms: CA_1142  and  C_1143
REMARK  314  A    between atoms: CA_1142  and  CB_1145
REMARK  315  A    between atoms: CB_1145  and  CG_1146
REMARK  316  A    between atoms: CG_1146  and  CD_1147
REMARK  317  A    between atoms: CD_1147  and  NE_1148
REMARK  318  A    between atoms: N_1165  and  CA_1166
REMARK  319  A    between atoms: CA_1166  and  C_1167
REMARK  320  A    between atoms: CA_1166  and  CB_1169
REMARK  321  A    between atoms: CB_1169  and  CG_1170
REMARK  322  A    between atoms: N_1182  and  CA_1183
REMARK  323  A    between atoms: CA_1183  and  C_1184
REMARK  324  A    between atoms: CA_1183  and  CB_1186
REMARK  325  A    between atoms: CB_1186  and  CG_1187
REMARK  326  A    between atoms: N_1196  and  CA_1197
REMARK  327  A    between atoms: CA_1197  and  C_1198
REMARK  328  A    between atoms: CA_1197  and  CB_1200
REMARK  329  A    between atoms: CB_1200  and  OG1_1201
REMARK  330  A    between atoms: CB_1200  and  CG2_1202
REMARK  331  A    between atoms: N_1210  and  CA_1211
REMARK  332  A    between atoms: CA_1211  and  C_1212
REMARK  333  A    between atoms: CA_1211  and  CB_1214
REMARK  334  A    between atoms: CB_1214  and  CG_1215
REMARK  335  A    between atoms: CG_1215  and  CD1_1216
REMARK  336  A    between atoms: CG_1215  and  CD2_1217
REMARK  337  A    between atoms: CA_1230  and  C_1231
REMARK  338  A    between atoms: N_1243  and  CA_1244
REMARK  339  A    between atoms: CA_1244  and  C_1245
REMARK  340  A    between atoms: CA_1244  and  CB_1247
REMARK  341  A    between atoms: CB_1247  and  CG1_1248
REMARK  342  A    between atoms: CB_1247  and  CG2_1249
REMARK  343  A    between atoms: N_1259  and  CA_1260
REMARK  344  A    between atoms: CA_1260  and  C_1261
REMARK  345  A    between atoms: CA_1260  and  CB_1263
REMARK  346  A    between atoms: CB_1263  and  CG_1264
REMARK  347  A    between atoms: CG_1264  and  CD_1265
REMARK  348  A    between atoms: CD_1265  and  NE_1266
REMARK  349  A    between atoms: N_1283  and  CA_1284
REMARK  350  A    between atoms: CA_1284  and  C_1285
REMARK  351  A    between atoms: CA_1284  and  CB_1287
REMARK  352  A    between atoms: CB_1287  and  CG_1288
REMARK  353  A    between atoms: N_1297  and  CA_1298
REMARK  354  A    between atoms: CA_1298  and  C_1299
REMARK  355  A    between atoms: CA_1298  and  CB_1301
REMARK  356  A    between atoms: CB_1301  and  CG1_1302
REMARK  357  A    between atoms: CB_1301  and  CG2_1303
REMARK  358  A    between atoms: N_1313  and  CA_1314
REMARK  359  A    between atoms: CA_1314  and  C_1315
REMARK  360  A    between atoms: CA_1314  and  CB_1317
REMARK  361  A    between atoms: CB_1317  and  CG_1318
REMARK  362  A    between atoms: CG_1318  and  CD1_1319
REMARK  363  A    between atoms: CG_1318  and  CD2_1320
REMARK  364  A    between atoms: N_1332  and  CA_1333
REMARK  365  A    between atoms: CA_1333  and  C_1334
REMARK  366  A    between atoms: CA_1333  and  CB_1336
REMARK  367  A    between atoms: CB_1336  and  CG_1337
REMARK  368  A    between atoms: N_1344  and  CA_1345
REMARK  369  A    between atoms: CA_1345  and  C_1346
REMARK  370  A    between atoms: CA_1345  and  CB_1348
REMARK  371  A    between atoms: CB_1348  and  CG_1349
REMARK  372  A    between atoms: CG_1349  and  CD_1350
REMARK                            x       y       z     vdW  Elec       q    Type
REMARK                         _______ _______ _______ _____ _____    ______ ____
ROOT
ATOM      1  C   TYR A  42      -8.990   8.029  27.761  0.00  0.00    +0.000 C 
ATOM      2  O   TYR A  42      -8.358   7.971  28.833  0.00  0.00    +0.000 OA
ENDROOT
TORSDOF 0
REMARK  Name = /Users/acegid/Desktop/Smoking_Research/Docking/Docking_All_PDB/All_PDB/2KQC_H.pdb
REMARK  372 active torsions:
REMARK  status: ('A' for Active; 'I' for Inactive)
REMARK    1  A    between atoms: N_1  and  CA_5
REMARK    2  A    between atoms: CA_5  and  C_8
REMARK    3  A    between atoms: CA_20  and  C_22
REMARK    4  A    between atoms: N_24  and  CA_26
REMARK    5  A    between atoms: CA_26  and  CB_28
REMARK    6  A    between atoms: CA_26  and  C_41
REMARK    7  A    between atoms: CB_28  and  CG_31
REMARK    8  A    between atoms: CG_31  and  CD1_33
REMARK    9  A    between atoms: CG_31  and  CD2_37
REMARK   10  A    between atoms: N_43  and  CA_45
REMARK   11  A    between atoms: CA_45  and  C_48
REMARK   12  A    between atoms: N_50  and  CA_52
REMARK   13  A    between atoms: CA_52  and  CB_54
REMARK   14  A    between atoms: CA_52  and  C_59
REMARK   15  A    between atoms: CB_54  and  OG_57
REMARK   16  A    between atoms: N_61  and  CA_63
REMARK   17  A    between atoms: CA_63  and  C_66
REMARK   18  A    between atoms: N_68  and  CA_70
REMARK   19  A    between atoms: CA_70  and  CB_72
REMARK   20  A    between atoms: CA_70  and  C_77
REMARK   21  A    between atoms: CB_72  and  OG_75
REMARK   22  A    between atoms: N_79  and  CA_81
REMARK   23  A    between atoms: CA_81  and  CB_83
REMARK   24  A    between atoms: CA_81  and  C_92
REMARK   25  A    between atoms: CB_83  and  CG_86
REMARK   26  A    between atoms: CG_86  and  CD_89
REMARK   27  A    between atoms: N_94  and  CA_96
REMARK   28  A    between atoms: CA_96  and  C_99
REMARK   29  A    between atoms: N_101  and  CA_103
REMARK   30  A    between atoms: CA_103  and  CB_105
REMARK   31  A    between atoms: CA_103  and  C_113
REMARK   32  A    between atoms: CB_105  and  CG_108
REMARK   33  A    between atoms: N_115  and  CA_117
REMARK   34  A    between atoms: CA_117  and  CB_119
REMARK   35  A    between atoms: CA_117  and  C_135
REMARK   36  A    between atoms: CB_119  and  CG_122
REMARK   37  A    between atoms: CG_122  and  CD_125
REMARK   38  A    between atoms: CD_125  and  CE_128
REMARK   39  A    between atoms: CE_128  and  NZ_131
REMARK   40  A    between atoms: N_137  and  CA_139
REMARK   41  A    between atoms: CA_139  and  CB_141
REMARK   42  A    between atoms: CA_139  and  C_151
REMARK   43  A    between atoms: CB_141  and  CG1_143
REMARK   44  A    between atoms: CB_141  and  CG2_147
REMARK   45  A    between atoms: N_153  and  CA_155
REMARK   46  A    between atoms: CA_155  and  CB_157
REMARK   47  A    between atoms: CA_155  and  C_173
REMARK   48  A    between atoms: CB_157  and  CG_160
REMARK   49  A    between atoms: CG_160  and  CD_163
REMARK   50  A    between atoms: CD_163  and  CE_166
REMARK   51  A    between atoms: CE_166  and  NZ_169
REMARK   52  A    between atoms: N_175  and  CA_177
REMARK   53  A    between atoms: CA_177  and  CB_179
REMARK   54  A    between atoms: CA_177  and  C_197
REMARK   55  A    between atoms: CB_179  and  CG_182
REMARK   56  A    between atoms: CG_182  and  CD_185
REMARK   57  A    between atoms: CD_185  and  NE_188
REMARK   58  A    between atoms: N_199  and  CA_201
REMARK   59  A    between atoms: CA_201  and  CB_203
REMARK   60  A    between atoms: CA_201  and  C_211
REMARK   61  A    between atoms: CB_203  and  CG2_205
REMARK   62  A    between atoms: CB_203  and  OG1_209
REMARK   63  A    between atoms: N_213  and  CA_215
REMARK   64  A    between atoms: CA_215  and  CB_217
REMARK   65  A    between atoms: CA_215  and  C_222
REMARK   66  A    between atoms: CB_217  and  OG_220
REMARK   67  A    between atoms: N_224  and  CA_226
REMARK   68  A    between atoms: CA_226  and  CB_228
REMARK   69  A    between atoms: CA_226  and  C_233
REMARK   70  A    between atoms: CB_228  and  SG_231
REMARK   71  A    between atoms: N_235  and  CA_237
REMARK   72  A    between atoms: CA_237  and  CB_239
REMARK   73  A    between atoms: CA_237  and  C_250
REMARK   74  A    between atoms: CB_239  and  CG_242
REMARK   75  A    between atoms: CG_242  and  SD_245
REMARK   76  A    between atoms: SD_245  and  CE_246
REMARK   77  A    between atoms: N_252  and  CA_254
REMARK   78  A    between atoms: CA_254  and  CB_256
REMARK   79  A    between atoms: CA_254  and  C_271
REMARK   80  A    between atoms: CB_256  and  CG_259
REMARK   81  A    between atoms: CZ_264  and  OH_265
REMARK   82  A    between atoms: N_273  and  CA_275
REMARK   83  A    between atoms: CA_275  and  C_278
REMARK   84  A    between atoms: N_280  and  CA_282
REMARK   85  A    between atoms: CA_282  and  CB_284
REMARK   86  A    between atoms: CA_282  and  C_288
REMARK   87  A    between atoms: N_290  and  CA_292
REMARK   88  A    between atoms: CA_292  and  CB_294
REMARK   89  A    between atoms: CA_292  and  C_302
REMARK   90  A    between atoms: CB_294  and  CG_297
REMARK   91  A    between atoms: N_304  and  CA_306
REMARK   92  A    between atoms: CA_306  and  CB_308
REMARK   93  A    between atoms: CA_306  and  C_313
REMARK   94  A    between atoms: CB_308  and  SG_311
REMARK   95  A    between atoms: N_315  and  CA_317
REMARK   96  A    between atoms: CA_317  and  CB_319
REMARK   97  A    between atoms: CA_317  and  C_334
REMARK   98  A    between atoms: CB_319  and  CG_322
REMARK   99  A    between atoms: CZ_327  and  OH_328
REMARK  100  A    between atoms: N_336  and  CA_338
REMARK  101  A    between atoms: CA_338  and  CB_340
REMARK  102  A    between atoms: CA_338  and  C_358
REMARK  103  A    between atoms: CB_340  and  CG_343
REMARK  104  A    between atoms: CG_343  and  CD_346
REMARK  105  A    between atoms: CD_346  and  NE_349
REMARK  106  A    between atoms: N_360  and  CA_362
REMARK  107  A    between atoms: CA_362  and  CB_364
REMARK  108  A    between atoms: CA_362  and  C_380
REMARK  109  A    between atoms: CB_364  and  CG_367
REMARK  110  A    between atoms: CG_367  and  CD_370
REMARK  111  A    between atoms: CD_370  and  CE_373
REMARK  112  A    between atoms: CE_373  and  NZ_376
REMARK  113  A    between atoms: N_382  and  CA_384
REMARK  114  A    between atoms: CA_384  and  CB_386
REMARK  115  A    between atoms: CA_384  and  C_394
REMARK  116  A    between atoms: CB_386  and  CG_389
REMARK  117  A    between atoms: CA_406  and  C_408
REMARK  118  A    between atoms: N_410  and  CA_412
REMARK  119  A    between atoms: CA_412  and  CB_414
REMARK  120  A    between atoms: CA_412  and  C_424
REMARK  121  A    between atoms: CB_414  and  CG1_416
REMARK  122  A    between atoms: CB_414  and  CG2_420
REMARK  123  A    between atoms: N_426  and  CA_428
REMARK  124  A    between atoms: CA_428  and  CB_430
REMARK  125  A    between atoms: CA_428  and  C_441
REMARK  126  A    between atoms: CB_430  and  CG_433
REMARK  127  A    between atoms: N_443  and  CA_445
REMARK  128  A    between atoms: CA_445  and  CB_447
REMARK  129  A    between atoms: CA_445  and  C_461
REMARK  130  A    between atoms: CB_447  and  CG_450
REMARK  131  A    between atoms: N_463  and  CA_465
REMARK  132  A    between atoms: CA_465  and  CB_467
REMARK  133  A    between atoms: CA_465  and  C_478
REMARK  134  A    between atoms: CB_467  and  CG_470
REMARK  135  A    between atoms: CG_470  and  CD_473
REMARK  136  A    between atoms: N_480  and  CA_482
REMARK  137  A    between atoms: CA_482  and  CB_484
REMARK  138  A    between atoms: CA_482  and  C_495
REMARK  139  A    between atoms: CB_484  and  CG_487
REMARK  140  A    between atoms: N_497  and  CA_499
REMARK  141  A    between atoms: CA_499  and  CB_501
REMARK  142  A    between atoms: CA_499  and  C_515
REMARK  143  A    between atoms: CB_501  and  CG_504
REMARK  144  A    between atoms: N_517  and  CA_519
REMARK  145  A    between atoms: CA_519  and  CB_521
REMARK  146  A    between atoms: CA_519  and  C_526
REMARK  147  A    between atoms: CB_521  and  OG_524
REMARK  148  A    between atoms: N_528  and  CA_530
REMARK  149  A    between atoms: CA_530  and  CB_532
REMARK  150  A    between atoms: CA_530  and  C_543
REMARK  151  A    between atoms: CB_532  and  CG_535
REMARK  152  A    between atoms: CA_555  and  C_557
REMARK  153  A    between atoms: N_559  and  CA_561
REMARK  154  A    between atoms: CA_561  and  C_564
REMARK  155  A    between atoms: N_566  and  CA_568
REMARK  156  A    between atoms: CA_568  and  CB_570
REMARK  157  A    between atoms: CA_568  and  C_576
REMARK  158  A    between atoms: CB_570  and  CG_573
REMARK  159  A    between atoms: N_578  and  CA_580
REMARK  160  A    between atoms: CA_580  and  CB_582
REMARK  161  A    between atoms: CA_580  and  C_587
REMARK  162  A    between atoms: CB_582  and  OG_585
REMARK  163  A    between atoms: N_589  and  CA_591
REMARK  164  A    between atoms: CA_591  and  CB_593
REMARK  165  A    between atoms: CA_591  and  C_599
REMARK  166  A    between atoms: CB_593  and  CG_596
REMARK  167  A    between atoms: CA_603  and  CB_605
REMARK  168  A    between atoms: CB_605  and  CG_608
REMARK  169  A    between atoms: CZ_613  and  OH_614
REMARK  170  A    between atoms: N_622  and  CA_623
REMARK  171  A    between atoms: CA_623  and  C_624
REMARK  172  A    between atoms: N_629  and  CA_630
REMARK  173  A    between atoms: CA_630  and  C_631
REMARK  174  A    between atoms: N_636  and  CA_637
REMARK  175  A    between atoms: CA_637  and  C_638
REMARK  176  A    between atoms: CA_637  and  CB_640
REMARK  177  A    between atoms: CB_640  and  CG1_641
REMARK  178  A    between atoms: CB_640  and  CG2_642
REMARK  179  A    between atoms: N_652  and  CA_653
REMARK  180  A    between atoms: CA_653  and  C_654
REMARK  181  A    between atoms: CA_653  and  CB_656
REMARK  182  A    between atoms: CB_656  and  CG_657
REMARK  183  A    between atoms: CG_657  and  CD_658
REMARK  184  A    between atoms: N_669  and  CA_670
REMARK  185  A    between atoms: CA_670  and  C_671
REMARK  186  A    between atoms: CA_670  and  CB_673
REMARK  187  A    between atoms: CB_673  and  CG1_674
REMARK  188  A    between atoms: CB_673  and  CG2_675
REMARK  189  A    between atoms: CG1_674  and  CD1_676
REMARK  190  A    between atoms: N_688  and  CA_689
REMARK  191  A    between atoms: CA_689  and  C_690
REMARK  192  A    between atoms: CA_689  and  CB_692
REMARK  193  A    between atoms: CB_692  and  CG1_693
REMARK  194  A    between atoms: CB_692  and  CG2_694
REMARK  195  A    between atoms: N_704  and  CA_705
REMARK  196  A    between atoms: CA_705  and  C_706
REMARK  197  A    between atoms: N_711  and  CA_712
REMARK  198  A    between atoms: CA_712  and  C_713
REMARK  199  A    between atoms: CA_712  and  CB_715
REMARK  200  A    between atoms: CB_715  and  CG_716
REMARK  201  A    between atoms: CG_716  and  CD_717
REMARK  202  A    between atoms: N_728  and  CA_729
REMARK  203  A    between atoms: CA_729  and  C_730
REMARK  204  A    between atoms: CA_729  and  CB_732
REMARK  205  A    between atoms: CB_732  and  CG_733
REMARK  206  A    between atoms: N_740  and  CA_741
REMARK  207  A    between atoms: CA_741  and  C_742
REMARK  208  A    between atoms: CA_741  and  CB_744
REMARK  209  A    between atoms: CB_744  and  CG_745
REMARK  210  A    between atoms: CG_745  and  CD_746
REMARK  211  A    between atoms: N_755  and  CA_756
REMARK  212  A    between atoms: CA_756  and  C_757
REMARK  213  A    between atoms: CA_756  and  CB_759
REMARK  214  A    between atoms: CB_759  and  OG1_760
REMARK  215  A    between atoms: CB_759  and  CG2_761
REMARK  216  A    between atoms: N_769  and  CA_770
REMARK  217  A    between atoms: CA_770  and  C_771
REMARK  218  A    between atoms: CA_770  and  CB_773
REMARK  219  A    between atoms: CB_773  and  CG_774
REMARK  220  A    between atoms: N_781  and  CA_782
REMARK  221  A    between atoms: CA_782  and  C_783
REMARK  222  A    between atoms: CA_782  and  CB_785
REMARK  223  A    between atoms: CB_785  and  CG_786
REMARK  224  A    between atoms: N_793  and  CA_794
REMARK  225  A    between atoms: CA_794  and  C_795
REMARK  226  A    between atoms: CA_794  and  CB_797
REMARK  227  A    between atoms: CB_797  and  CG_798
REMARK  228  A    between atoms: CG_798  and  CD_799
REMARK  229  A    between atoms: CD_799  and  NE_800
REMARK  230  A    between atoms: CA_818  and  C_819
REMARK  231  A    between atoms: N_831  and  CA_832
REMARK  232  A    between atoms: CA_832  and  C_833
REMARK  233  A    between atoms: CA_832  and  CB_835
REMARK  234  A    between atoms: CB_835  and  CG_836
REMARK  235  A    between atoms: CG_836  and  CD_837
REMARK  236  A    between atoms: N_846  and  CA_847
REMARK  237  A    between atoms: CA_847  and  C_848
REMARK  238  A    between atoms: CA_847  and  CB_850
REMARK  239  A    between atoms: CB_850  and  SG_851
REMARK  240  A    between atoms: CA_858  and  C_859
REMARK  241  A    between atoms: N_871  and  CA_872
REMARK  242  A    between atoms: CA_872  and  C_873
REMARK  243  A    between atoms: CA_872  and  CB_875
REMARK  244  A    between atoms: CB_875  and  CG_876
REMARK  245  A    between atoms: CZ_881  and  OH_882
REMARK  246  A    between atoms: N_892  and  CA_893
REMARK  247  A    between atoms: CA_893  and  C_894
REMARK  248  A    between atoms: CA_900  and  C_901
REMARK  249  A    between atoms: N_913  and  CA_914
REMARK  250  A    between atoms: CA_914  and  C_915
REMARK  251  A    between atoms: CA_914  and  CB_917
REMARK  252  A    between atoms: CB_917  and  OG_918
REMARK  253  A    between atoms: N_924  and  CA_925
REMARK  254  A    between atoms: CA_925  and  C_926
REMARK  255  A    between atoms: CA_925  and  CB_928
REMARK  256  A    between atoms: CB_928  and  SG_929
REMARK  257  A    between atoms: N_935  and  CA_936
REMARK  258  A    between atoms: CA_936  and  C_937
REMARK  259  A    between atoms: CA_936  and  CB_939
REMARK  260  A    between atoms: CB_939  and  CG_940
REMARK  261  A    between atoms: CZ_945  and  OH_946
REMARK  262  A    between atoms: N_956  and  CA_957
REMARK  263  A    between atoms: CA_957  and  C_958
REMARK  264  A    between atoms: CA_957  and  CB_960
REMARK  265  A    between atoms: CB_960  and  CG_961
REMARK  266  A    between atoms: CG_961  and  CD_962
REMARK  267  A    between atoms: CD_962  and  NE_963
REMARK  268  A    between atoms: N_980  and  CA_981
REMARK  269  A    between atoms: CA_981  and  C_982
REMARK  270  A    between atoms: CA_981  and  CB_984
REMARK  271  A    between atoms: CB_984  and  CG_985
REMARK  272  A    between atoms: CG_985  and  CD_986
REMARK  273  A    between atoms: CD_986  and  CE_987
REMARK  274  A    between atoms: CE_987  and  NZ_988
REMARK  275  A    between atoms: N_1002  and  CA_1003
REMARK  276  A    between atoms: CA_1003  and  C_1004
REMARK  277  A    between atoms: CA_1003  and  CB_1006
REMARK  278  A    between atoms: CB_1006  and  CG_1007
REMARK  279  A    between atoms: CA_1017  and  C_1018
REMARK  280  A    between atoms: N_1030  and  CA_1031
REMARK  281  A    between atoms: CA_1031  and  C_1032
REMARK  282  A    between atoms: CA_1031  and  CB_1034
REMARK  283  A    between atoms: CB_1034  and  CG_1035
REMARK  284  A    between atoms: CG_1035  and  CD_1036
REMARK  285  A    between atoms: N_1047  and  CA_1048
REMARK  286  A    between atoms: CA_1048  and  C_1049
REMARK  287  A    between atoms: CA_1048  and  CB_1051
REMARK  288  A    between atoms: CB_1051  and  CG_1052
REMARK  289  A    between atoms: N_1064  and  CA_1065
REMARK  290  A    between atoms: CA_1065  and  C_1066
REMARK  291  A    between atoms: CA_1065  and  CB_1068
REMARK  292  A    between atoms: CB_1068  and  CG_1069
REMARK  293  A    between atoms: CG_1069  and  CD_1070
REMARK  294  A    between atoms: CD_1070  and  CE_1071
REMARK  295  A    between atoms: CE_1071  and  NZ_1072
REMARK  296  A    between atoms: N_1086  and  CA_1087
REMARK  297  A    between atoms: CA_1087  and  C_1088
REMARK  298  A    between atoms: CA_1087  and  CB_1090
REMARK  299  A    between atoms: CB_1090  and  CG1_1091
REMARK  300  A    between atoms: CB_1090  and  CG2_1092
REMARK  301  A    between atoms: CG1_1091  and  CD1_1093
REMARK  302  A    between atoms: N_1105  and  CA_1106
REMARK  303  A    between atoms: CA_1106  and  C_1107
REMARK  304  A    between atoms: CA_1106  and  CB_1109
REMARK  305  A    between atoms: CB_1109  and  CG_1110
REMARK  306  A    between atoms: CG_1110  and  CD_1111
REMARK  307  A    between atoms: N_1120  and  CA_1121
REMARK  308  A    between atoms: CA_1121  and  C_1122
REMARK  309  A    between atoms: CA_1121  and  CB_1124
REMARK  310  A    between atoms: CB_1124  and  CG_1125
REMARK  311  A    between atoms: CZ_1130  and  OH_1131
REMARK  312  A    between atoms: N_1141  and  CA_1142
REMARK  313  A    between atoms: CA_1142  and  C_1143
REMARK  314  A    between atoms: CA_1142  and  CB_1145
REMARK  315  A    between atoms: CB_1145  and  CG_1146
REMARK  316  A    between atoms: CG_1146  and  CD_1147
REMARK  317  A    between atoms: CD_1147  and  NE_1148
REMARK  318  A    between atoms: N_1165  and  CA_1166
REMARK  319  A    between atoms: CA_1166  and  C_1167
REMARK  320  A    between atoms: CA_1166  and  CB_1169
REMARK  321  A    between atoms: CB_1169  and  CG_1170
REMARK  322  A    between atoms: N_1182  and  CA_1183
REMARK  323  A    between atoms: CA_1183  and  C_1184
REMARK  324  A    between atoms: CA_1183  and  CB_1186
REMARK  325  A    between atoms: CB_1186  and  CG_1187
REMARK  326  A    between atoms: N_1196  and  CA_1197
REMARK  327  A    between atoms: CA_1197  and  C_1198
REMARK  328  A    between atoms: CA_1197  and  CB_1200
REMARK  329  A    between atoms: CB_1200  and  OG1_1201
REMARK  330  A    between atoms: CB_1200  and  CG2_1202
REMARK  331  A    between atoms: N_1210  and  CA_1211
REMARK  332  A    between atoms: CA_1211  and  C_1212
REMARK  333  A    between atoms: CA_1211  and  CB_1214
REMARK  334  A    between atoms: CB_1214  and  CG_1215
REMARK  335  A    between atoms: CG_1215  and  CD1_1216
REMARK  336  A    between atoms: CG_1215  and  CD2_1217
REMARK  337  A    between atoms: CA_1230  and  C_1231
REMARK  338  A    between atoms: N_1243  and  CA_1244
REMARK  339  A    between atoms: CA_1244  and  C_1245
REMARK  340  A    between atoms: CA_1244  and  CB_1247
REMARK  341  A    between atoms: CB_1247  and  CG1_1248
REMARK  342  A    between atoms: CB_1247  and  CG2_1249
REMARK  343  A    between atoms: N_1259  and  CA_1260
REMARK  344  A    between atoms: CA_1260  and  C_1261
REMARK  345  A    between atoms: CA_1260  and  CB_1263
REMARK  346  A    between atoms: CB_1263  and  CG_1264
REMARK  347  A    between atoms: CG_1264  and  CD_1265
REMARK  348  A    between atoms: CD_1265  and  NE_1266
REMARK  349  A    between atoms: N_1283  and  CA_1284
REMARK  350  A    between atoms: CA_1284  and  C_1285
REMARK  351  A    between atoms: CA_1284  and  CB_1287
REMARK  352  A    between atoms: CB_1287  and  CG_1288
REMARK  353  A    between atoms: N_1297  and  CA_1298
REMARK  354  A    between atoms: CA_1298  and  C_1299
REMARK  355  A    between atoms: CA_1298  and  CB_1301
REMARK  356  A    between atoms: CB_1301  and  CG1_1302
REMARK  357  A    between atoms: CB_1301  and  CG2_1303
REMARK  358  A    between atoms: N_1313  and  CA_1314
REMARK  359  A    between atoms: CA_1314  and  C_1315
REMARK  360  A    between atoms: CA_1314  and  CB_1317
REMARK  361  A    between atoms: CB_1317  and  CG_1318
REMARK  362  A    between atoms: CG_1318  and  CD1_1319
REMARK  363  A    between atoms: CG_1318  and  CD2_1320
REMARK  364  A    between atoms: N_1332  and  CA_1333
REMARK  365  A    between atoms: CA_1333  and  C_1334
REMARK  366  A    between atoms: CA_1333  and  CB_1336
REMARK  367  A    between atoms: CB_1336  and  CG_1337
REMARK  368  A    between atoms: N_1344  and  CA_1345
REMARK  369  A    between atoms: CA_1345  and  C_1346
REMARK  370  A    between atoms: CA_1345  and  CB_1348
REMARK  371  A    between atoms: CB_1348  and  CG_1349
REMARK  372  A    between atoms: CG_1349  and  CD_1350
REMARK                            x       y       z     vdW  Elec       q    Type
REMARK                         _______ _______ _______ _____ _____    ______ ____
ROOT
ATOM      1  CA  LYS A  68      -4.908   7.048  -0.838  0.00  0.00    +0.000 C 
ENDROOT
BRANCH   1   4
ATOM      2  C   ARG A  67      -3.499   6.138  -2.608  0.00  0.00    +0.000 C 
ATOM      3  O   ARG A  67      -2.652   5.872  -1.776  0.00  0.00    +0.000 OA
ATOM      4  N   LYS A  68      -4.636   6.712  -2.267  0.00  0.00    +0.000 N 
ATOM      5  H   LYS A  68      -5.311   6.922  -2.950  0.00  0.00    +0.000 HD
BRANCH   2   6
ATOM      6  CA  ARG A  67      -3.270   5.814  -4.098  0.00  0.00    +0.000 C 
BRANCH   6   9
ATOM      7  C   TYR A  66      -1.386   6.959  -5.142  0.00  0.00    +0.000 C 
ATOM      8  O   TYR A  66      -2.151   7.833  -5.499  0.00  0.00    +0.000 OA
ATOM      9  N   ARG A  67      -1.816   5.924  -4.445  0.00  0.00    +0.000 N 
ATOM     10  H   ARG A  67      -1.188   5.232  -4.145  0.00  0.00    +0.000 HD
BRANCH   7  11
ATOM     11  CA  TYR A  66       0.115   7.050  -5.472  0.00  0.00    +0.000 C 
BRANCH  11  14
ATOM     12  C   CYS A  65       1.649   5.235  -4.926  0.00  0.00    +0.000 C 
ATOM     13  O   CYS A  65       2.079   5.905  -4.005  0.00  0.00    +0.000 OA
ATOM     14  N   TYR A  66       0.696   5.684  -5.708  0.00  0.00    +0.000 N 
ATOM     15  H   TYR A  66       0.364   5.123  -6.438  0.00  0.00    +0.000 HD
BRANCH  12  16
ATOM     16  CA  CYS A  65       2.209   3.833  -5.203  0.00  0.00    +0.000 C 
BRANCH  16  19
ATOM     17  C   SER A  64       3.893   3.669  -6.953  0.00  0.00    +0.000 C 
ATOM     18  O   SER A  64       3.027   3.321  -7.733  0.00  0.00    +0.000 OA
ATOM     19  N   CYS A  65       3.611   3.945  -5.694  0.00  0.00    +0.000 N 
ATOM     20  H   CYS A  65       4.311   4.253  -5.086  0.00  0.00    +0.000 HD
BRANCH  17  21
ATOM     21  CA  SER A  64       5.348   3.832  -7.417  0.00  0.00    +0.000 C 
BRANCH  21  24
ATOM     22  C   PRO A  63       6.914   3.800  -5.547  0.00  0.00    +0.000 C 
ATOM     23  O   PRO A  63       6.777   5.004  -5.445  0.00  0.00    +0.000 OA
ATOM     24  N   SER A  64       6.266   3.119  -6.475  0.00  0.00    +0.000 N 
ATOM     25  H   SER A  64       6.375   2.148  -6.549  0.00  0.00    +0.000 HD
BRANCH  22  29
ATOM     26  C   GLY A  62       6.284   1.348  -3.801  0.00  0.00    +0.000 C 
ATOM     27  O   GLY A  62       5.552   2.202  -3.341  0.00  0.00    +0.000 OA
ATOM     28  N   PRO A  63       7.415   1.625  -4.421  0.00  0.00    +0.000 N 
ATOM     29  CA  PRO A  63       7.849   3.039  -4.586  0.00  0.00    +0.000 C 
ATOM     30  CB  PRO A  63       9.254   2.920  -5.174  0.00  0.00    +0.000 C 
ATOM     31  CG  PRO A  63       9.276   1.585  -5.839  0.00  0.00    +0.000 C 
ATOM     32  CD  PRO A  63       8.383   0.690  -5.023  0.00  0.00    +0.000 C 
BRANCH  26  33
ATOM     33  CA  GLY A  62       5.900  -0.137  -3.674  0.00  0.00    +0.000 C 
BRANCH  33  36
ATOM     34  C   TYR A  61       4.472  -0.356  -5.642  0.00  0.00    +0.000 C 
ATOM     35  O   TYR A  61       5.440  -0.146  -6.347  0.00  0.00    +0.000 OA
ATOM     36  N   GLY A  62       4.576  -0.376  -4.327  0.00  0.00    +0.000 N 
ATOM     37  H   GLY A  62       3.788  -0.549  -3.767  0.00  0.00    +0.000 HD
BRANCH  34  38
ATOM     38  CA  TYR A  61       3.083  -0.623  -6.266  0.00  0.00    +0.000 C 
BRANCH  38  41
ATOM     39  C   PRO A  60       3.298  -3.037  -5.770  0.00  0.00    +0.000 C 
ATOM     40  O   PRO A  60       4.455  -2.993  -6.140  0.00  0.00    +0.000 OA
ATOM     41  N   TYR A  61       2.526  -1.954  -5.786  0.00  0.00    +0.000 N 
ATOM     42  H   TYR A  61       1.577  -2.036  -5.522  0.00  0.00    +0.000 HD
BRANCH  39  46
ATOM     43  C   CYS A  59       2.709  -3.802  -2.936  0.00  0.00    +0.000 C 
ATOM     44  O   CYS A  59       3.919  -3.690  -2.949  0.00  0.00    +0.000 OA
ATOM     45  N   PRO A  60       2.000  -4.122  -3.999  0.00  0.00    +0.000 N 
ATOM     46  CA  PRO A  60       2.688  -4.362  -5.284  0.00  0.00    +0.000 C 
ATOM     47  CB  PRO A  60       1.582  -4.887  -6.204  0.00  0.00    +0.000 C 
ATOM     48  CG  PRO A  60       0.307  -4.385  -5.607  0.00  0.00    +0.000 C 
ATOM     49  CD  PRO A  60       0.538  -4.288  -4.119  0.00  0.00    +0.000 C 
BRANCH  43  50
ATOM     50  CA  CYS A  59       1.932  -3.513  -1.644  0.00  0.00    +0.000 C 
BRANCH  50  53
ATOM     51  C   GLU A  58       2.999  -5.353  -0.420  0.00  0.00    +0.000 C 
ATOM     52  O   GLU A  58       2.677  -6.102  -1.323  0.00  0.00    +0.000 OA
ATOM     53  N   CYS A  59       2.695  -4.068  -0.460  0.00  0.00    +0.000 N 
ATOM     54  H   CYS A  59       2.998  -3.473   0.270  0.00  0.00    +0.000 HD
BRANCH  51  55
ATOM     55  CA  GLU A  58       3.827  -5.874   0.774  0.00  0.00    +0.000 C 
BRANCH  55  58
ATOM     56  C   PRO A  57       3.547  -7.459   2.666  0.00  0.00    +0.000 C 
ATOM     57  O   PRO A  57       4.750  -7.477   2.819  0.00  0.00    +0.000 OA
ATOM     58  N   GLU A  58       2.986  -6.717   1.715  0.00  0.00    +0.000 N 
ATOM     59  H   GLU A  58       2.014  -6.683   1.654  0.00  0.00    +0.000 HD
BRANCH  56  63
ATOM     60  C   ARG A  56       2.455  -7.049   5.696  0.00  0.00    +0.000 C 
ATOM     61  O   ARG A  56       3.575  -7.375   6.035  0.00  0.00    +0.000 OA
ATOM     62  N   PRO A  57       1.905  -7.422   4.560  0.00  0.00    +0.000 N 
ATOM     63  CA  PRO A  57       2.644  -8.279   3.614  0.00  0.00    +0.000 C 
ATOM     64  CB  PRO A  57       1.526  -9.010   2.867  0.00  0.00    +0.000 C 
ATOM     65  CG  PRO A  57       0.301  -8.146   2.995  0.00  0.00    +0.000 C 
ATOM     66  CD  PRO A  57       0.570  -7.094   4.047  0.00  0.00    +0.000 C 
BRANCH  60  67
ATOM     67  CA  ARG A  56       1.591  -6.178   6.626  0.00  0.00    +0.000 C 
BRANCH  67  70
ATOM     68  C   ASP A  55       2.052  -7.551   8.597  0.00  0.00    +0.000 C 
ATOM     69  O   ASP A  55       1.687  -8.525   7.964  0.00  0.00    +0.000 OA
ATOM     70  N   ARG A  56       2.051  -6.345   8.053  0.00  0.00    +0.000 N 
ATOM     71  H   ARG A  56       2.349  -5.564   8.578  0.00  0.00    +0.000 HD
BRANCH  68  72
ATOM     72  CA  ASP A  55       2.528  -7.703  10.051  0.00  0.00    +0.000 C 
BRANCH  72  75
ATOM     73  C   ASP A  54       3.021  -5.884  11.600  0.00  0.00    +0.000 C 
ATOM     74  O   ASP A  54       4.180  -6.255  11.626  0.00  0.00    +0.000 OA
ATOM     75  N   ASP A  55       2.123  -6.519  10.863  0.00  0.00    +0.000 N 
ATOM     76  H   ASP A  55       1.190  -6.224  10.850  0.00  0.00    +0.000 HD
BRANCH  73  77
ATOM     77  CA  ASP A  54       2.577  -4.663  12.435  0.00  0.00    +0.000 C 
BRANCH  77  80
ATOM     78  C   THR A  53       0.389  -3.593  12.364  0.00  0.00    +0.000 C 
ATOM     79  O   THR A  53       0.914  -2.588  11.923  0.00  0.00    +0.000 OA
ATOM     80  N   ASP A  54       1.098  -4.664  12.650  0.00  0.00    +0.000 N 
ATOM     81  H   ASP A  54       0.659  -5.471  12.997  0.00  0.00    +0.000 HD
BRANCH  78  82
ATOM     82  CA  THR A  53      -1.129  -3.658  12.592  0.00  0.00    +0.000 C 
BRANCH  82  85
ATOM     83  C   GLU A  52      -2.100  -4.856  14.478  0.00  0.00    +0.000 C 
ATOM     84  O   GLU A  52      -2.491  -5.714  13.709  0.00  0.00    +0.000 OA
ATOM     85  N   THR A  53      -1.426  -3.808  14.047  0.00  0.00    +0.000 N 
ATOM     86  H   THR A  53      -1.115  -3.121  14.678  0.00  0.00    +0.000 HD
BRANCH  83  87
ATOM     87  CA  GLU A  52      -2.380  -4.966  15.986  0.00  0.00    +0.000 C 
BRANCH  87  90
ATOM     88  C   ASP A  51      -3.991  -3.115  15.957  0.00  0.00    +0.000 C 
ATOM     89  O   ASP A  51      -4.540  -3.628  15.001  0.00  0.00    +0.000 OA
ATOM     90  N   GLU A  52      -2.933  -3.676  16.518  0.00  0.00    +0.000 N 
ATOM     91  H   GLU A  52      -2.497  -3.251  17.290  0.00  0.00    +0.000 HD
BRANCH  88  92
ATOM     92  CA  ASP A  51      -4.511  -1.788  16.548  0.00  0.00    +0.000 C 
BRANCH  92  95
ATOM     93  C   GLN A  50      -3.592   0.258  17.519  0.00  0.00    +0.000 C 
ATOM     94  O   GLN A  50      -4.699   0.539  17.938  0.00  0.00    +0.000 OA
ATOM     95  N   ASP A  51      -3.379  -0.849  16.829  0.00  0.00    +0.000 N 
ATOM     96  H   ASP A  51      -2.476  -1.061  16.501  0.00  0.00    +0.000 HD
BRANCH  93  97
ATOM     97  CA  GLN A  50      -2.393   1.178  17.779  0.00  0.00    +0.000 C 
BRANCH  97 100
ATOM     98  C   GLY A  49      -1.621   0.005  19.780  0.00  0.00    +0.000 C 
ATOM     99  O   GLY A  49      -2.695   0.242  20.301  0.00  0.00    +0.000 OA
ATOM    100  N   GLN A  50      -1.349   0.408  18.552  0.00  0.00    +0.000 N 
ATOM    101  H   GLN A  50      -0.476   0.199  18.156  0.00  0.00    +0.000 HD
BRANCH  98 102
ATOM    102  CA  GLY A  49      -0.535  -0.769  20.538  0.00  0.00    +0.000 C 
BRANCH 102 105
ATOM    103  C   VAL A  48       0.935   0.705  21.797  0.00  0.00    +0.000 C 
ATOM    104  O   VAL A  48       0.230   0.555  22.777  0.00  0.00    +0.000 OA
ATOM    105  N   GLY A  49       0.660   0.111  20.656  0.00  0.00    +0.000 N 
ATOM    106  H   GLY A  49       1.228   0.259  19.867  0.00  0.00    +0.000 HD
BRANCH 103 107
ATOM    107  CA  VAL A  48       2.161   1.624  21.843  0.00  0.00    +0.000 C 
BRANCH 107 110
ATOM    108  C   ILE A  47       2.365   3.173  19.972  0.00  0.00    +0.000 C 
ATOM    109  O   ILE A  47       3.142   2.403  19.440  0.00  0.00    +0.000 OA
ATOM    110  N   VAL A  48       1.826   2.901  21.141  0.00  0.00    +0.000 N 
ATOM    111  H   VAL A  48       1.187   3.528  21.549  0.00  0.00    +0.000 HD
BRANCH 108 112
ATOM    112  CA  ILE A  47       1.965   4.490  19.290  0.00  0.00    +0.000 C 
BRANCH 112 115
ATOM    113  C   GLN A  46       1.098   6.319  20.651  0.00  0.00    +0.000 C 
ATOM    114  O   GLN A  46      -0.025   6.046  20.271  0.00  0.00    +0.000 OA
ATOM    115  N   ILE A  47       2.144   5.631  20.240  0.00  0.00    +0.000 N 
ATOM    116  H   ILE A  47       3.047   5.861  20.555  0.00  0.00    +0.000 HD
BRANCH 113 117
ATOM    117  CA  GLN A  46       1.335   7.482  21.628  0.00  0.00    +0.000 C 
BRANCH 117 120
ATOM    118  C   VAL A  45      -0.090   9.332  22.325  0.00  0.00    +0.000 C 
ATOM    119  O   VAL A  45       0.846  10.093  22.164  0.00  0.00    +0.000 OA
ATOM    120  N   GLN A  46       0.031   8.041  22.096  0.00  0.00    +0.000 N 
ATOM    121  H   GLN A  46      -0.735   7.439  22.232  0.00  0.00    +0.000 HD
BRANCH 118 122
ATOM    122  CA  VAL A  45      -1.454   9.851  22.805  0.00  0.00    +0.000 C 
BRANCH 122 125
ATOM    123  C   GLY A  44      -2.906   8.275  23.967  0.00  0.00    +0.000 C 
ATOM    124  O   GLY A  44      -3.525   8.110  22.932  0.00  0.00    +0.000 OA
ATOM    125  N   VAL A  45      -1.879   9.099  24.025  0.00  0.00    +0.000 N 
ATOM    126  H   VAL A  45      -1.386   9.220  24.868  0.00  0.00    +0.000 HD
BRANCH 123 127
ATOM    127  CA  GLY A  44      -3.303   7.524  25.245  0.00  0.00    +0.000 C 
BRANCH 127 130
ATOM    128  C   GLY A  43      -5.403   7.566  26.479  0.00  0.00    +0.000 C 
ATOM    129  O   GLY A  43      -5.421   6.349  26.457  0.00  0.00    +0.000 OA
ATOM    130  N   GLY A  44      -4.421   8.245  25.921  0.00  0.00    +0.000 N 
ATOM    131  H   GLY A  44      -4.417   9.228  25.945  0.00  0.00    +0.000 HD
BRANCH 128 132
ATOM    132  CA  GLY A  43      -6.531   8.353  27.162  0.00  0.00    +0.000 C 
BRANCH 132 133
ATOM    133  N   GLY A  43      -7.846   7.928  26.603  0.00  0.00    +0.000 NA
ATOM    134  H   GLY A  43      -8.570   8.634  26.845  0.00  0.00    +0.000 HD
ENDBRANCH 132 133
ENDBRANCH 128 132
ENDBRANCH 127 130
ENDBRANCH 123 127
ENDBRANCH 122 125
BRANCH 122 135
ATOM    135  CB  VAL A  45      -1.359  11.317  23.246  0.00  0.00    +0.000 C 
ATOM    136  CG1 VAL A  45      -0.924  12.186  22.063  0.00  0.00    +0.000 C 
ATOM    137  CG2 VAL A  45      -2.727  11.791  23.743  0.00  0.00    +0.000 C 
ENDBRANCH 122 135
ENDBRANCH 118 122
ENDBRANCH 117 120
BRANCH 117 138
ATOM    138  CB  GLN A  46       2.029   6.983  22.896  0.00  0.00    +0.000 C 
BRANCH 138 139
ATOM    139  CG  GLN A  46       2.981   8.062  23.417  0.00  0.00    +0.000 C 
BRANCH 139 140
ATOM    140  CD  GLN A  46       3.109   7.940  24.940  0.00  0.00    +0.000 C 
ATOM    141  OE1 GLN A  46       3.790   7.062  25.431  0.00  0.00    +0.000 OA
ATOM    142  NE2 GLN A  46       2.481   8.787  25.720  0.00  0.00    +0.000 N 
ATOM    143 HE21 GLN A  46       1.928   9.502  25.334  0.00  0.00    +0.000 HD
ATOM    144 HE22 GLN A  46       2.564   8.708  26.693  0.00  0.00    +0.000 HD
ENDBRANCH 139 140
ENDBRANCH 138 139
ENDBRANCH 117 138
ENDBRANCH 113 117
ENDBRANCH 112 115
BRANCH 112 145
ATOM    145  CB  ILE A  47       2.892   4.800  18.108  0.00  0.00    +0.000 C 
ATOM    146  CG2 ILE A  47       2.781   3.692  17.057  0.00  0.00    +0.000 C 
BRANCH 145 147
ATOM    147  CG1 ILE A  47       2.490   6.138  17.478  0.00  0.00    +0.000 C 
ATOM    148  CD1 ILE A  47       3.572   6.585  16.494  0.00  0.00    +0.000 C 
ENDBRANCH 145 147
ENDBRANCH 112 145
ENDBRANCH 108 112
ENDBRANCH 107 110
BRANCH 107 149
ATOM    149  CB  VAL A  48       2.499   2.019  23.286  0.00  0.00    +0.000 C 
ATOM    150  CG1 VAL A  48       2.859   0.768  24.093  0.00  0.00    +0.000 C 
ATOM    151  CG2 VAL A  48       3.690   2.983  23.288  0.00  0.00    +0.000 C 
ENDBRANCH 107 149
ENDBRANCH 103 107
ENDBRANCH 102 105
ENDBRANCH  98 102
ENDBRANCH  97 100
BRANCH  97 152
ATOM    152  CB  GLN A  50      -1.795   1.625  16.422  0.00  0.00    +0.000 C 
BRANCH 152 153
ATOM    153  CG  GLN A  50      -0.418   2.284  16.601  0.00  0.00    +0.000 C 
BRANCH 153 154
ATOM    154  CD  GLN A  50       0.605   1.642  15.644  0.00  0.00    +0.000 C 
ATOM    155  OE1 GLN A  50       1.370   2.344  15.013  0.00  0.00    +0.000 OA
ATOM    156  NE2 GLN A  50       0.661   0.335  15.499  0.00  0.00    +0.000 N 
ATOM    157 HE21 GLN A  50       0.055  -0.253  15.996  0.00  0.00    +0.000 HD
ATOM    158 HE22 GLN A  50       1.316  -0.056  14.884  0.00  0.00    +0.000 HD
ENDBRANCH 153 154
ENDBRANCH 152 153
ENDBRANCH  97 152
ENDBRANCH  93  97
ENDBRANCH  92  95
BRANCH  92 159
ATOM    159  CB  ASP A  51      -5.395  -1.057  15.531  0.00  0.00    +0.000 C 
BRANCH 159 160
ATOM    160  CG  ASP A  51      -6.611  -0.457  16.240  0.00  0.00    +0.000 C 
ATOM    161  OD1 ASP A  51      -7.296  -1.196  16.928  0.00  0.00    +0.000 OA
ATOM    162  OD2 ASP A  51      -6.836   0.732  16.084  0.00  0.00    +0.000 OA
ENDBRANCH 159 160
ENDBRANCH  92 159
ENDBRANCH  88  92
ENDBRANCH  87  90
BRANCH  87 163
ATOM    163  CB  GLU A  52      -3.461  -6.018  16.259  0.00  0.00    +0.000 C 
BRANCH 163 164
ATOM    164  CG  GLU A  52      -3.715  -6.112  17.765  0.00  0.00    +0.000 C 
BRANCH 164 165
ATOM    165  CD  GLU A  52      -4.388  -7.447  18.088  0.00  0.00    +0.000 C 
ATOM    166  OE1 GLU A  52      -5.565  -7.579  17.797  0.00  0.00    +0.000 OA
ATOM    167  OE2 GLU A  52      -3.715  -8.313  18.622  0.00  0.00    +0.000 OA
ENDBRANCH 164 165
ENDBRANCH 163 164
ENDBRANCH  87 163
ENDBRANCH  83  87
ENDBRANCH  82  85
BRANCH  82 168
ATOM    168  CB  THR A  53      -1.803  -2.349  12.164  0.00  0.00    +0.000 C 
ATOM    169  CG2 THR A  53      -3.067  -2.670  11.369  0.00  0.00    +0.000 C 
BRANCH 168 170
ATOM    170  OG1 THR A  53      -2.143  -1.579  13.311  0.00  0.00    +0.000 OA
ATOM    171  HG1 THR A  53      -1.371  -1.069  13.568  0.00  0.00    +0.000 HD
ENDBRANCH 168 170
ENDBRANCH  82 168
ENDBRANCH  78  82
ENDBRANCH  77  80
BRANCH  77 172
ATOM    172  CB  ASP A  54       3.177  -4.731  13.840  0.00  0.00    +0.000 C 
BRANCH 172 173
ATOM    173  CG  ASP A  54       2.767  -3.487  14.632  0.00  0.00    +0.000 C 
ATOM    174  OD1 ASP A  54       1.620  -3.421  15.040  0.00  0.00    +0.000 OA
ATOM    175  OD2 ASP A  54       3.608  -2.622  14.815  0.00  0.00    +0.000 OA
ENDBRANCH 172 173
ENDBRANCH  77 172
ENDBRANCH  73  77
ENDBRANCH  72  75
BRANCH  72 176
ATOM    176  CB  ASP A  55       1.836  -8.894  10.717  0.00  0.00    +0.000 C 
BRANCH 176 177
ATOM    177  CG  ASP A  55       2.795  -9.555  11.708  0.00  0.00    +0.000 C 
ATOM    178  OD1 ASP A  55       3.967  -9.662  11.388  0.00  0.00    +0.000 OA
ATOM    179  OD2 ASP A  55       2.340  -9.944  12.772  0.00  0.00    +0.000 OA
ENDBRANCH 176 177
ENDBRANCH  72 176
ENDBRANCH  68  72
ENDBRANCH  67  70
BRANCH  67 180
ATOM    180  CB  ARG A  56       1.751  -4.689   6.276  0.00  0.00    +0.000 C 
BRANCH 180 181
ATOM    181  CG  ARG A  56       0.489  -3.935   6.701  0.00  0.00    +0.000 C 
BRANCH 181 182
ATOM    182  CD  ARG A  56       0.814  -2.446   6.894  0.00  0.00    +0.000 C 
BRANCH 182 183
ATOM    183  NE  ARG A  56       1.530  -2.337   8.216  0.00  0.00    +0.000 N 
ATOM    184  CZ  ARG A  56       1.466  -1.231   8.946  0.00  0.00    +0.000 C 
ATOM    185  NH1 ARG A  56       0.800  -0.173   8.542  0.00  0.00    +0.000 N 
ATOM    186  NH2 ARG A  56       2.096  -1.179  10.092  0.00  0.00    +0.000 N 
ATOM    187  HE  ARG A  56       2.062  -3.099   8.547  0.00  0.00    +0.000 HD
ATOM    188 HH11 ARG A  56       0.322  -0.175   7.668  0.00  0.00    +0.000 HD
ATOM    189 HH12 ARG A  56       0.770   0.643   9.120  0.00  0.00    +0.000 HD
ATOM    190 HH21 ARG A  56       2.619  -1.969  10.411  0.00  0.00    +0.000 HD
ATOM    191 HH22 ARG A  56       2.054  -0.349  10.648  0.00  0.00    +0.000 HD
ENDBRANCH 182 183
ENDBRANCH 181 182
ENDBRANCH 180 181
ENDBRANCH  67 180
ENDBRANCH  60  67
ENDBRANCH  56  63
ENDBRANCH  55  58
BRANCH  55 192
ATOM    192  CB  GLU A  58       4.971  -6.754   0.217  0.00  0.00    +0.000 C 
BRANCH 192 193
ATOM    193  CG  GLU A  58       4.433  -8.102  -0.281  0.00  0.00    +0.000 C 
BRANCH 193 194
ATOM    194  CD  GLU A  58       5.585  -9.106  -0.364  0.00  0.00    +0.000 C 
ATOM    195  OE1 GLU A  58       6.277  -9.266   0.628  0.00  0.00    +0.000 OA
ATOM    196  OE2 GLU A  58       5.755  -9.697  -1.418  0.00  0.00    +0.000 OA
ENDBRANCH 193 194
ENDBRANCH 192 193
ENDBRANCH  55 192
ENDBRANCH  51  55
ENDBRANCH  50  53
BRANCH  50 197
ATOM    197  CB  CYS A  59       1.851  -1.983  -1.427  0.00  0.00    +0.000 C 
BRANCH 197 198
ATOM    198  SG  CYS A  59       1.056  -1.169  -2.845  0.00  0.00    +0.000 S 
ATOM    199  HG  CYS A  59       0.743  -0.063  -2.613  0.00  0.00    +0.000 HD
ENDBRANCH 197 198
ENDBRANCH  50 197
ENDBRANCH  43  50
ENDBRANCH  39  46
ENDBRANCH  38  41
BRANCH  38 200
ATOM    200  CB  TYR A  61       2.096   0.469  -5.811  0.00  0.00    +0.000 C 
BRANCH 200 201
ATOM    201  CG  TYR A  61       0.740   0.250  -6.446  0.00  0.00    +0.000 A 
ATOM    202  CD1 TYR A  61       0.629   0.054  -7.850  0.00  0.00    +0.000 A 
ATOM    203  CD2 TYR A  61      -0.426   0.233  -5.632  0.00  0.00    +0.000 A 
ATOM    204  CE1 TYR A  61      -0.647  -0.159  -8.439  0.00  0.00    +0.000 A 
ATOM    205  CE2 TYR A  61      -1.701   0.021  -6.222  0.00  0.00    +0.000 A 
ATOM    206  CZ  TYR A  61      -1.811  -0.176  -7.625  0.00  0.00    +0.000 A 
BRANCH 206 207
ATOM    207  OH  TYR A  61      -3.050  -0.385  -8.197  0.00  0.00    +0.000 OA
ATOM    208  HH  TYR A  61      -3.472   0.469  -8.310  0.00  0.00    +0.000 HD
ENDBRANCH 206 207
ENDBRANCH 200 201
ENDBRANCH  38 200
ENDBRANCH  34  38
ENDBRANCH  33  36
ENDBRANCH  26  33
ENDBRANCH  22  29
ENDBRANCH  21  24
BRANCH  21 209
ATOM    209  CB  SER A  64       5.557   3.177  -8.788  0.00  0.00    +0.000 C 
BRANCH 209 210
ATOM    210  OG  SER A  64       5.610   4.187  -9.787  0.00  0.00    +0.000 OA
ATOM    211  HG  SER A  64       4.713   4.483  -9.958  0.00  0.00    +0.000 HD
ENDBRANCH 209 210
ENDBRANCH  21 209
ENDBRANCH  17  21
ENDBRANCH  16  19
BRANCH  16 212
ATOM    212  CB  CYS A  65       2.251   3.028  -3.910  0.00  0.00    +0.000 C 
BRANCH 212 213
ATOM    213  SG  CYS A  65       0.542   2.637  -3.452  0.00  0.00    +0.000 S 
ATOM    214  HG  CYS A  65       0.315   3.273  -2.483  0.00  0.00    +0.000 HD
ENDBRANCH 212 213
ENDBRANCH  16 212
ENDBRANCH  12  16
ENDBRANCH  11  14
BRANCH  11 215
ATOM    215  CB  TYR A  66       0.343   7.855  -6.768  0.00  0.00    +0.000 C 
BRANCH 215 216
ATOM    216  CG  TYR A  66      -0.239   7.136  -7.968  0.00  0.00    +0.000 A 
ATOM    217  CD1 TYR A  66      -1.619   7.269  -8.289  0.00  0.00    +0.000 A 
ATOM    218  CD2 TYR A  66       0.601   6.325  -8.780  0.00  0.00    +0.000 A 
ATOM    219  CE1 TYR A  66      -2.156   6.589  -9.414  0.00  0.00    +0.000 A 
ATOM    220  CE2 TYR A  66       0.063   5.647  -9.906  0.00  0.00    +0.000 A 
ATOM    221  CZ  TYR A  66      -1.315   5.779 -10.223  0.00  0.00    +0.000 A 
BRANCH 221 222
ATOM    222  OH  TYR A  66      -1.838   5.118 -11.316  0.00  0.00    +0.000 OA
ATOM    223  HH  TYR A  66      -1.615   5.623 -12.101  0.00  0.00    +0.000 HD
ENDBRANCH 221 222
ENDBRANCH 215 216
ENDBRANCH  11 215
ENDBRANCH   7  11
ENDBRANCH   6   9
BRANCH   6 224
ATOM    224  CB  ARG A  67      -3.674   4.363  -4.436  0.00  0.00    +0.000 C 
BRANCH 224 225
ATOM    225  CG  ARG A  67      -3.089   3.364  -3.427  0.00  0.00    +0.000 C 
BRANCH 225 226
ATOM    226  CD  ARG A  67      -2.800   2.033  -4.129  0.00  0.00    +0.000 C 
BRANCH 226 227
ATOM    227  NE  ARG A  67      -3.990   1.172  -3.833  0.00  0.00    +0.000 N 
ATOM    228  CZ  ARG A  67      -5.068   1.179  -4.605  0.00  0.00    +0.000 C 
ATOM    229  NH1 ARG A  67      -5.149   1.933  -5.677  0.00  0.00    +0.000 N 
ATOM    230  NH2 ARG A  67      -6.084   0.414  -4.297  0.00  0.00    +0.000 N 
ATOM    231  HE  ARG A  67      -3.968   0.591  -3.042  0.00  0.00    +0.000 HD
ATOM    232 HH11 ARG A  67      -4.394   2.525  -5.940  0.00  0.00    +0.000 HD
ATOM    233 HH12 ARG A  67      -5.978   1.911  -6.235  0.00  0.00    +0.000 HD
ATOM    234 HH21 ARG A  67      -6.044  -0.168  -3.485  0.00  0.00    +0.000 HD
ATOM    235 HH22 ARG A  67      -6.901   0.412  -4.874  0.00  0.00    +0.000 HD
ENDBRANCH 226 227
ENDBRANCH 225 226
ENDBRANCH 224 225
ENDBRANCH   6 224
ENDBRANCH   2   6
ENDBRANCH   1   4
BRANCH   1 236
ATOM    236  C   LYS A  68      -6.166   6.313  -0.348  0.00  0.00    +0.000 C 
ATOM    237  O   LYS A  68      -7.244   6.877  -0.324  0.00  0.00    +0.000 OA
ATOM    238  N   ASN A  69      -6.041   5.062   0.046  0.00  0.00    +0.000 N 
ATOM    239  H   ASN A  69      -5.162   4.619   0.026  0.00  0.00    +0.000 HD
BRANCH 238 240
ATOM    240  CA  ASN A  69      -7.238   4.309   0.534  0.00  0.00    +0.000 C 
BRANCH 240 241
ATOM    241  C   ASN A  69      -7.102   4.024   2.038  0.00  0.00    +0.000 C 
ATOM    242  O   ASN A  69      -6.002   3.947   2.548  0.00  0.00    +0.000 OA
ATOM    243  N   PRO A  70      -8.224   3.879   2.711  0.00  0.00    +0.000 N 
ATOM    244  CA  PRO A  70      -8.191   3.606   4.169  0.00  0.00    +0.000 C 
ATOM    245  CB  PRO A  70      -9.636   3.813   4.611  0.00  0.00    +0.000 C 
ATOM    246  CG  PRO A  70     -10.457   3.575   3.384  0.00  0.00    +0.000 C 
ATOM    247  CD  PRO A  70      -9.604   3.951   2.199  0.00  0.00    +0.000 C 
BRANCH 244 248
ATOM    248  C   PRO A  70      -7.733   2.165   4.438  0.00  0.00    +0.000 C 
ATOM    249  O   PRO A  70      -6.912   1.933   5.302  0.00  0.00    +0.000 OA
ATOM    250  N   GLN A  71      -8.247   1.195   3.707  0.00  0.00    +0.000 N 
ATOM    251  H   GLN A  71      -8.902   1.400   3.010  0.00  0.00    +0.000 HD
BRANCH 250 252
ATOM    252  CA  GLN A  71      -7.819  -0.222   3.938  0.00  0.00    +0.000 C 
BRANCH 252 253
ATOM    253  C   GLN A  71      -6.463  -0.520   3.251  0.00  0.00    +0.000 C 
ATOM    254  O   GLN A  71      -5.776  -1.449   3.630  0.00  0.00    +0.000 OA
ATOM    255  N   HIS A  72      -6.065   0.250   2.247  0.00  0.00    +0.000 N 
ATOM    256  H   HIS A  72      -6.623   1.009   1.963  0.00  0.00    +0.000 HD
BRANCH 255 257
ATOM    257  CA  HIS A  72      -4.744  -0.034   1.580  0.00  0.00    +0.000 C 
BRANCH 257 258
ATOM    258  C   HIS A  72      -3.615   0.184   2.604  0.00  0.00    +0.000 C 
ATOM    259  O   HIS A  72      -2.802  -0.692   2.831  0.00  0.00    +0.000 OA
ATOM    260  N   LYS A  73      -3.567   1.343   3.235  0.00  0.00    +0.000 N 
ATOM    261  H   LYS A  73      -4.239   2.035   3.020  0.00  0.00    +0.000 HD
BRANCH 260 262
ATOM    262  CA  LYS A  73      -2.485   1.601   4.265  0.00  0.00    +0.000 C 
BRANCH 262 263
ATOM    263  C   LYS A  73      -2.460   0.500   5.355  0.00  0.00    +0.000 C 
ATOM    264  O   LYS A  73      -1.430   0.258   5.957  0.00  0.00    +0.000 OA
ATOM    265  N   ILE A  74      -3.564  -0.186   5.601  0.00  0.00    +0.000 N 
ATOM    266  H   ILE A  74      -4.367  -0.008   5.081  0.00  0.00    +0.000 HD
BRANCH 265 267
ATOM    267  CA  ILE A  74      -3.553  -1.281   6.641  0.00  0.00    +0.000 C 
BRANCH 267 268
ATOM    268  C   ILE A  74      -3.415  -2.682   5.989  0.00  0.00    +0.000 C 
ATOM    269  O   ILE A  74      -3.043  -3.625   6.665  0.00  0.00    +0.000 OA
ATOM    270  N   GLU A  75      -3.701  -2.848   4.709  0.00  0.00    +0.000 N 
ATOM    271  H   GLU A  75      -4.003  -2.094   4.157  0.00  0.00    +0.000 HD
BRANCH 270 272
ATOM    272  CA  GLU A  75      -3.563  -4.218   4.100  0.00  0.00    +0.000 C 
BRANCH 272 273
ATOM    273  C   GLU A  75      -2.168  -4.405   3.486  0.00  0.00    +0.000 C 
ATOM    274  O   GLU A  75      -1.566  -5.448   3.644  0.00  0.00    +0.000 OA
ATOM    275  N   TYR A  76      -1.654  -3.427   2.768  0.00  0.00    +0.000 N 
ATOM    276  H   TYR A  76      -2.148  -2.596   2.621  0.00  0.00    +0.000 HD
BRANCH 275 277
ATOM    277  CA  TYR A  76      -0.317  -3.591   2.136  0.00  0.00    +0.000 C 
BRANCH 277 278
ATOM    278  C   TYR A  76       0.654  -2.488   2.595  0.00  0.00    +0.000 C 
ATOM    279  O   TYR A  76       0.317  -1.320   2.578  0.00  0.00    +0.000 OA
ATOM    280  N   ARG A  77       1.863  -2.847   2.987  0.00  0.00    +0.000 N 
ATOM    281  H   ARG A  77       2.118  -3.795   2.982  0.00  0.00    +0.000 HD
BRANCH 280 282
ATOM    282  CA  ARG A  77       2.850  -1.797   3.423  0.00  0.00    +0.000 C 
BRANCH 282 283
ATOM    283  C   ARG A  77       3.602  -1.250   2.195  0.00  0.00    +0.000 C 
ATOM    284  O   ARG A  77       3.318  -1.635   1.076  0.00  0.00    +0.000 OA
ATOM    285  N   HIS A  78       4.568  -0.375   2.388  0.00  0.00    +0.000 N 
ATOM    286  H   HIS A  78       4.810  -0.091   3.297  0.00  0.00    +0.000 HD
BRANCH 285 287
ATOM    287  CA  HIS A  78       5.339   0.165   1.221  0.00  0.00    +0.000 C 
BRANCH 287 288
ATOM    288  C   HIS A  78       6.837   0.208   1.552  0.00  0.00    +0.000 C 
ATOM    289  O   HIS A  78       7.562   1.052   1.059  0.00  0.00    +0.000 OA
ATOM    290  N   ASN A  79       7.310  -0.697   2.387  0.00  0.00    +0.000 N 
ATOM    291  H   ASN A  79       6.712  -1.372   2.775  0.00  0.00    +0.000 HD
BRANCH 290 292
ATOM    292  CA  ASN A  79       8.756  -0.717   2.756  0.00  0.00    +0.000 C 
BRANCH 292 293
ATOM    293  C   ASN A  79       9.034  -1.973   3.611  0.00  0.00    +0.000 C 
ATOM    294  O   ASN A  79       8.266  -2.917   3.574  0.00  0.00    +0.000 OA
ATOM    295  N   THR A  80      10.092  -1.995   4.379  0.00  0.00    +0.000 N 
ATOM    296  H   THR A  80      10.695  -1.233   4.410  0.00  0.00    +0.000 HD
BRANCH 295 297
ATOM    297  CA  THR A  80      10.367  -3.192   5.224  0.00  0.00    +0.000 C 
BRANCH 297 298
ATOM    298  C   THR A  80      11.144  -2.781   6.486  0.00  0.00    +0.000 C 
ATOM    299  O   THR A  80      12.208  -3.304   6.760  0.00  0.00    +0.000 OA
ATOM    300  N   LEU A  81      10.623  -1.846   7.254  0.00  0.00    +0.000 N 
ATOM    301  H   LEU A  81       9.762  -1.428   7.025  0.00  0.00    +0.000 HD
BRANCH 300 302
ATOM    302  CA  LEU A  81      11.340  -1.409   8.485  0.00  0.00    +0.000 C 
BRANCH 302 303
ATOM    303  C   LEU A  81      10.388  -1.421   9.687  0.00  0.00    +0.000 C 
ATOM    304  O   LEU A  81       9.200  -1.225   9.528  0.00  0.00    +0.000 OA
ATOM    305  N   PRO A  82      10.936  -1.646  10.861  0.00  0.00    +0.000 N 
ATOM    306  CA  PRO A  82      10.099  -1.673  12.083  0.00  0.00    +0.000 C 
ATOM    307  CB  PRO A  82      11.027  -2.251  13.148  0.00  0.00    +0.000 C 
ATOM    308  CG  PRO A  82      12.408  -1.939  12.670  0.00  0.00    +0.000 C 
ATOM    309  CD  PRO A  82      12.357  -1.891  11.166  0.00  0.00    +0.000 C 
BRANCH 306 310
ATOM    310  C   PRO A  82       9.656  -0.250  12.451  0.00  0.00    +0.000 C 
ATOM    311  O   PRO A  82      10.206   0.718  11.959  0.00  0.00    +0.000 OA
ATOM    312  N   VAL A  83       8.673  -0.110  13.315  0.00  0.00    +0.000 N 
ATOM    313  H   VAL A  83       8.241  -0.900  13.711  0.00  0.00    +0.000 HD
BRANCH 312 314
ATOM    314  CA  VAL A  83       8.210   1.254  13.707  0.00  0.00    +0.000 C 
BRANCH 314 315
ATOM    315  C   VAL A  83       8.159   1.351  15.237  0.00  0.00    +0.000 C 
ATOM    316  O   VAL A  83       7.177   1.783  15.806  0.00  0.00    +0.000 OA
ATOM    317  N   ARG A  84       9.222   0.950  15.906  0.00  0.00    +0.000 N 
ATOM    318  H   ARG A  84      10.006   0.616  15.413  0.00  0.00    +0.000 HD
BRANCH 317 319
ATOM    319  CA  ARG A  84       9.255   1.012  17.413  0.00  0.00    +0.000 C 
BRANCH 319 320
ATOM    320  C   ARG A  84      10.592   0.473  17.965  0.00  0.00    +0.000 C 
ATOM    321  O   ARG A  84      11.167   1.063  18.861  0.00  0.00    +0.000 OA
ATOM    322  N   ASN A  85      11.101  -0.631  17.445  0.00  0.00    +0.000 N 
ATOM    323  H   ASN A  85      10.637  -1.101  16.716  0.00  0.00    +0.000 HD
BRANCH 322 324
ATOM    324  CA  ASN A  85      12.403  -1.165  17.963  0.00  0.00    +0.000 C 
BRANCH 324 325
ATOM    325  C   ASN A  85      13.544  -0.792  17.004  0.00  0.00    +0.000 C 
ATOM    326  O   ASN A  85      13.898  -1.561  16.130  0.00  0.00    +0.000 OA
ATOM    327  N   VAL A  86      14.125   0.381  17.160  0.00  0.00    +0.000 N 
ATOM    328  H   VAL A  86      13.832   0.991  17.874  0.00  0.00    +0.000 HD
BRANCH 327 329
ATOM    329  CA  VAL A  86      15.245   0.790  16.254  0.00  0.00    +0.000 C 
BRANCH 329 330
ATOM    330  C   VAL A  86      16.411   1.355  17.087  0.00  0.00    +0.000 C 
ATOM    331  O   VAL A  86      17.058   2.306  16.694  0.00  0.00    +0.000 OA
ATOM    332  N   LEU A  87      16.688   0.775  18.242  0.00  0.00    +0.000 N 
ATOM    333  H   LEU A  87      16.156   0.003  18.544  0.00  0.00    +0.000 HD
BRANCH 332 334
ATOM    334  CA  LEU A  87      17.818   1.283  19.102  0.00  0.00    +0.000 C 
BRANCH 334 335
ATOM    335  C   LEU A  87      17.939   0.439  20.380  0.00  0.00    +0.000 C 
ATOM    336  O   LEU A  87      19.006  -0.030  20.728  0.00  0.00    +0.000 OA
ATOM    337  N   ASP A  88      16.844   0.243  21.077  0.00  0.00    +0.000 N 
ATOM    338  H   ASP A  88      16.001   0.633  20.770  0.00  0.00    +0.000 HD
BRANCH 337 339
ATOM    339  CA  ASP A  88      16.862  -0.570  22.335  0.00  0.00    +0.000 C 
BRANCH 339 340
ATOM    340  C   ASP A  88      17.919  -0.032  23.316  0.00  0.00    +0.000 C 
ATOM    341  O   ASP A  88      19.090  -0.341  23.198  0.00  0.00    +0.000 OA
ATOM    342  N   GLU A  89      17.517   0.769  24.283  0.00  0.00    +0.000 N 
ATOM    343  H   GLU A  89      16.568   1.010  24.368  0.00  0.00    +0.000 HD
BRANCH 342 344
ATOM    344  CA  GLU A  89      18.505   1.316  25.260  0.00  0.00    +0.000 C 
BRANCH 344 345
ATOM    345  C   GLU A  89      18.092   0.953  26.689  0.00  0.00    +0.000 C 
ATOM    346  O   GLU A  89      18.736   1.429  27.610  0.00  0.00    +0.000 OA
ATOM    347  OXT GLU A  89      17.138   0.207  26.838  0.00  0.00    +0.000 OA
ENDBRANCH 344 345
BRANCH 344 348
ATOM    348  CB  GLU A  89      18.464   2.831  25.058  0.00  0.00    +0.000 C 
BRANCH 348 349
ATOM    349  CG  GLU A  89      19.000   3.175  23.667  0.00  0.00    +0.000 C 
BRANCH 349 350
ATOM    350  CD  GLU A  89      19.216   4.686  23.562  0.00  0.00    +0.000 C 
ATOM    351  OE1 GLU A  89      19.984   5.211  24.350  0.00  0.00    +0.000 OA
ATOM    352  OE2 GLU A  89      18.609   5.292  22.694  0.00  0.00    +0.000 OA
ENDBRANCH 349 350
ENDBRANCH 348 349
ENDBRANCH 344 348
ENDBRANCH 342 344
ENDBRANCH 339 340
BRANCH 339 353
ATOM    353  CB  ASP A  88      17.209  -1.998  21.899  0.00  0.00    +0.000 C 
BRANCH 353 354
ATOM    354  CG  ASP A  88      16.138  -2.513  20.936  0.00  0.00    +0.000 C 
ATOM    355  OD1 ASP A  88      15.956  -1.898  19.899  0.00  0.00    +0.000 OA
ATOM    356  OD2 ASP A  88      15.517  -3.514  21.253  0.00  0.00    +0.000 OA
ENDBRANCH 353 354
ENDBRANCH 339 353
ENDBRANCH 337 339
ENDBRANCH 334 335
BRANCH 334 357
ATOM    357  CB  LEU A  87      17.454   2.736  19.458  0.00  0.00    +0.000 C 
BRANCH 357 358
ATOM    358  CG  LEU A  87      18.447   3.696  18.796  0.00  0.00    +0.000 C 
ATOM    359  CD1 LEU A  87      17.804   5.076  18.651  0.00  0.00    +0.000 C 
ATOM    360  CD2 LEU A  87      19.702   3.808  19.665  0.00  0.00    +0.000 C 
ENDBRANCH 357 358
ENDBRANCH 334 357
ENDBRANCH 332 334
ENDBRANCH 329 330
BRANCH 329 361
ATOM    361  CB  VAL A  86      14.654   1.874  15.343  0.00  0.00    +0.000 C 
ATOM    362  CG1 VAL A  86      15.708   2.325  14.329  0.00  0.00    +0.000 C 
ATOM    363  CG2 VAL A  86      13.444   1.312  14.589  0.00  0.00    +0.000 C 
ENDBRANCH 329 361
ENDBRANCH 327 329
ENDBRANCH 324 325
BRANCH 324 364
ATOM    364  CB  ASN A  85      12.235  -2.688  18.031  0.00  0.00    +0.000 C 
BRANCH 364 365
ATOM    365  CG  ASN A  85      12.991  -3.233  19.249  0.00  0.00    +0.000 C 
ATOM    366  OD1 ASN A  85      13.978  -3.925  19.099  0.00  0.00    +0.000 OA
ATOM    367  ND2 ASN A  85      12.572  -2.952  20.459  0.00  0.00    +0.000 N 
ATOM    368 HD21 ASN A  85      11.775  -2.393  20.592  0.00  0.00    +0.000 HD
ATOM    369 HD22 ASN A  85      13.057  -3.301  21.235  0.00  0.00    +0.000 HD
ENDBRANCH 364 365
ENDBRANCH 324 364
ENDBRANCH 322 324
ENDBRANCH 319 320
BRANCH 319 370
ATOM    370  CB  ARG A  84       8.076   0.157  17.931  0.00  0.00    +0.000 C 
BRANCH 370 371
ATOM    371  CG  ARG A  84       8.079  -1.237  17.289  0.00  0.00    +0.000 C 
BRANCH 371 372
ATOM    372  CD  ARG A  84       6.669  -1.829  17.349  0.00  0.00    +0.000 C 
BRANCH 372 373
ATOM    373  NE  ARG A  84       6.875  -3.290  17.586  0.00  0.00    +0.000 N 
ATOM    374  CZ  ARG A  84       7.207  -3.753  18.782  0.00  0.00    +0.000 C 
ATOM    375  NH1 ARG A  84       7.369  -2.948  19.807  0.00  0.00    +0.000 N 
ATOM    376  NH2 ARG A  84       7.377  -5.038  18.952  0.00  0.00    +0.000 N 
ATOM    377  HE  ARG A  84       6.761  -3.916  16.838  0.00  0.00    +0.000 HD
ATOM    378 HH11 ARG A  84       7.246  -1.962  19.703  0.00  0.00    +0.000 HD
ATOM    379 HH12 ARG A  84       7.620  -3.324  20.699  0.00  0.00    +0.000 HD
ATOM    380 HH21 ARG A  84       7.258  -5.665  18.182  0.00  0.00    +0.000 HD
ATOM    381 HH22 ARG A  84       7.627  -5.395  19.852  0.00  0.00    +0.000 HD
ENDBRANCH 372 373
ENDBRANCH 371 372
ENDBRANCH 370 371
ENDBRANCH 319 370
ENDBRANCH 317 319
ENDBRANCH 314 315
BRANCH 314 382
ATOM    382  CB  VAL A  83       6.812   1.402  13.099  0.00  0.00    +0.000 C 
ATOM    383  CG1 VAL A  83       6.254   2.788  13.428  0.00  0.00    +0.000 C 
ATOM    384  CG2 VAL A  83       6.892   1.239  11.578  0.00  0.00    +0.000 C 
ENDBRANCH 314 382
ENDBRANCH 312 314
ENDBRANCH 306 310
ENDBRANCH 302 303
BRANCH 302 385
ATOM    385  CB  LEU A  81      11.804   0.016   8.188  0.00  0.00    +0.000 C 
BRANCH 385 386
ATOM    386  CG  LEU A  81      13.255  -0.006   7.703  0.00  0.00    +0.000 C 
ATOM    387  CD1 LEU A  81      13.328  -0.638   6.307  0.00  0.00    +0.000 C 
ATOM    388  CD2 LEU A  81      13.792   1.427   7.650  0.00  0.00    +0.000 C 
ENDBRANCH 385 386
ENDBRANCH 302 385
ENDBRANCH 300 302
ENDBRANCH 297 298
BRANCH 297 389
ATOM    389  CB  THR A  80      11.210  -4.115   4.342  0.00  0.00    +0.000 C 
ATOM    390  CG2 THR A  80      10.343  -4.677   3.215  0.00  0.00    +0.000 C 
BRANCH 389 391
ATOM    391  OG1 THR A  80      12.293  -3.381   3.788  0.00  0.00    +0.000 OA
ATOM    392  HG1 THR A  80      12.958  -3.271   4.471  0.00  0.00    +0.000 HD
ENDBRANCH 389 391
ENDBRANCH 297 389
ENDBRANCH 295 297
ENDBRANCH 292 293
BRANCH 292 393
ATOM    393  CB  ASN A  79       8.982   0.583   3.555  0.00  0.00    +0.000 C 
BRANCH 393 394
ATOM    394  CG  ASN A  79       8.152   0.566   4.848  0.00  0.00    +0.000 C 
ATOM    395  OD1 ASN A  79       8.376  -0.258   5.712  0.00  0.00    +0.000 OA
ATOM    396  ND2 ASN A  79       7.197   1.448   5.022  0.00  0.00    +0.000 N 
ATOM    397 HD21 ASN A  79       7.008   2.120   4.332  0.00  0.00    +0.000 HD
ATOM    398 HD22 ASN A  79       6.668   1.436   5.848  0.00  0.00    +0.000 HD
ENDBRANCH 393 394
ENDBRANCH 292 393
ENDBRANCH 290 292
ENDBRANCH 287 288
BRANCH 287 399
ATOM    399  CB  HIS A  78       4.797   1.574   0.993  0.00  0.00    +0.000 C 
BRANCH 399 400
ATOM    400  CG  HIS A  78       3.373   1.468   0.547  0.00  0.00    +0.000 A 
ATOM    401  ND1 HIS A  78       2.329   1.361   1.452  0.00  0.00    +0.000 N 
ATOM    402  CD2 HIS A  78       2.803   1.383  -0.699  0.00  0.00    +0.000 A 
ATOM    403  CE1 HIS A  78       1.197   1.204   0.745  0.00  0.00    +0.000 A 
ATOM    404  NE2 HIS A  78       1.437   1.211  -0.567  0.00  0.00    +0.000 NA
ATOM    405  HD1 HIS A  78       2.402   1.393   2.429  0.00  0.00    +0.000 HD
ENDBRANCH 399 400
ENDBRANCH 287 399
ENDBRANCH 285 287
ENDBRANCH 282 283
BRANCH 282 406
ATOM    406  CB  ARG A  77       3.815  -2.473   4.437  0.00  0.00    +0.000 C 
BRANCH 406 407
ATOM    407  CG  ARG A  77       4.730  -3.508   3.759  0.00  0.00    +0.000 C 
BRANCH 407 408
ATOM    408  CD  ARG A  77       5.627  -4.161   4.826  0.00  0.00    +0.000 C 
BRANCH 408 409
ATOM    409  NE  ARG A  77       6.347  -5.302   4.150  0.00  0.00    +0.000 N 
ATOM    410  CZ  ARG A  77       6.802  -6.337   4.847  0.00  0.00    +0.000 C 
ATOM    411  NH1 ARG A  77       6.639  -6.419   6.149  0.00  0.00    +0.000 N 
ATOM    412  NH2 ARG A  77       7.439  -7.301   4.231  0.00  0.00    +0.000 N 
ATOM    413  HE  ARG A  77       6.496  -5.278   3.176  0.00  0.00    +0.000 HD
ATOM    414 HH11 ARG A  77       6.166  -5.699   6.650  0.00  0.00    +0.000 HD
ATOM    415 HH12 ARG A  77       6.993  -7.214   6.643  0.00  0.00    +0.000 HD
ATOM    416 HH21 ARG A  77       7.579  -7.255   3.242  0.00  0.00    +0.000 HD
ATOM    417 HH22 ARG A  77       7.785  -8.083   4.750  0.00  0.00    +0.000 HD
ENDBRANCH 408 409
ENDBRANCH 407 408
ENDBRANCH 406 407
ENDBRANCH 282 406
ENDBRANCH 280 282
ENDBRANCH 277 278
BRANCH 277 418
ATOM    418  CB  TYR A  76      -0.597  -3.450   0.643  0.00  0.00    +0.000 C 
BRANCH 418 419
ATOM    419  CG  TYR A  76      -1.311  -4.676   0.123  0.00  0.00    +0.000 A 
ATOM    420  CD1 TYR A  76      -0.779  -5.965   0.378  0.00  0.00    +0.000 A 
ATOM    421  CD2 TYR A  76      -2.508  -4.538  -0.631  0.00  0.00    +0.000 A 
ATOM    422  CE1 TYR A  76      -1.440  -7.121  -0.119  0.00  0.00    +0.000 A 
ATOM    423  CE2 TYR A  76      -3.171  -5.693  -1.127  0.00  0.00    +0.000 A 
ATOM    424  CZ  TYR A  76      -2.636  -6.985  -0.871  0.00  0.00    +0.000 A 
BRANCH 424 425
ATOM    425  OH  TYR A  76      -3.277  -8.105  -1.356  0.00  0.00    +0.000 OA
ATOM    426  HH  TYR A  76      -3.143  -8.134  -2.307  0.00  0.00    +0.000 HD
ENDBRANCH 424 425
ENDBRANCH 418 419
ENDBRANCH 277 418
ENDBRANCH 275 277
ENDBRANCH 272 273
BRANCH 272 427
ATOM    427  CB  GLU A  75      -4.642  -4.332   3.007  0.00  0.00    +0.000 C 
BRANCH 427 428
ATOM    428  CG  GLU A  75      -5.790  -5.211   3.507  0.00  0.00    +0.000 C 
BRANCH 428 429
ATOM    429  CD  GLU A  75      -5.322  -6.665   3.580  0.00  0.00    +0.000 C 
ATOM    430  OE1 GLU A  75      -4.612  -7.083   2.680  0.00  0.00    +0.000 OA
ATOM    431  OE2 GLU A  75      -5.680  -7.335   4.533  0.00  0.00    +0.000 OA
ENDBRANCH 428 429
ENDBRANCH 427 428
ENDBRANCH 272 427
ENDBRANCH 270 272
ENDBRANCH 267 268
BRANCH 267 432
ATOM    432  CB  ILE A  74      -4.846  -1.140   7.530  0.00  0.00    +0.000 C 
ATOM    433  CG2 ILE A  74      -6.059  -0.621   6.746  0.00  0.00    +0.000 C 
BRANCH 432 434
ATOM    434  CG1 ILE A  74      -5.207  -2.489   8.215  0.00  0.00    +0.000 C 
ATOM    435  CD1 ILE A  74      -6.002  -3.412   7.263  0.00  0.00    +0.000 C 
ENDBRANCH 432 434
ENDBRANCH 267 432
ENDBRANCH 265 267
ENDBRANCH 262 263
BRANCH 262 436
ATOM    436  CB  LYS A  73      -2.811   2.953   4.918  0.00  0.00    +0.000 C 
BRANCH 436 437
ATOM    437  CG  LYS A  73      -2.030   4.065   4.218  0.00  0.00    +0.000 C 
BRANCH 437 438
ATOM    438  CD  LYS A  73      -2.824   4.559   3.009  0.00  0.00    +0.000 C 
BRANCH 438 439
ATOM    439  CE  LYS A  73      -2.424   3.753   1.771  0.00  0.00    +0.000 C 
BRANCH 439 440
ATOM    440  NZ  LYS A  73      -1.308   4.523   1.155  0.00  0.00    +0.000 N 
ATOM    441  HZ1 LYS A  73      -1.614   5.502   0.987  0.00  0.00    +0.000 HD
ATOM    442  HZ2 LYS A  73      -1.041   4.082   0.251  0.00  0.00    +0.000 HD
ATOM    443  HZ3 LYS A  73      -0.491   4.523   1.797  0.00  0.00    +0.000 HD
ENDBRANCH 439 440
ENDBRANCH 438 439
ENDBRANCH 437 438
ENDBRANCH 436 437
ENDBRANCH 262 436
ENDBRANCH 260 262
ENDBRANCH 257 258
BRANCH 257 444
ATOM    444  CB  HIS A  72      -4.621   0.950   0.403  0.00  0.00    +0.000 C 
BRANCH 444 445
ATOM    445  CG  HIS A  72      -3.405   0.608  -0.410  0.00  0.00    +0.000 A 
ATOM    446  ND1 HIS A  72      -3.219  -0.646  -0.981  0.00  0.00    +0.000 N 
ATOM    447  CD2 HIS A  72      -2.289   1.336  -0.735  0.00  0.00    +0.000 A 
ATOM    448  CE1 HIS A  72      -2.026  -0.631  -1.606  0.00  0.00    +0.000 A 
ATOM    449  NE2 HIS A  72      -1.424   0.551  -1.481  0.00  0.00    +0.000 NA
ATOM    450  HD1 HIS A  72      -3.840  -1.402  -0.935  0.00  0.00    +0.000 HD
ENDBRANCH 444 445
ENDBRANCH 257 444
ENDBRANCH 255 257
ENDBRANCH 252 253
BRANCH 252 451
ATOM    451  CB  GLN A  71      -8.955  -1.127   3.397  0.00  0.00    +0.000 C 
BRANCH 451 452
ATOM    452  CG  GLN A  71      -9.036  -1.099   1.853  0.00  0.00    +0.000 C 
BRANCH 452 453
ATOM    453  CD  GLN A  71      -7.897  -1.914   1.222  0.00  0.00    +0.000 C 
ATOM    454  OE1 GLN A  71      -7.264  -1.456   0.292  0.00  0.00    +0.000 OA
ATOM    455  NE2 GLN A  71      -7.598  -3.102   1.678  0.00  0.00    +0.000 N 
ATOM    456 HE21 GLN A  71      -8.105  -3.501   2.413  0.00  0.00    +0.000 HD
ATOM    457 HE22 GLN A  71      -6.838  -3.576   1.307  0.00  0.00    +0.000 HD
ENDBRANCH 452 453
ENDBRANCH 451 452
ENDBRANCH 252 451
ENDBRANCH 250 252
ENDBRANCH 244 248
ENDBRANCH 240 241
BRANCH 240 458
ATOM    458  CB  ASN A  69      -7.244   3.002  -0.263  0.00  0.00    +0.000 C 
BRANCH 458 459
ATOM    459  CG  ASN A  69      -7.999   3.209  -1.582  0.00  0.00    +0.000 C 
ATOM    460  OD1 ASN A  69      -7.447   3.003  -2.644  0.00  0.00    +0.000 OA
ATOM    461  ND2 ASN A  69      -9.247   3.611  -1.566  0.00  0.00    +0.000 N 
ATOM    462 HD21 ASN A  69      -9.704   3.781  -0.714  0.00  0.00    +0.000 HD
ATOM    463 HD22 ASN A  69      -9.727   3.741  -2.411  0.00  0.00    +0.000 HD
ENDBRANCH 458 459
ENDBRANCH 240 458
ENDBRANCH 238 240
ENDBRANCH   1 236
BRANCH   1 464
ATOM    464  CB  LYS A  68      -5.134   8.560  -0.824  0.00  0.00    +0.000 C 
BRANCH 464 465
ATOM    465  CG  LYS A  68      -3.856   9.272  -1.273  0.00  0.00    +0.000 C 
BRANCH 465 466
ATOM    466  CD  LYS A  68      -4.160  10.748  -1.540  0.00  0.00    +0.000 C 
BRANCH 466 467
ATOM    467  CE  LYS A  68      -3.303  11.244  -2.706  0.00  0.00    +0.000 C 
BRANCH 467 468
ATOM    468  NZ  LYS A  68      -4.044  12.413  -3.257  0.00  0.00    +0.000 N 
ATOM    469  HZ1 LYS A  68      -3.525  12.801  -4.070  0.00  0.00    +0.000 HD
ATOM    470  HZ2 LYS A  68      -4.135  13.143  -2.521  0.00  0.00    +0.000 HD
ATOM    471  HZ3 LYS A  68      -4.990  12.111  -3.565  0.00  0.00    +0.000 HD
ENDBRANCH 467 468
ENDBRANCH 466 467
ENDBRANCH 465 466
ENDBRANCH 464 465
ENDBRANCH   1 464
TORSDOF 185
