REMARK  Name = /Users/acegid/Desktop/Smoking_Research/Docking/Docking_All_PDB/All_PDB/2KQD_H.pdb
REMARK  374 active torsions:
REMARK  status: ('A' for Active; 'I' for Inactive)
REMARK    1  A    between atoms: N_1  and  CA_2
REMARK    2  A    between atoms: CA_2  and  C_3
REMARK    3  A    between atoms: CA_11  and  C_12
REMARK    4  A    between atoms: N_24  and  CA_25
REMARK    5  A    between atoms: CA_25  and  C_26
REMARK    6  A    between atoms: CA_25  and  CB_28
REMARK    7  A    between atoms: CB_28  and  CG_29
REMARK    8  A    between atoms: CG_29  and  CD1_30
REMARK    9  A    between atoms: CG_29  and  CD2_31
REMARK   10  A    between atoms: N_43  and  CA_44
REMARK   11  A    between atoms: CA_44  and  C_45
REMARK   12  A    between atoms: N_50  and  CA_51
REMARK   13  A    between atoms: CA_51  and  C_52
REMARK   14  A    between atoms: CA_51  and  CB_54
REMARK   15  A    between atoms: CB_54  and  OG_55
REMARK   16  A    between atoms: N_61  and  CA_62
REMARK   17  A    between atoms: CA_62  and  C_63
REMARK   18  A    between atoms: N_68  and  CA_69
REMARK   19  A    between atoms: CA_69  and  C_70
REMARK   20  A    between atoms: CA_69  and  CB_72
REMARK   21  A    between atoms: CB_72  and  OG_73
REMARK   22  A    between atoms: N_79  and  CA_80
REMARK   23  A    between atoms: CA_80  and  C_81
REMARK   24  A    between atoms: CA_80  and  CB_83
REMARK   25  A    between atoms: CB_83  and  CG_84
REMARK   26  A    between atoms: CG_84  and  CD_85
REMARK   27  A    between atoms: N_94  and  CA_95
REMARK   28  A    between atoms: CA_95  and  C_96
REMARK   29  A    between atoms: N_101  and  CA_102
REMARK   30  A    between atoms: CA_102  and  C_103
REMARK   31  A    between atoms: CA_102  and  CB_105
REMARK   32  A    between atoms: CB_105  and  CG_106
REMARK   33  A    between atoms: N_115  and  CA_116
REMARK   34  A    between atoms: CA_116  and  C_117
REMARK   35  A    between atoms: CA_116  and  CB_119
REMARK   36  A    between atoms: CB_119  and  CG_120
REMARK   37  A    between atoms: CG_120  and  CD_121
REMARK   38  A    between atoms: CD_121  and  CE_122
REMARK   39  A    between atoms: CE_122  and  NZ_123
REMARK   40  A    between atoms: N_137  and  CA_138
REMARK   41  A    between atoms: CA_138  and  C_139
REMARK   42  A    between atoms: CA_138  and  CB_141
REMARK   43  A    between atoms: CB_141  and  CG1_142
REMARK   44  A    between atoms: CB_141  and  CG2_143
REMARK   45  A    between atoms: N_153  and  CA_154
REMARK   46  A    between atoms: CA_154  and  C_155
REMARK   47  A    between atoms: CA_154  and  CB_157
REMARK   48  A    between atoms: CB_157  and  CG_158
REMARK   49  A    between atoms: CG_158  and  CD_159
REMARK   50  A    between atoms: CD_159  and  CE_160
REMARK   51  A    between atoms: CE_160  and  NZ_161
REMARK   52  A    between atoms: N_175  and  CA_176
REMARK   53  A    between atoms: CA_176  and  C_177
REMARK   54  A    between atoms: CA_176  and  CB_179
REMARK   55  A    between atoms: CB_179  and  CG_180
REMARK   56  A    between atoms: CG_180  and  CD_181
REMARK   57  A    between atoms: CD_181  and  NE_182
REMARK   58  A    between atoms: N_199  and  CA_200
REMARK   59  A    between atoms: CA_200  and  C_201
REMARK   60  A    between atoms: CA_200  and  CB_203
REMARK   61  A    between atoms: CB_203  and  OG1_204
REMARK   62  A    between atoms: CB_203  and  CG2_205
REMARK   63  A    between atoms: N_213  and  CA_214
REMARK   64  A    between atoms: CA_214  and  C_215
REMARK   65  A    between atoms: CA_214  and  CB_217
REMARK   66  A    between atoms: CB_217  and  OG_218
REMARK   67  A    between atoms: N_224  and  CA_225
REMARK   68  A    between atoms: CA_225  and  C_226
REMARK   69  A    between atoms: CA_225  and  CB_228
REMARK   70  A    between atoms: CB_228  and  SG_229
REMARK   71  A    between atoms: N_235  and  CA_236
REMARK   72  A    between atoms: CA_236  and  C_237
REMARK   73  A    between atoms: CA_236  and  CB_239
REMARK   74  A    between atoms: CB_239  and  CG_240
REMARK   75  A    between atoms: CG_240  and  SD_241
REMARK   76  A    between atoms: SD_241  and  CE_242
REMARK   77  A    between atoms: N_252  and  CA_253
REMARK   78  A    between atoms: CA_253  and  C_254
REMARK   79  A    between atoms: CA_253  and  CB_256
REMARK   80  A    between atoms: CB_256  and  CG_257
REMARK   81  A    between atoms: CZ_262  and  OH_263
REMARK   82  A    between atoms: N_273  and  CA_274
REMARK   83  A    between atoms: CA_274  and  C_275
REMARK   84  A    between atoms: N_280  and  CA_281
REMARK   85  A    between atoms: CA_281  and  C_282
REMARK   86  A    between atoms: CA_281  and  CB_284
REMARK   87  A    between atoms: N_290  and  CA_291
REMARK   88  A    between atoms: CA_291  and  C_292
REMARK   89  A    between atoms: CA_291  and  CB_294
REMARK   90  A    between atoms: CB_294  and  CG_295
REMARK   91  A    between atoms: N_304  and  CA_305
REMARK   92  A    between atoms: CA_305  and  C_306
REMARK   93  A    between atoms: CA_305  and  CB_308
REMARK   94  A    between atoms: CB_308  and  SG_309
REMARK   95  A    between atoms: N_315  and  CA_316
REMARK   96  A    between atoms: CA_316  and  C_317
REMARK   97  A    between atoms: CA_316  and  CB_319
REMARK   98  A    between atoms: CB_319  and  CG_320
REMARK   99  A    between atoms: CZ_325  and  OH_326
REMARK  100  A    between atoms: N_336  and  CA_337
REMARK  101  A    between atoms: CA_337  and  C_338
REMARK  102  A    between atoms: CA_337  and  CB_340
REMARK  103  A    between atoms: CB_340  and  CG_341
REMARK  104  A    between atoms: CG_341  and  CD_342
REMARK  105  A    between atoms: CD_342  and  NE_343
REMARK  106  A    between atoms: N_360  and  CA_361
REMARK  107  A    between atoms: CA_361  and  C_362
REMARK  108  A    between atoms: CA_361  and  CB_364
REMARK  109  A    between atoms: CB_364  and  CG_365
REMARK  110  A    between atoms: CG_365  and  CD_366
REMARK  111  A    between atoms: CD_366  and  CE_367
REMARK  112  A    between atoms: CE_367  and  NZ_368
REMARK  113  A    between atoms: N_382  and  CA_383
REMARK  114  A    between atoms: CA_383  and  C_384
REMARK  115  A    between atoms: CA_383  and  CB_386
REMARK  116  A    between atoms: CB_386  and  CG_387
REMARK  117  A    between atoms: CA_397  and  C_398
REMARK  118  A    between atoms: N_410  and  CA_411
REMARK  119  A    between atoms: CA_411  and  C_412
REMARK  120  A    between atoms: CA_411  and  CB_414
REMARK  121  A    between atoms: CB_414  and  CG1_415
REMARK  122  A    between atoms: CB_414  and  CG2_416
REMARK  123  A    between atoms: N_426  and  CA_427
REMARK  124  A    between atoms: CA_427  and  C_428
REMARK  125  A    between atoms: CA_427  and  CB_430
REMARK  126  A    between atoms: CB_430  and  CG_431
REMARK  127  A    between atoms: N_443  and  CA_444
REMARK  128  A    between atoms: CA_444  and  C_445
REMARK  129  A    between atoms: CA_444  and  CB_447
REMARK  130  A    between atoms: CB_447  and  CG_448
REMARK  131  A    between atoms: N_463  and  CA_464
REMARK  132  A    between atoms: CA_464  and  C_465
REMARK  133  A    between atoms: CA_464  and  CB_467
REMARK  134  A    between atoms: CB_467  and  CG_468
REMARK  135  A    between atoms: CG_468  and  CD_469
REMARK  136  A    between atoms: N_480  and  CA_481
REMARK  137  A    between atoms: CA_481  and  C_482
REMARK  138  A    between atoms: CA_481  and  CB_484
REMARK  139  A    between atoms: CB_484  and  CG_485
REMARK  140  A    between atoms: N_498  and  CA_499
REMARK  141  A    between atoms: CA_499  and  C_500
REMARK  142  A    between atoms: CA_499  and  CB_502
REMARK  143  A    between atoms: CB_502  and  CG_503
REMARK  144  A    between atoms: N_518  and  CA_519
REMARK  145  A    between atoms: CA_519  and  C_520
REMARK  146  A    between atoms: CA_519  and  CB_522
REMARK  147  A    between atoms: CB_522  and  OG_523
REMARK  148  A    between atoms: N_529  and  CA_530
REMARK  149  A    between atoms: CA_530  and  C_531
REMARK  150  A    between atoms: CA_530  and  CB_533
REMARK  151  A    between atoms: CB_533  and  CG_534
REMARK  152  A    between atoms: CA_547  and  C_548
REMARK  153  A    between atoms: N_560  and  CA_561
REMARK  154  A    between atoms: CA_561  and  C_562
REMARK  155  A    between atoms: N_567  and  CA_568
REMARK  156  A    between atoms: CA_568  and  C_569
REMARK  157  A    between atoms: CA_568  and  CB_571
REMARK  158  A    between atoms: CB_571  and  CG_572
REMARK  159  A    between atoms: N_579  and  CA_580
REMARK  160  A    between atoms: CA_580  and  C_581
REMARK  161  A    between atoms: CA_580  and  CB_583
REMARK  162  A    between atoms: CB_583  and  OG_584
REMARK  163  A    between atoms: N_590  and  CA_591
REMARK  164  A    between atoms: CA_591  and  C_592
REMARK  165  A    between atoms: CA_591  and  CB_594
REMARK  166  A    between atoms: CB_594  and  CG_595
REMARK  167  A    between atoms: N_602  and  CA_603
REMARK  168  A    between atoms: CA_603  and  C_604
REMARK  169  A    between atoms: CA_603  and  CB_606
REMARK  170  A    between atoms: CB_606  and  CG_607
REMARK  171  A    between atoms: CZ_612  and  OH_613
REMARK  172  A    between atoms: N_623  and  CA_624
REMARK  173  A    between atoms: CA_624  and  C_625
REMARK  174  A    between atoms: N_630  and  CA_631
REMARK  175  A    between atoms: CA_631  and  C_632
REMARK  176  A    between atoms: N_637  and  CA_638
REMARK  177  A    between atoms: CA_638  and  C_639
REMARK  178  A    between atoms: CA_638  and  CB_641
REMARK  179  A    between atoms: CB_641  and  CG1_642
REMARK  180  A    between atoms: CB_641  and  CG2_643
REMARK  181  A    between atoms: N_653  and  CA_654
REMARK  182  A    between atoms: CA_654  and  C_655
REMARK  183  A    between atoms: CA_654  and  CB_657
REMARK  184  A    between atoms: CB_657  and  CG_658
REMARK  185  A    between atoms: CG_658  and  CD_659
REMARK  186  A    between atoms: N_670  and  CA_671
REMARK  187  A    between atoms: CA_671  and  C_672
REMARK  188  A    between atoms: CA_671  and  CB_674
REMARK  189  A    between atoms: CB_674  and  CG1_675
REMARK  190  A    between atoms: CB_674  and  CG2_676
REMARK  191  A    between atoms: CG1_675  and  CD1_677
REMARK  192  A    between atoms: N_689  and  CA_690
REMARK  193  A    between atoms: CA_690  and  C_691
REMARK  194  A    between atoms: CA_690  and  CB_693
REMARK  195  A    between atoms: CB_693  and  CG1_694
REMARK  196  A    between atoms: CB_693  and  CG2_695
REMARK  197  A    between atoms: N_705  and  CA_706
REMARK  198  A    between atoms: CA_706  and  C_707
REMARK  199  A    between atoms: N_712  and  CA_713
REMARK  200  A    between atoms: CA_713  and  C_714
REMARK  201  A    between atoms: CA_713  and  CB_716
REMARK  202  A    between atoms: CB_716  and  CG_717
REMARK  203  A    between atoms: CG_717  and  CD_718
REMARK  204  A    between atoms: N_729  and  CA_730
REMARK  205  A    between atoms: CA_730  and  C_731
REMARK  206  A    between atoms: CA_730  and  CB_733
REMARK  207  A    between atoms: CB_733  and  CG_734
REMARK  208  A    between atoms: N_741  and  CA_742
REMARK  209  A    between atoms: CA_742  and  C_743
REMARK  210  A    between atoms: CA_742  and  CB_745
REMARK  211  A    between atoms: CB_745  and  CG_746
REMARK  212  A    between atoms: CG_746  and  CD_747
REMARK  213  A    between atoms: N_756  and  CA_757
REMARK  214  A    between atoms: CA_757  and  C_758
REMARK  215  A    between atoms: CA_757  and  CB_760
REMARK  216  A    between atoms: CB_760  and  OG1_761
REMARK  217  A    between atoms: CB_760  and  CG2_762
REMARK  218  A    between atoms: N_770  and  CA_771
REMARK  219  A    between atoms: CA_771  and  C_772
REMARK  220  A    between atoms: CA_771  and  CB_774
REMARK  221  A    between atoms: CB_774  and  CG_775
REMARK  222  A    between atoms: N_782  and  CA_783
REMARK  223  A    between atoms: CA_783  and  C_784
REMARK  224  A    between atoms: CA_783  and  CB_786
REMARK  225  A    between atoms: C_784  and  N_794
REMARK  226  A    between atoms: CB_786  and  CG_787
REMARK  227  A    between atoms: CA_796  and  CB_798
REMARK  228  A    between atoms: CA_796  and  C_816
REMARK  229  A    between atoms: CB_798  and  CG_801
REMARK  230  A    between atoms: CG_801  and  CD_804
REMARK  231  A    between atoms: CD_804  and  NE_807
REMARK  232  A    between atoms: CA_828  and  C_830
REMARK  233  A    between atoms: N_832  and  CA_834
REMARK  234  A    between atoms: CA_834  and  CB_836
REMARK  235  A    between atoms: CA_834  and  C_845
REMARK  236  A    between atoms: CB_836  and  CG_839
REMARK  237  A    between atoms: CG_839  and  CD_842
REMARK  238  A    between atoms: N_847  and  CA_849
REMARK  239  A    between atoms: CA_849  and  CB_851
REMARK  240  A    between atoms: CA_849  and  C_856
REMARK  241  A    between atoms: CB_851  and  SG_854
REMARK  242  A    between atoms: CA_868  and  C_870
REMARK  243  A    between atoms: N_872  and  CA_874
REMARK  244  A    between atoms: CA_874  and  CB_876
REMARK  245  A    between atoms: CA_874  and  C_891
REMARK  246  A    between atoms: CB_876  and  CG_879
REMARK  247  A    between atoms: CZ_884  and  OH_885
REMARK  248  A    between atoms: N_893  and  CA_895
REMARK  249  A    between atoms: CA_895  and  C_898
REMARK  250  A    between atoms: CA_910  and  C_912
REMARK  251  A    between atoms: N_914  and  CA_916
REMARK  252  A    between atoms: CA_916  and  CB_918
REMARK  253  A    between atoms: CA_916  and  C_923
REMARK  254  A    between atoms: CB_918  and  OG_921
REMARK  255  A    between atoms: N_925  and  CA_927
REMARK  256  A    between atoms: CA_927  and  CB_929
REMARK  257  A    between atoms: CA_927  and  C_934
REMARK  258  A    between atoms: CB_929  and  SG_932
REMARK  259  A    between atoms: N_936  and  CA_938
REMARK  260  A    between atoms: CA_938  and  CB_940
REMARK  261  A    between atoms: CA_938  and  C_955
REMARK  262  A    between atoms: CB_940  and  CG_943
REMARK  263  A    between atoms: CZ_948  and  OH_949
REMARK  264  A    between atoms: N_957  and  CA_959
REMARK  265  A    between atoms: CA_959  and  CB_961
REMARK  266  A    between atoms: CA_959  and  C_979
REMARK  267  A    between atoms: CB_961  and  CG_964
REMARK  268  A    between atoms: CG_964  and  CD_967
REMARK  269  A    between atoms: CD_967  and  NE_970
REMARK  270  A    between atoms: N_981  and  CA_983
REMARK  271  A    between atoms: CA_983  and  CB_985
REMARK  272  A    between atoms: CA_983  and  C_1001
REMARK  273  A    between atoms: CB_985  and  CG_988
REMARK  274  A    between atoms: CG_988  and  CD_991
REMARK  275  A    between atoms: CD_991  and  CE_994
REMARK  276  A    between atoms: CE_994  and  NZ_997
REMARK  277  A    between atoms: N_1003  and  CA_1005
REMARK  278  A    between atoms: CA_1005  and  CB_1007
REMARK  279  A    between atoms: CA_1005  and  C_1015
REMARK  280  A    between atoms: CB_1007  and  CG_1010
REMARK  281  A    between atoms: CA_1027  and  C_1029
REMARK  282  A    between atoms: N_1031  and  CA_1033
REMARK  283  A    between atoms: CA_1033  and  CB_1035
REMARK  284  A    between atoms: CA_1033  and  C_1046
REMARK  285  A    between atoms: CB_1035  and  CG_1038
REMARK  286  A    between atoms: CG_1038  and  CD_1041
REMARK  287  A    between atoms: N_1048  and  CA_1050
REMARK  288  A    between atoms: CA_1050  and  CB_1052
REMARK  289  A    between atoms: CA_1050  and  C_1063
REMARK  290  A    between atoms: CB_1052  and  CG_1055
REMARK  291  A    between atoms: N_1065  and  CA_1067
REMARK  292  A    between atoms: CA_1067  and  CB_1069
REMARK  293  A    between atoms: CA_1067  and  C_1085
REMARK  294  A    between atoms: CB_1069  and  CG_1072
REMARK  295  A    between atoms: CG_1072  and  CD_1075
REMARK  296  A    between atoms: CD_1075  and  CE_1078
REMARK  297  A    between atoms: CE_1078  and  NZ_1081
REMARK  298  A    between atoms: N_1087  and  CA_1089
REMARK  299  A    between atoms: CA_1089  and  CB_1091
REMARK  300  A    between atoms: CA_1089  and  C_1104
REMARK  301  A    between atoms: CB_1091  and  CG2_1093
REMARK  302  A    between atoms: CB_1091  and  CG1_1097
REMARK  303  A    between atoms: CG1_1097  and  CD1_1100
REMARK  304  A    between atoms: N_1106  and  CA_1108
REMARK  305  A    between atoms: CA_1108  and  CB_1110
REMARK  306  A    between atoms: CA_1108  and  C_1119
REMARK  307  A    between atoms: CB_1110  and  CG_1113
REMARK  308  A    between atoms: CG_1113  and  CD_1116
REMARK  309  A    between atoms: N_1121  and  CA_1123
REMARK  310  A    between atoms: CA_1123  and  CB_1125
REMARK  311  A    between atoms: CA_1123  and  C_1140
REMARK  312  A    between atoms: CB_1125  and  CG_1128
REMARK  313  A    between atoms: CZ_1133  and  OH_1134
REMARK  314  A    between atoms: N_1142  and  CA_1144
REMARK  315  A    between atoms: CA_1144  and  CB_1146
REMARK  316  A    between atoms: CA_1144  and  C_1164
REMARK  317  A    between atoms: CB_1146  and  CG_1149
REMARK  318  A    between atoms: CG_1149  and  CD_1152
REMARK  319  A    between atoms: CD_1152  and  NE_1155
REMARK  320  A    between atoms: N_1166  and  CA_1168
REMARK  321  A    between atoms: CA_1168  and  CB_1170
REMARK  322  A    between atoms: CA_1168  and  C_1181
REMARK  323  A    between atoms: CB_1170  and  CG_1173
REMARK  324  A    between atoms: N_1183  and  CA_1185
REMARK  325  A    between atoms: CA_1185  and  CB_1187
REMARK  326  A    between atoms: CA_1185  and  C_1195
REMARK  327  A    between atoms: CB_1187  and  CG_1190
REMARK  328  A    between atoms: N_1197  and  CA_1199
REMARK  329  A    between atoms: CA_1199  and  CB_1201
REMARK  330  A    between atoms: CA_1199  and  C_1209
REMARK  331  A    between atoms: CB_1201  and  CG2_1203
REMARK  332  A    between atoms: CB_1201  and  OG1_1207
REMARK  333  A    between atoms: N_1211  and  CA_1213
REMARK  334  A    between atoms: CA_1213  and  CB_1215
REMARK  335  A    between atoms: CA_1213  and  C_1228
REMARK  336  A    between atoms: CB_1215  and  CG_1218
REMARK  337  A    between atoms: CG_1218  and  CD1_1220
REMARK  338  A    between atoms: CG_1218  and  CD2_1224
REMARK  339  A    between atoms: CA_1240  and  C_1242
REMARK  340  A    between atoms: N_1244  and  CA_1246
REMARK  341  A    between atoms: CA_1246  and  CB_1248
REMARK  342  A    between atoms: CA_1246  and  C_1258
REMARK  343  A    between atoms: CB_1248  and  CG1_1250
REMARK  344  A    between atoms: CB_1248  and  CG2_1254
REMARK  345  A    between atoms: N_1260  and  CA_1262
REMARK  346  A    between atoms: CA_1262  and  CB_1264
REMARK  347  A    between atoms: CA_1262  and  C_1282
REMARK  348  A    between atoms: CB_1264  and  CG_1267
REMARK  349  A    between atoms: CG_1267  and  CD_1270
REMARK  350  A    between atoms: CD_1270  and  NE_1273
REMARK  351  A    between atoms: N_1284  and  CA_1286
REMARK  352  A    between atoms: CA_1286  and  CB_1288
REMARK  353  A    between atoms: CA_1286  and  C_1296
REMARK  354  A    between atoms: CB_1288  and  CG_1291
REMARK  355  A    between atoms: N_1298  and  CA_1300
REMARK  356  A    between atoms: CA_1300  and  CB_1302
REMARK  357  A    between atoms: CA_1300  and  C_1312
REMARK  358  A    between atoms: CB_1302  and  CG1_1304
REMARK  359  A    between atoms: CB_1302  and  CG2_1308
REMARK  360  A    between atoms: N_1314  and  CA_1316
REMARK  361  A    between atoms: CA_1316  and  CB_1318
REMARK  362  A    between atoms: CA_1316  and  C_1331
REMARK  363  A    between atoms: CB_1318  and  CG_1321
REMARK  364  A    between atoms: CG_1321  and  CD1_1323
REMARK  365  A    between atoms: CG_1321  and  CD2_1327
REMARK  366  A    between atoms: N_1333  and  CA_1335
REMARK  367  A    between atoms: CA_1335  and  CB_1337
REMARK  368  A    between atoms: CA_1335  and  C_1343
REMARK  369  A    between atoms: CB_1337  and  CG_1340
REMARK  370  A    between atoms: N_1345  and  CA_1347
REMARK  371  A    between atoms: CA_1347  and  CB_1349
REMARK  372  A    between atoms: CA_1347  and  C_1358
REMARK  373  A    between atoms: CB_1349  and  CG_1352
REMARK  374  A    between atoms: CG_1352  and  CD_1355
REMARK                            x       y       z     vdW  Elec       q    Type
REMARK                         _______ _______ _______ _____ _____    ______ ____
ROOT
ATOM      1  C   ASN A  27       1.841   6.035  -7.350  0.00  0.00    +0.000 C 
ATOM      2  O   ASN A  27       1.654   4.889  -6.993  0.00  0.00    +0.000 OA
ATOM      3  N   PRO A  28       2.689   6.370  -8.297  0.00  0.00    +0.000 N 
ATOM      4  CA  PRO A  28       3.486   5.331  -8.996  0.00  0.00    +0.000 C 
ATOM      5  CB  PRO A  28       4.057   6.068 -10.206  0.00  0.00    +0.000 C 
ATOM      6  CG  PRO A  28       4.088   7.509  -9.810  0.00  0.00    +0.000 C 
ATOM      7  CD  PRO A  28       2.992   7.722  -8.797  0.00  0.00    +0.000 C 
ENDROOT
BRANCH   4   8
ATOM      8  C   PRO A  28       4.621   4.812  -8.086  0.00  0.00    +0.000 C 
ATOM      9  O   PRO A  28       5.020   3.675  -8.189  0.00  0.00    +0.000 OA
ATOM     10  N   VAL A  29       5.128   5.633  -7.186  0.00  0.00    +0.000 N 
ATOM     11  H   VAL A  29       4.764   6.538  -7.103  0.00  0.00    +0.000 HD
BRANCH  10  12
ATOM     12  CA  VAL A  29       6.212   5.176  -6.253  0.00  0.00    +0.000 C 
BRANCH  12  13
ATOM     13  C   VAL A  29       5.651   4.818  -4.854  0.00  0.00    +0.000 C 
ATOM     14  O   VAL A  29       6.286   4.102  -4.103  0.00  0.00    +0.000 OA
ATOM     15  N   HIS A  30       4.488   5.323  -4.480  0.00  0.00    +0.000 N 
ATOM     16  H   HIS A  30       3.977   5.895  -5.081  0.00  0.00    +0.000 HD
BRANCH  15  17
ATOM     17  CA  HIS A  30       3.927   5.016  -3.116  0.00  0.00    +0.000 C 
BRANCH  17  18
ATOM     18  C   HIS A  30       3.679   3.507  -2.976  0.00  0.00    +0.000 C 
ATOM     19  O   HIS A  30       3.924   2.939  -1.928  0.00  0.00    +0.000 OA
ATOM     20  N   PHE A  31       3.221   2.844  -4.020  0.00  0.00    +0.000 N 
ATOM     21  H   PHE A  31       3.053   3.315  -4.867  0.00  0.00    +0.000 HD
BRANCH  20  22
ATOM     22  CA  PHE A  31       3.001   1.358  -3.909  0.00  0.00    +0.000 C 
BRANCH  22  23
ATOM     23  C   PHE A  31       4.329   0.672  -3.545  0.00  0.00    +0.000 C 
ATOM     24  O   PHE A  31       4.335  -0.339  -2.871  0.00  0.00    +0.000 OA
ATOM     25  N   GLN A  32       5.455   1.209  -3.990  0.00  0.00    +0.000 N 
ATOM     26  H   GLN A  32       5.419   2.028  -4.552  0.00  0.00    +0.000 HD
BRANCH  25  27
ATOM     27  CA  GLN A  32       6.766   0.545  -3.650  0.00  0.00    +0.000 C 
BRANCH  27  28
ATOM     28  C   GLN A  32       7.151   0.817  -2.185  0.00  0.00    +0.000 C 
ATOM     29  O   GLN A  32       7.796   0.001  -1.555  0.00  0.00    +0.000 OA
ATOM     30  N   HIS A  33       6.783   1.957  -1.639  0.00  0.00    +0.000 N 
ATOM     31  H   HIS A  33       6.276   2.621  -2.169  0.00  0.00    +0.000 HD
BRANCH  30  32
ATOM     32  CA  HIS A  33       7.161   2.256  -0.211  0.00  0.00    +0.000 C 
BRANCH  32  33
ATOM     33  C   HIS A  33       6.177   1.606   0.781  0.00  0.00    +0.000 C 
ATOM     34  O   HIS A  33       6.567   1.210   1.865  0.00  0.00    +0.000 OA
ATOM     35  N   PHE A  34       4.907   1.505   0.439  0.00  0.00    +0.000 N 
ATOM     36  H   PHE A  34       4.598   1.837  -0.432  0.00  0.00    +0.000 HD
BRANCH  35  37
ATOM     37  CA  PHE A  34       3.920   0.897   1.389  0.00  0.00    +0.000 C 
BRANCH  37  38
ATOM     38  C   PHE A  34       3.183  -0.281   0.732  0.00  0.00    +0.000 C 
ATOM     39  O   PHE A  34       2.841  -0.228  -0.434  0.00  0.00    +0.000 OA
ATOM     40  N   SER A  35       2.914  -1.335   1.477  0.00  0.00    +0.000 N 
ATOM     41  H   SER A  35       3.180  -1.357   2.416  0.00  0.00    +0.000 HD
BRANCH  40  42
ATOM     42  CA  SER A  35       2.179  -2.493   0.891  0.00  0.00    +0.000 C 
BRANCH  42  43
ATOM     43  C   SER A  35       0.680  -2.290   1.099  0.00  0.00    +0.000 C 
ATOM     44  O   SER A  35       0.269  -1.377   1.792  0.00  0.00    +0.000 OA
ATOM     45  N   HIS A  36      -0.143  -3.111   0.492  0.00  0.00    +0.000 N 
ATOM     46  H   HIS A  36       0.203  -3.839  -0.075  0.00  0.00    +0.000 HD
BRANCH  45  47
ATOM     47  CA  HIS A  36      -1.608  -2.929   0.650  0.00  0.00    +0.000 C 
BRANCH  47  48
ATOM     48  C   HIS A  36      -2.305  -4.289   0.676  0.00  0.00    +0.000 C 
ATOM     49  O   HIS A  36      -1.803  -5.240   0.113  0.00  0.00    +0.000 OA
ATOM     50  N   PRO A  37      -3.452  -4.349   1.316  0.00  0.00    +0.000 N 
ATOM     51  CA  PRO A  37      -4.202  -5.627   1.378  0.00  0.00    +0.000 C 
ATOM     52  CB  PRO A  37      -5.435  -5.279   2.221  0.00  0.00    +0.000 C 
ATOM     53  CG  PRO A  37      -5.575  -3.799   2.081  0.00  0.00    +0.000 C 
ATOM     54  CD  PRO A  37      -4.169  -3.268   2.011  0.00  0.00    +0.000 C 
BRANCH  51  55
ATOM     55  C   PRO A  37      -4.544  -6.068  -0.054  0.00  0.00    +0.000 C 
ATOM     56  O   PRO A  37      -4.874  -5.248  -0.892  0.00  0.00    +0.000 OA
ATOM     57  N   GLY A  38      -4.426  -7.343  -0.359  0.00  0.00    +0.000 N 
ATOM     58  H   GLY A  38      -4.140  -7.996   0.318  0.00  0.00    +0.000 HD
BRANCH  57  59
ATOM     59  CA  GLY A  38      -4.699  -7.800  -1.752  0.00  0.00    +0.000 C 
BRANCH  59  60
ATOM     60  C   GLY A  38      -3.372  -8.048  -2.521  0.00  0.00    +0.000 C 
ATOM     61  O   GLY A  38      -3.405  -8.478  -3.659  0.00  0.00    +0.000 OA
ATOM     62  N   ASP A  39      -2.204  -7.823  -1.917  0.00  0.00    +0.000 N 
ATOM     63  H   ASP A  39      -2.168  -7.521  -0.986  0.00  0.00    +0.000 HD
BRANCH  62  64
ATOM     64  CA  ASP A  39      -0.929  -8.100  -2.637  0.00  0.00    +0.000 C 
BRANCH  64  65
ATOM     65  C   ASP A  39      -0.204  -9.246  -1.926  0.00  0.00    +0.000 C 
ATOM     66  O   ASP A  39      -0.544  -9.591  -0.809  0.00  0.00    +0.000 OA
ATOM     67  N   SER A  40       0.783  -9.844  -2.551  0.00  0.00    +0.000 N 
ATOM     68  H   SER A  40       1.043  -9.550  -3.457  0.00  0.00    +0.000 HD
BRANCH  67  69
ATOM     69  CA  SER A  40       1.505 -10.978  -1.876  0.00  0.00    +0.000 C 
BRANCH  69  70
ATOM     70  C   SER A  40       2.358 -10.478  -0.699  0.00  0.00    +0.000 C 
ATOM     71  O   SER A  40       2.652 -11.240   0.204  0.00  0.00    +0.000 OA
ATOM     72  N   ASP A  41       2.789  -9.230  -0.695  0.00  0.00    +0.000 N 
ATOM     73  H   ASP A  41       2.582  -8.611  -1.431  0.00  0.00    +0.000 HD
BRANCH  72  74
ATOM     74  CA  ASP A  41       3.650  -8.758   0.440  0.00  0.00    +0.000 C 
BRANCH  74  75
ATOM     75  C   ASP A  41       2.859  -7.989   1.512  0.00  0.00    +0.000 C 
ATOM     76  O   ASP A  41       3.456  -7.470   2.436  0.00  0.00    +0.000 OA
ATOM     77  N   TYR A  42       1.538  -7.900   1.431  0.00  0.00    +0.000 N 
ATOM     78  H   TYR A  42       1.049  -8.313   0.690  0.00  0.00    +0.000 HD
BRANCH  77  79
ATOM     79  CA  TYR A  42       0.792  -7.149   2.504  0.00  0.00    +0.000 C 
BRANCH  79  80
ATOM     80  C   TYR A  42       1.136  -7.751   3.873  0.00  0.00    +0.000 C 
ATOM     81  O   TYR A  42       1.307  -8.951   4.000  0.00  0.00    +0.000 OA
ATOM     82  N   GLY A  43       1.242  -6.934   4.889  0.00  0.00    +0.000 N 
ATOM     83  H   GLY A  43       1.088  -5.966   4.758  0.00  0.00    +0.000 HD
BRANCH  82  84
ATOM     84  CA  GLY A  43       1.580  -7.478   6.241  0.00  0.00    +0.000 C 
BRANCH  84  85
ATOM     85  C   GLY A  43       1.134  -6.500   7.325  0.00  0.00    +0.000 C 
ATOM     86  O   GLY A  43       1.846  -6.267   8.283  0.00  0.00    +0.000 OA
ATOM     87  N   GLY A  44      -0.035  -5.920   7.185  0.00  0.00    +0.000 N 
ATOM     88  H   GLY A  44      -0.603  -6.109   6.404  0.00  0.00    +0.000 HD
BRANCH  87  89
ATOM     89  CA  GLY A  44      -0.511  -4.962   8.211  0.00  0.00    +0.000 C 
BRANCH  89  90
ATOM     90  C   GLY A  44      -1.494  -5.664   9.137  0.00  0.00    +0.000 C 
ATOM     91  O   GLY A  44      -1.314  -5.679  10.339  0.00  0.00    +0.000 OA
ATOM     92  N   VAL A  45      -2.523  -6.274   8.582  0.00  0.00    +0.000 N 
ATOM     93  H   VAL A  45      -2.627  -6.284   7.608  0.00  0.00    +0.000 HD
BRANCH  92  94
ATOM     94  CA  VAL A  45      -3.524  -7.008   9.408  0.00  0.00    +0.000 C 
BRANCH  94  95
ATOM     95  C   VAL A  45      -3.932  -6.200  10.659  0.00  0.00    +0.000 C 
ATOM     96  O   VAL A  45      -3.643  -6.590  11.776  0.00  0.00    +0.000 OA
ATOM     97  N   GLN A  46      -4.594  -5.077  10.477  0.00  0.00    +0.000 N 
ATOM     98  H   GLN A  46      -4.817  -4.775   9.565  0.00  0.00    +0.000 HD
BRANCH  97  99
ATOM     99  CA  GLN A  46      -5.007  -4.251  11.655  0.00  0.00    +0.000 C 
BRANCH  99 100
ATOM    100  C   GLN A  46      -6.519  -4.404  11.904  0.00  0.00    +0.000 C 
ATOM    101  O   GLN A  46      -7.286  -3.491  11.662  0.00  0.00    +0.000 OA
ATOM    102  N   ILE A  47      -6.959  -5.551  12.394  0.00  0.00    +0.000 N 
ATOM    103  H   ILE A  47      -6.330  -6.275  12.592  0.00  0.00    +0.000 HD
BRANCH 102 104
ATOM    104  CA  ILE A  47      -8.420  -5.759  12.665  0.00  0.00    +0.000 C 
BRANCH 104 105
ATOM    105  C   ILE A  47      -9.268  -5.383  11.434  0.00  0.00    +0.000 C 
ATOM    106  O   ILE A  47      -9.963  -4.385  11.437  0.00  0.00    +0.000 OA
ATOM    107  N   VAL A  48      -9.227  -6.185  10.392  0.00  0.00    +0.000 N 
ATOM    108  H   VAL A  48      -8.671  -6.996  10.412  0.00  0.00    +0.000 HD
BRANCH 107 109
ATOM    109  CA  VAL A  48     -10.043  -5.883   9.177  0.00  0.00    +0.000 C 
BRANCH 109 110
ATOM    110  C   VAL A  48     -11.115  -6.970   9.019  0.00  0.00    +0.000 C 
ATOM    111  O   VAL A  48     -10.951  -7.899   8.251  0.00  0.00    +0.000 OA
ATOM    112  N   GLY A  49     -12.202  -6.877   9.758  0.00  0.00    +0.000 N 
ATOM    113  H   GLY A  49     -12.315  -6.131  10.389  0.00  0.00    +0.000 HD
BRANCH 112 114
ATOM    114  CA  GLY A  49     -13.260  -7.923   9.663  0.00  0.00    +0.000 C 
BRANCH 114 115
ATOM    115  C   GLY A  49     -12.811  -9.139  10.481  0.00  0.00    +0.000 C 
ATOM    116  O   GLY A  49     -12.669 -10.228   9.958  0.00  0.00    +0.000 OA
ATOM    117  N   GLN A  50     -12.566  -8.957  11.766  0.00  0.00    +0.000 N 
ATOM    118  H   GLN A  50     -12.674  -8.060  12.156  0.00  0.00    +0.000 HD
BRANCH 117 119
ATOM    119  CA  GLN A  50     -12.101 -10.108  12.628  0.00  0.00    +0.000 C 
BRANCH 119 120
ATOM    120  C   GLN A  50     -13.003 -11.343  12.432  0.00  0.00    +0.000 C 
ATOM    121  O   GLN A  50     -12.564 -12.354  11.917  0.00  0.00    +0.000 OA
ATOM    122  N   ASP A  51     -14.257 -11.271  12.835  0.00  0.00    +0.000 N 
ATOM    123  H   ASP A  51     -14.598 -10.447  13.250  0.00  0.00    +0.000 HD
BRANCH 122 124
ATOM    124  CA  ASP A  51     -15.166 -12.448  12.662  0.00  0.00    +0.000 C 
BRANCH 124 125
ATOM    125  C   ASP A  51     -16.642 -12.011  12.704  0.00  0.00    +0.000 C 
ATOM    126  O   ASP A  51     -17.474 -12.694  13.273  0.00  0.00    +0.000 OA
ATOM    127  N   GLU A  52     -16.977 -10.882  12.110  0.00  0.00    +0.000 N 
ATOM    128  H   GLU A  52     -16.296 -10.338  11.653  0.00  0.00    +0.000 HD
BRANCH 127 129
ATOM    129  CA  GLU A  52     -18.399 -10.421  12.127  0.00  0.00    +0.000 C 
BRANCH 129 130
ATOM    130  C   GLU A  52     -18.972 -10.414  10.703  0.00  0.00    +0.000 C 
ATOM    131  O   GLU A  52     -19.697  -9.510  10.330  0.00  0.00    +0.000 OA
ATOM    132  N   THR A  53     -18.660 -11.413   9.904  0.00  0.00    +0.000 N 
ATOM    133  H   THR A  53     -18.076 -12.138  10.218  0.00  0.00    +0.000 HD
BRANCH 132 134
ATOM    134  CA  THR A  53     -19.196 -11.455   8.512  0.00  0.00    +0.000 C 
BRANCH 134 135
ATOM    135  C   THR A  53     -19.986 -12.754   8.294  0.00  0.00    +0.000 C 
ATOM    136  O   THR A  53     -19.600 -13.596   7.504  0.00  0.00    +0.000 OA
ATOM    137  N   ASP A  54     -21.090 -12.925   8.991  0.00  0.00    +0.000 N 
ATOM    138  H   ASP A  54     -21.387 -12.235   9.626  0.00  0.00    +0.000 HD
BRANCH 137 139
ATOM    139  CA  ASP A  54     -21.898 -14.170   8.822  0.00  0.00    +0.000 C 
BRANCH 139 140
ATOM    140  C   ASP A  54     -23.302 -13.825   8.300  0.00  0.00    +0.000 C 
ATOM    141  O   ASP A  54     -24.285 -14.385   8.749  0.00  0.00    +0.000 OA
ATOM    142  N   ASP A  55     -23.408 -12.910   7.358  0.00  0.00    +0.000 N 
ATOM    143  H   ASP A  55     -22.606 -12.465   7.004  0.00  0.00    +0.000 HD
BRANCH 142 144
ATOM    144  CA  ASP A  55     -24.752 -12.542   6.819  0.00  0.00    +0.000 C 
BRANCH 144 145
ATOM    145  C   ASP A  55     -24.766 -12.679   5.294  0.00  0.00    +0.000 C 
ATOM    146  O   ASP A  55     -25.440 -13.571   4.806  0.00  0.00    +0.000 OA
BRANCH 145 147
ATOM    147  N   ARG A  56     -26.098 -12.045   4.538  0.00  0.00    +0.000 NA
ATOM    148  H   ARG A  56     -25.633 -11.813   3.465  0.00  0.00    +0.000 HD
ENDBRANCH 145 147
ENDBRANCH 144 145
BRANCH 144 149
ATOM    149  CB  ASP A  55     -24.956 -11.083   7.228  0.00  0.00    +0.000 C 
BRANCH 149 150
ATOM    150  CG  ASP A  55     -25.692 -11.026   8.568  0.00  0.00    +0.000 C 
ATOM    151  OD1 ASP A  55     -25.177 -11.574   9.528  0.00  0.00    +0.000 OA
ATOM    152  OD2 ASP A  55     -26.759 -10.436   8.611  0.00  0.00    +0.000 OA
ENDBRANCH 149 150
ENDBRANCH 144 149
ENDBRANCH 142 144
ENDBRANCH 139 140
BRANCH 139 153
ATOM    153  CB  ASP A  54     -21.981 -14.780  10.221  0.00  0.00    +0.000 C 
BRANCH 153 154
ATOM    154  CG  ASP A  54     -22.396 -16.249  10.114  0.00  0.00    +0.000 C 
ATOM    155  OD1 ASP A  54     -21.643 -17.016   9.538  0.00  0.00    +0.000 OA
ATOM    156  OD2 ASP A  54     -23.459 -16.581  10.611  0.00  0.00    +0.000 OA
ENDBRANCH 153 154
ENDBRANCH 139 153
ENDBRANCH 137 139
ENDBRANCH 134 135
BRANCH 134 157
ATOM    157  CB  THR A  53     -17.965 -11.405   7.598  0.00  0.00    +0.000 C 
ATOM    158  CG2 THR A  53     -17.808  -9.994   7.030  0.00  0.00    +0.000 C 
BRANCH 157 159
ATOM    159  OG1 THR A  53     -16.800 -11.753   8.337  0.00  0.00    +0.000 OA
ATOM    160  HG1 THR A  53     -16.745 -12.711   8.371  0.00  0.00    +0.000 HD
ENDBRANCH 157 159
ENDBRANCH 134 157
ENDBRANCH 132 134
ENDBRANCH 129 130
BRANCH 129 161
ATOM    161  CB  GLU A  52     -18.353  -9.002  12.698  0.00  0.00    +0.000 C 
BRANCH 161 162
ATOM    162  CG  GLU A  52     -19.561  -8.777  13.611  0.00  0.00    +0.000 C 
BRANCH 162 163
ATOM    163  CD  GLU A  52     -19.161  -7.867  14.773  0.00  0.00    +0.000 C 
ATOM    164  OE1 GLU A  52     -18.360  -8.296  15.588  0.00  0.00    +0.000 OA
ATOM    165  OE2 GLU A  52     -19.662  -6.756  14.829  0.00  0.00    +0.000 OA
ENDBRANCH 162 163
ENDBRANCH 161 162
ENDBRANCH 129 161
ENDBRANCH 127 129
ENDBRANCH 124 125
BRANCH 124 166
ATOM    166  CB  ASP A  51     -14.849 -13.368  13.841  0.00  0.00    +0.000 C 
BRANCH 166 167
ATOM    167  CG  ASP A  51     -13.742 -14.346  13.443  0.00  0.00    +0.000 C 
ATOM    168  OD1 ASP A  51     -13.828 -14.896  12.357  0.00  0.00    +0.000 OA
ATOM    169  OD2 ASP A  51     -12.827 -14.527  14.229  0.00  0.00    +0.000 OA
ENDBRANCH 166 167
ENDBRANCH 124 166
ENDBRANCH 122 124
ENDBRANCH 119 120
BRANCH 119 170
ATOM    170  CB  GLN A  50     -12.186  -9.624  14.088  0.00  0.00    +0.000 C 
BRANCH 170 171
ATOM    171  CG  GLN A  50     -11.145  -8.528  14.328  0.00  0.00    +0.000 C 
BRANCH 171 172
ATOM    172  CD  GLN A  50     -11.718  -7.477  15.290  0.00  0.00    +0.000 C 
ATOM    173  OE1 GLN A  50     -11.358  -7.447  16.451  0.00  0.00    +0.000 OA
ATOM    174  NE2 GLN A  50     -12.601  -6.607  14.861  0.00  0.00    +0.000 N 
ATOM    175 HE21 GLN A  50     -12.900  -6.620  13.928  0.00  0.00    +0.000 HD
ATOM    176 HE22 GLN A  50     -12.966  -5.940  15.477  0.00  0.00    +0.000 HD
ENDBRANCH 171 172
ENDBRANCH 170 171
ENDBRANCH 119 170
ENDBRANCH 117 119
ENDBRANCH 114 115
ENDBRANCH 112 114
ENDBRANCH 109 110
BRANCH 109 177
ATOM    177  CB  VAL A  48      -9.056  -5.914   8.004  0.00  0.00    +0.000 C 
ATOM    178  CG1 VAL A  48      -9.797  -5.616   6.697  0.00  0.00    +0.000 C 
ATOM    179  CG2 VAL A  48      -7.967  -4.858   8.219  0.00  0.00    +0.000 C 
ENDBRANCH 109 177
ENDBRANCH 107 109
ENDBRANCH 104 105
BRANCH 104 180
ATOM    180  CB  ILE A  47      -8.729  -4.838  13.851  0.00  0.00    +0.000 C 
ATOM    181  CG2 ILE A  47     -10.227  -4.892  14.199  0.00  0.00    +0.000 C 
BRANCH 180 182
ATOM    182  CG1 ILE A  47      -7.893  -5.271  15.069  0.00  0.00    +0.000 C 
ATOM    183  CD1 ILE A  47      -8.245  -6.708  15.477  0.00  0.00    +0.000 C 
ENDBRANCH 180 182
ENDBRANCH 104 180
ENDBRANCH 102 104
ENDBRANCH  99 100
BRANCH  99 184
ATOM    184  CB  GLN A  46      -4.663  -2.800  11.284  0.00  0.00    +0.000 C 
BRANCH 184 185
ATOM    185  CG  GLN A  46      -3.163  -2.676  10.951  0.00  0.00    +0.000 C 
BRANCH 185 186
ATOM    186  CD  GLN A  46      -2.974  -2.252   9.482  0.00  0.00    +0.000 C 
ATOM    187  OE1 GLN A  46      -3.912  -1.842   8.829  0.00  0.00    +0.000 OA
ATOM    188  NE2 GLN A  46      -1.788  -2.327   8.927  0.00  0.00    +0.000 N 
ATOM    189 HE21 GLN A  46      -1.016  -2.650   9.440  0.00  0.00    +0.000 HD
ATOM    190 HE22 GLN A  46      -1.673  -2.065   7.991  0.00  0.00    +0.000 HD
ENDBRANCH 185 186
ENDBRANCH 184 185
ENDBRANCH  99 184
ENDBRANCH  97  99
ENDBRANCH  94  95
BRANCH  94 191
ATOM    191  CB  VAL A  45      -2.814  -8.311   9.775  0.00  0.00    +0.000 C 
ATOM    192  CG1 VAL A  45      -3.704  -9.162  10.684  0.00  0.00    +0.000 C 
ATOM    193  CG2 VAL A  45      -2.505  -9.092   8.492  0.00  0.00    +0.000 C 
ENDBRANCH  94 191
ENDBRANCH  92  94
ENDBRANCH  89  90
ENDBRANCH  87  89
ENDBRANCH  84  85
ENDBRANCH  82  84
ENDBRANCH  79  80
BRANCH  79 194
ATOM    194  CB  TYR A  42      -0.711  -7.303   2.226  0.00  0.00    +0.000 C 
BRANCH 194 195
ATOM    195  CG  TYR A  42      -1.483  -6.462   3.220  0.00  0.00    +0.000 A 
ATOM    196  CD1 TYR A  42      -1.197  -5.075   3.347  0.00  0.00    +0.000 A 
ATOM    197  CD2 TYR A  42      -2.487  -7.057   4.032  0.00  0.00    +0.000 A 
ATOM    198  CE1 TYR A  42      -1.915  -4.284   4.283  0.00  0.00    +0.000 A 
ATOM    199  CE2 TYR A  42      -3.206  -6.264   4.969  0.00  0.00    +0.000 A 
ATOM    200  CZ  TYR A  42      -2.919  -4.878   5.093  0.00  0.00    +0.000 A 
BRANCH 200 201
ATOM    201  OH  TYR A  42      -3.614  -4.108   6.004  0.00  0.00    +0.000 OA
ATOM    202  HH  TYR A  42      -4.513  -4.009   5.684  0.00  0.00    +0.000 HD
ENDBRANCH 200 201
ENDBRANCH 194 195
ENDBRANCH  79 194
ENDBRANCH  77  79
ENDBRANCH  74  75
BRANCH  74 203
ATOM    203  CB  ASP A  41       4.707  -7.847  -0.195  0.00  0.00    +0.000 C 
BRANCH 203 204
ATOM    204  CG  ASP A  41       5.585  -8.673  -1.136  0.00  0.00    +0.000 C 
ATOM    205  OD1 ASP A  41       6.181  -9.630  -0.669  0.00  0.00    +0.000 OA
ATOM    206  OD2 ASP A  41       5.646  -8.338  -2.307  0.00  0.00    +0.000 OA
ENDBRANCH 203 204
ENDBRANCH  74 203
ENDBRANCH  72  74
ENDBRANCH  69  70
BRANCH  69 207
ATOM    207  CB  SER A  40       2.410 -11.618  -2.937  0.00  0.00    +0.000 C 
BRANCH 207 208
ATOM    208  OG  SER A  40       2.882 -12.871  -2.459  0.00  0.00    +0.000 OA
ATOM    209  HG  SER A  40       3.586 -13.165  -3.041  0.00  0.00    +0.000 HD
ENDBRANCH 207 208
ENDBRANCH  69 207
ENDBRANCH  67  69
ENDBRANCH  64  65
BRANCH  64 210
ATOM    210  CB  ASP A  39      -0.109  -6.812  -2.558  0.00  0.00    +0.000 C 
BRANCH 210 211
ATOM    211  CG  ASP A  39      -0.624  -5.818  -3.601  0.00  0.00    +0.000 C 
ATOM    212  OD1 ASP A  39      -0.883  -6.241  -4.716  0.00  0.00    +0.000 OA
ATOM    213  OD2 ASP A  39      -0.745  -4.651  -3.269  0.00  0.00    +0.000 OA
ENDBRANCH 210 211
ENDBRANCH  64 210
ENDBRANCH  62  64
ENDBRANCH  59  60
ENDBRANCH  57  59
ENDBRANCH  51  55
ENDBRANCH  47  48
BRANCH  47 214
ATOM    214  CB  HIS A  36      -2.037  -2.116  -0.578  0.00  0.00    +0.000 C 
BRANCH 214 215
ATOM    215  CG  HIS A  36      -1.402  -0.746  -0.540  0.00  0.00    +0.000 A 
ATOM    216  ND1 HIS A  36      -0.208  -0.460  -1.188  0.00  0.00    +0.000 N 
ATOM    217  CD2 HIS A  36      -1.790   0.427   0.059  0.00  0.00    +0.000 A 
ATOM    218  CE1 HIS A  36       0.076   0.839  -0.962  0.00  0.00    +0.000 A 
ATOM    219  NE2 HIS A  36      -0.858   1.426  -0.205  0.00  0.00    +0.000 NA
ATOM    220  HD1 HIS A  36       0.329  -1.087  -1.715  0.00  0.00    +0.000 HD
ENDBRANCH 214 215
ENDBRANCH  47 214
ENDBRANCH  45  47
ENDBRANCH  42  43
BRANCH  42 221
ATOM    221  CB  SER A  35       2.677  -3.751   1.620  0.00  0.00    +0.000 C 
BRANCH 221 222
ATOM    222  OG  SER A  35       3.137  -4.694   0.660  0.00  0.00    +0.000 OA
ATOM    223  HG  SER A  35       3.634  -5.371   1.124  0.00  0.00    +0.000 HD
ENDBRANCH 221 222
ENDBRANCH  42 221
ENDBRANCH  40  42
ENDBRANCH  37  38
BRANCH  37 224
ATOM    224  CB  PHE A  34       2.928   2.021   1.697  0.00  0.00    +0.000 C 
BRANCH 224 225
ATOM    225  CG  PHE A  34       3.646   3.186   2.336  0.00  0.00    +0.000 A 
ATOM    226  CD1 PHE A  34       4.365   4.108   1.528  0.00  0.00    +0.000 A 
ATOM    227  CD2 PHE A  34       3.598   3.363   3.745  0.00  0.00    +0.000 A 
ATOM    228  CE1 PHE A  34       5.037   5.206   2.129  0.00  0.00    +0.000 A 
ATOM    229  CE2 PHE A  34       4.268   4.462   4.346  0.00  0.00    +0.000 A 
ATOM    230  CZ  PHE A  34       4.988   5.383   3.538  0.00  0.00    +0.000 A 
ENDBRANCH 224 225
ENDBRANCH  37 224
ENDBRANCH  35  37
ENDBRANCH  32  33
BRANCH  32 231
ATOM    231  CB  HIS A  33       7.100   3.778  -0.077  0.00  0.00    +0.000 C 
BRANCH 231 232
ATOM    232  CG  HIS A  33       8.310   4.389  -0.727  0.00  0.00    +0.000 C 
ATOM    233  ND1 HIS A  33       8.798   5.631  -0.358  0.00  0.00    +0.000 N 
ATOM    234  CD2 HIS A  33       9.143   3.939  -1.724  0.00  0.00    +0.000 C 
ATOM    235  CE1 HIS A  33       9.878   5.885  -1.120  0.00  0.00    +0.000 C 
ATOM    236  NE2 HIS A  33      10.132   4.886  -1.969  0.00  0.00    +0.000 N 
ATOM    237  HD1 HIS A  33       8.424   6.218   0.331  0.00  0.00    +0.000 HD
ATOM    238  HE2 HIS A  33      10.859   4.832  -2.624  0.00  0.00    +0.000 HD
ENDBRANCH 231 232
ENDBRANCH  32 231
ENDBRANCH  30  32
ENDBRANCH  27  28
BRANCH  27 239
ATOM    239  CB  GLN A  32       7.830   1.130  -4.592  0.00  0.00    +0.000 C 
BRANCH 239 240
ATOM    240  CG  GLN A  32       7.647   0.556  -6.001  0.00  0.00    +0.000 C 
BRANCH 240 241
ATOM    241  CD  GLN A  32       6.903   1.573  -6.869  0.00  0.00    +0.000 C 
ATOM    242  OE1 GLN A  32       7.520   2.424  -7.476  0.00  0.00    +0.000 OA
ATOM    243  NE2 GLN A  32       5.599   1.517  -6.969  0.00  0.00    +0.000 N 
ATOM    244 HE21 GLN A  32       5.092   0.819  -6.502  0.00  0.00    +0.000 HD
ATOM    245 HE22 GLN A  32       5.124   2.199  -7.490  0.00  0.00    +0.000 HD
ENDBRANCH 240 241
ENDBRANCH 239 240
ENDBRANCH  27 239
ENDBRANCH  25  27
ENDBRANCH  22  23
BRANCH  22 246
ATOM    246  CB  PHE A  31       2.510   0.862  -5.280  0.00  0.00    +0.000 C 
BRANCH 246 247
ATOM    247  CG  PHE A  31       1.030   1.133  -5.419  0.00  0.00    +0.000 A 
ATOM    248  CD1 PHE A  31       0.098   0.432  -4.605  0.00  0.00    +0.000 A 
ATOM    249  CD2 PHE A  31       0.569   2.086  -6.366  0.00  0.00    +0.000 A 
ATOM    250  CE1 PHE A  31      -1.294   0.686  -4.739  0.00  0.00    +0.000 A 
ATOM    251  CE2 PHE A  31      -0.823   2.339  -6.499  0.00  0.00    +0.000 A 
ATOM    252  CZ  PHE A  31      -1.754   1.640  -5.686  0.00  0.00    +0.000 A 
ENDBRANCH 246 247
ENDBRANCH  22 246
ENDBRANCH  20  22
ENDBRANCH  17  18
BRANCH  17 253
ATOM    253  CB  HIS A  30       2.613   5.824  -3.029  0.00  0.00    +0.000 C 
BRANCH 253 254
ATOM    254  CG  HIS A  30       1.811   5.436  -1.820  0.00  0.00    +0.000 A 
ATOM    255  ND1 HIS A  30       1.883   6.135  -0.627  0.00  0.00    +0.000 N 
ATOM    256  CD2 HIS A  30       0.895   4.440  -1.622  0.00  0.00    +0.000 A 
ATOM    257  CE1 HIS A  30       1.025   5.556   0.230  0.00  0.00    +0.000 A 
ATOM    258  NE2 HIS A  30       0.397   4.518  -0.328  0.00  0.00    +0.000 NA
ATOM    259  HD1 HIS A  30       2.455   6.909  -0.441  0.00  0.00    +0.000 HD
ENDBRANCH 253 254
ENDBRANCH  17 253
ENDBRANCH  15  17
ENDBRANCH  12  13
BRANCH  12 260
ATOM    260  CB  VAL A  29       7.198   6.344  -6.152  0.00  0.00    +0.000 C 
ATOM    261  CG1 VAL A  29       8.353   5.967  -5.215  0.00  0.00    +0.000 C 
ATOM    262  CG2 VAL A  29       7.757   6.667  -7.540  0.00  0.00    +0.000 C 
ENDBRANCH  12 260
ENDBRANCH  10  12
ENDBRANCH   4   8
BRANCH   1 263
ATOM    263  CA  ASN A  27       1.072   7.187  -6.683  0.00  0.00    +0.000 C 
BRANCH 263 266
ATOM    264  C   LYS A  26      -1.269   6.931  -6.075  0.00  0.00    +0.000 C 
ATOM    265  O   LYS A  26      -1.569   7.657  -7.004  0.00  0.00    +0.000 OA
ATOM    266  N   ASN A  27      -0.012   6.635  -5.822  0.00  0.00    +0.000 N 
ATOM    267  H   ASN A  27       0.227   6.055  -5.065  0.00  0.00    +0.000 HD
BRANCH 264 268
ATOM    268  CA  LYS A  26      -2.353   6.337  -5.158  0.00  0.00    +0.000 C 
BRANCH 268 271
ATOM    269  C   ARG A  25      -3.681   7.085  -3.256  0.00  0.00    +0.000 C 
ATOM    270  O   ARG A  25      -3.778   5.928  -2.892  0.00  0.00    +0.000 OA
ATOM    271  N   LYS A  26      -3.012   7.407  -4.345  0.00  0.00    +0.000 N 
ATOM    272  H   LYS A  26      -2.949   8.347  -4.630  0.00  0.00    +0.000 HD
BRANCH 269 273
ATOM    273  CA  ARG A  25      -4.348   8.220  -2.461  0.00  0.00    +0.000 C 
BRANCH 273 276
ATOM    274  C   TYR A  24      -6.545   7.271  -1.996  0.00  0.00    +0.000 C 
ATOM    275  O   TYR A  24      -6.794   7.344  -3.185  0.00  0.00    +0.000 OA
ATOM    276  N   ARG A  25      -5.381   7.667  -1.517  0.00  0.00    +0.000 N 
ATOM    277  H   ARG A  25      -5.195   7.604  -0.552  0.00  0.00    +0.000 HD
BRANCH 274 278
ATOM    278  CA  TYR A  24      -7.597   6.724  -1.011  0.00  0.00    +0.000 C 
BRANCH 278 281
ATOM    279  C   CYS A  23      -6.268   4.841  -0.177  0.00  0.00    +0.000 C 
ATOM    280  O   CYS A  23      -6.161   4.442  -1.321  0.00  0.00    +0.000 OA
ATOM    281  N   TYR A  24      -6.946   5.939   0.099  0.00  0.00    +0.000 N 
ATOM    282  H   TYR A  24      -7.052   6.223   1.031  0.00  0.00    +0.000 HD
BRANCH 279 283
ATOM    283  CA  CYS A  23      -5.639   4.050   0.992  0.00  0.00    +0.000 C 
BRANCH 283 286
ATOM    284  C   ASN A  22      -7.831   3.407   1.916  0.00  0.00    +0.000 C 
ATOM    285  O   ASN A  22      -8.183   4.564   1.828  0.00  0.00    +0.000 OA
ATOM    286  N   CYS A  23      -6.615   3.031   1.544  0.00  0.00    +0.000 N 
ATOM    287  H   CYS A  23      -6.337   2.091   1.647  0.00  0.00    +0.000 HD
BRANCH 284 288
ATOM    288  CA  ASN A  22      -8.798   2.355   2.495  0.00  0.00    +0.000 C 
BRANCH 288 291
ATOM    289  C   ALA A  21      -8.383  -0.006   2.971  0.00  0.00    +0.000 C 
ATOM    290  O   ALA A  21      -9.298  -0.295   2.224  0.00  0.00    +0.000 OA
ATOM    291  N   ASN A  22      -8.046   1.254   3.179  0.00  0.00    +0.000 N 
ATOM    292  H   ASN A  22      -7.301   1.477   3.778  0.00  0.00    +0.000 HD
BRANCH 289 293
ATOM    293  CA  ALA A  21      -7.586  -1.115   3.691  0.00  0.00    +0.000 C 
ATOM    294  CB  ALA A  21      -8.221  -1.417   5.056  0.00  0.00    +0.000 C 
BRANCH 293 297
ATOM    295  C   GLY A  20      -5.409  -0.314   2.943  0.00  0.00    +0.000 C 
ATOM    296  O   GLY A  20      -5.832  -0.341   1.802  0.00  0.00    +0.000 OA
ATOM    297  N   ALA A  21      -6.169  -0.667   3.956  0.00  0.00    +0.000 N 
ATOM    298  H   ALA A  21      -5.815  -0.628   4.877  0.00  0.00    +0.000 HD
BRANCH 295 299
ATOM    299  CA  GLY A  20      -3.967   0.149   3.223  0.00  0.00    +0.000 C 
BRANCH 299 302
ATOM    300  C   TYR A  19      -4.790   2.071   4.539  0.00  0.00    +0.000 C 
ATOM    301  O   TYR A  19      -5.735   2.175   3.790  0.00  0.00    +0.000 OA
ATOM    302  N   GLY A  20      -3.872   1.132   4.360  0.00  0.00    +0.000 N 
ATOM    303  H   GLY A  20      -3.080   1.074   4.945  0.00  0.00    +0.000 HD
BRANCH 300 304
ATOM    304  CA  TYR A  19      -4.612   3.066   5.690  0.00  0.00    +0.000 C 
BRANCH 304 307
ATOM    305  C   MET A  18      -2.633   3.534   7.025  0.00  0.00    +0.000 C 
ATOM    306  O   MET A  18      -3.300   3.394   8.033  0.00  0.00    +0.000 OA
ATOM    307  N   TYR A  19      -3.169   3.399   5.826  0.00  0.00    +0.000 N 
ATOM    308  H   TYR A  19      -2.607   3.481   5.024  0.00  0.00    +0.000 HD
BRANCH 305 309
ATOM    309  CA  MET A  18      -1.125   3.841   7.116  0.00  0.00    +0.000 C 
BRANCH 309 312
ATOM    310  C   CYS A  17      -0.568   1.956   5.613  0.00  0.00    +0.000 C 
ATOM    311  O   CYS A  17      -1.351   1.256   6.221  0.00  0.00    +0.000 OA
ATOM    312  N   MET A  18      -0.371   3.224   5.951  0.00  0.00    +0.000 N 
ATOM    313  H   MET A  18       0.271   3.763   5.431  0.00  0.00    +0.000 HD
BRANCH 310 314
ATOM    314  CA  CYS A  17       0.216   1.406   4.405  0.00  0.00    +0.000 C 
BRANCH 314 317
ATOM    315  C   SER A  16       1.285  -0.611   5.247  0.00  0.00    +0.000 C 
ATOM    316  O   SER A  16       2.021   0.103   5.905  0.00  0.00    +0.000 OA
ATOM    317  N   CYS A  17       0.363  -0.095   4.474  0.00  0.00    +0.000 N 
ATOM    318  H   CYS A  17      -0.238  -0.660   3.926  0.00  0.00    +0.000 HD
BRANCH 315 319
ATOM    319  CA  SER A  16       1.452  -2.136   5.294  0.00  0.00    +0.000 C 
BRANCH 319 322
ATOM    320  C   THR A  15       3.851  -1.919   4.877  0.00  0.00    +0.000 C 
ATOM    321  O   THR A  15       3.582  -1.182   3.951  0.00  0.00    +0.000 OA
ATOM    322  N   SER A  16       2.898  -2.452   5.617  0.00  0.00    +0.000 N 
ATOM    323  H   SER A  16       3.137  -3.033   6.370  0.00  0.00    +0.000 HD
BRANCH 320 324
ATOM    324  CA  THR A  15       5.317  -2.221   5.196  0.00  0.00    +0.000 C 
BRANCH 324 327
ATOM    325  C   ARG A  14       5.941  -3.603   3.293  0.00  0.00    +0.000 C 
ATOM    326  O   ARG A  14       5.268  -4.507   3.750  0.00  0.00    +0.000 OA
ATOM    327  N   THR A  15       6.043  -2.445   3.906  0.00  0.00    +0.000 N 
ATOM    328  H   THR A  15       6.583  -1.722   3.506  0.00  0.00    +0.000 HD
BRANCH 325 329
ATOM    329  CA  ARG A  14       6.690  -3.772   1.969  0.00  0.00    +0.000 C 
BRANCH 329 332
ATOM    330  C   LYS A  13       7.764  -5.885   2.564  0.00  0.00    +0.000 C 
ATOM    331  O   LYS A  13       8.241  -5.359   3.552  0.00  0.00    +0.000 OA
ATOM    332  N   ARG A  14       6.998  -5.219   1.724  0.00  0.00    +0.000 N 
ATOM    333  H   ARG A  14       6.643  -5.700   0.948  0.00  0.00    +0.000 HD
BRANCH 330 334
ATOM    334  CA  LYS A  13       8.036  -7.363   2.232  0.00  0.00    +0.000 C 
BRANCH 334 337
ATOM    335  C   VAL A  12       9.224  -7.192   0.110  0.00  0.00    +0.000 C 
ATOM    336  O   VAL A  12       8.178  -6.855  -0.415  0.00  0.00    +0.000 OA
ATOM    337  N   LYS A  13       9.283  -7.467   1.395  0.00  0.00    +0.000 N 
ATOM    338  H   LYS A  13      10.139  -7.734   1.801  0.00  0.00    +0.000 HD
BRANCH 335 339
ATOM    339  CA  VAL A  12      10.515  -7.304  -0.722  0.00  0.00    +0.000 C 
BRANCH 339 342
ATOM    340  C   LYS A  11      10.941  -8.089  -2.990  0.00  0.00    +0.000 C 
ATOM    341  O   LYS A  11      11.948  -8.647  -2.597  0.00  0.00    +0.000 OA
ATOM    342  N   VAL A  12      10.170  -7.410  -2.171  0.00  0.00    +0.000 N 
ATOM    343  H   VAL A  12       9.358  -6.970  -2.509  0.00  0.00    +0.000 HD
BRANCH 340 344
ATOM    344  CA  LYS A  11      10.521  -8.161  -4.466  0.00  0.00    +0.000 C 
BRANCH 344 347
ATOM    345  C   ASN A  10       9.208  -6.781  -5.991  0.00  0.00    +0.000 C 
ATOM    346  O   ASN A  10       8.892  -7.788  -6.597  0.00  0.00    +0.000 OA
ATOM    347  N   LYS A  11       9.998  -6.839  -4.936  0.00  0.00    +0.000 N 
ATOM    348  H   LYS A  11      10.246  -6.017  -4.454  0.00  0.00    +0.000 HD
BRANCH 345 349
ATOM    349  CA  ASN A  10       8.692  -5.402  -6.440  0.00  0.00    +0.000 C 
BRANCH 349 352
ATOM    350  C   GLY A   9       9.404  -3.098  -6.075  0.00  0.00    +0.000 C 
ATOM    351  O   GLY A   9       8.235  -2.761  -6.052  0.00  0.00    +0.000 OA
ATOM    352  N   ASN A  10       9.748  -4.357  -6.257  0.00  0.00    +0.000 N 
ATOM    353  H   ASN A  10      10.697  -4.616  -6.273  0.00  0.00    +0.000 HD
BRANCH 350 354
ATOM    354  CA  GLY A   9      10.522  -2.061  -5.891  0.00  0.00    +0.000 C 
BRANCH 354 357
ATOM    355  C   GLU A   8      10.286  -1.734  -3.487  0.00  0.00    +0.000 C 
ATOM    356  O   GLU A   8       9.161  -1.309  -3.673  0.00  0.00    +0.000 OA
ATOM    357  N   GLY A   9      11.041  -2.129  -4.493  0.00  0.00    +0.000 N 
ATOM    358  H   GLY A   9      11.949  -2.469  -4.331  0.00  0.00    +0.000 HD
BRANCH 355 359
ATOM    359  CA  GLU A   8      10.867  -1.822  -2.067  0.00  0.00    +0.000 C 
BRANCH 359 362
ATOM    360  C   SER A   7      12.345  -0.052  -1.274  0.00  0.00    +0.000 C 
ATOM    361  O   SER A   7      13.297  -0.784  -1.470  0.00  0.00    +0.000 OA
ATOM    362  N   GLU A   8      11.114  -0.450  -1.528  0.00  0.00    +0.000 N 
ATOM    363  H   GLU A   8      10.353   0.152  -1.368  0.00  0.00    +0.000 HD
BRANCH 360 364
ATOM    364  CA  SER A   7      12.548   1.368  -0.724  0.00  0.00    +0.000 C 
BRANCH 364 367
ATOM    365  C   GLY A   6      12.511   2.223   1.559  0.00  0.00    +0.000 C 
ATOM    366  O   GLY A   6      11.770   3.116   1.194  0.00  0.00    +0.000 OA
ATOM    367  N   SER A   7      12.954   1.314   0.713  0.00  0.00    +0.000 N 
ATOM    368  H   SER A   7      13.552   0.596   1.020  0.00  0.00    +0.000 HD
BRANCH 365 369
ATOM    369  CA  GLY A   6      12.955   2.125   3.025  0.00  0.00    +0.000 C 
BRANCH 369 372
ATOM    370  C   SER A   5      15.207   2.798   3.671  0.00  0.00    +0.000 C 
ATOM    371  O   SER A   5      15.504   1.623   3.791  0.00  0.00    +0.000 OA
ATOM    372  N   GLY A   6      13.994   3.161   3.303  0.00  0.00    +0.000 N 
ATOM    373  H   GLY A   6      13.765   4.112   3.210  0.00  0.00    +0.000 HD
BRANCH 370 374
ATOM    374  CA  SER A   5      16.241   3.903   3.946  0.00  0.00    +0.000 C 
BRANCH 374 377
ATOM    375  C   GLY A   4      15.985   6.123   4.921  0.00  0.00    +0.000 C 
ATOM    376  O   GLY A   4      16.625   6.585   3.995  0.00  0.00    +0.000 OA
ATOM    377  N   SER A   5      15.736   4.831   5.002  0.00  0.00    +0.000 N 
ATOM    378  H   SER A   5      15.218   4.470   5.756  0.00  0.00    +0.000 HD
BRANCH 375 379
ATOM    379  CA  GLY A   4      15.445   7.036   6.031  0.00  0.00    +0.000 C 
BRANCH 379 382
ATOM    380  C   LEU A   3      16.811   7.301   8.033  0.00  0.00    +0.000 C 
ATOM    381  O   LEU A   3      17.206   8.368   7.600  0.00  0.00    +0.000 OA
ATOM    382  N   GLY A   4      15.952   6.566   7.355  0.00  0.00    +0.000 N 
ATOM    383  H   GLY A   4      15.640   5.706   7.714  0.00  0.00    +0.000 HD
BRANCH 380 384
ATOM    384  CA  LEU A   3      17.304   6.775   9.391  0.00  0.00    +0.000 C 
BRANCH 384 387
ATOM    385  C   PRO A   2      19.184   7.463  10.783  0.00  0.00    +0.000 C 
ATOM    386  O   PRO A   2      19.509   6.295  10.890  0.00  0.00    +0.000 OA
ATOM    387  N   LEU A   3      18.128   7.816  10.078  0.00  0.00    +0.000 N 
ATOM    388  H   LEU A   3      17.876   8.763   9.999  0.00  0.00    +0.000 HD
BRANCH 385 392
ATOM    389  C   GLY A   1      19.845   7.847  13.787  0.00  0.00    +0.000 C 
ATOM    390  O   GLY A   1      18.645   8.041  13.803  0.00  0.00    +0.000 OA
ATOM    391  N   PRO A   2      20.600   8.064  12.730  0.00  0.00    +0.000 N 
ATOM    392  CA  PRO A   2      20.000   8.570  11.471  0.00  0.00    +0.000 C 
ATOM    393  CB  PRO A   2      21.209   8.959  10.624  0.00  0.00    +0.000 C 
ATOM    394  CG  PRO A   2      22.333   8.123  11.144  0.00  0.00    +0.000 C 
ATOM    395  CD  PRO A   2      22.055   7.865  12.602  0.00  0.00    +0.000 C 
BRANCH 389 396
ATOM    396  CA  GLY A   1      20.558   7.324  15.042  0.00  0.00    +0.000 C 
BRANCH 396 397
ATOM    397  N   GLY A   1      21.219   8.458  15.749  0.00  0.00    +0.000 N 
ATOM    398  H   GLY A   1      20.638   9.315  15.650  0.00  0.00    +0.000 HD
ATOM    399  H2  GLY A   1      22.158   8.625  15.333  0.00  0.00    +0.000 HD
ATOM    400  H3  GLY A   1      21.322   8.226  16.757  0.00  0.00    +0.000 HD
ENDBRANCH 396 397
ENDBRANCH 389 396
ENDBRANCH 385 392
ENDBRANCH 384 387
BRANCH 384 401
ATOM    401  CB  LEU A   3      16.122   6.518  10.333  0.00  0.00    +0.000 C 
BRANCH 401 402
ATOM    402  CG  LEU A   3      15.894   5.012  10.478  0.00  0.00    +0.000 C 
ATOM    403  CD1 LEU A   3      16.936   4.427  11.433  0.00  0.00    +0.000 C 
ATOM    404  CD2 LEU A   3      14.493   4.761  11.039  0.00  0.00    +0.000 C 
ENDBRANCH 401 402
ENDBRANCH 384 401
ENDBRANCH 380 384
ENDBRANCH 379 382
ENDBRANCH 375 379
ENDBRANCH 374 377
BRANCH 374 405
ATOM    405  CB  SER A   5      17.526   3.310   4.524  0.00  0.00    +0.000 C 
BRANCH 405 406
ATOM    406  OG  SER A   5      17.251   2.751   5.801  0.00  0.00    +0.000 OA
ATOM    407  HG  SER A   5      18.072   2.397   6.153  0.00  0.00    +0.000 HD
ENDBRANCH 405 406
ENDBRANCH 374 405
ENDBRANCH 370 374
ENDBRANCH 369 372
ENDBRANCH 365 369
ENDBRANCH 364 367
BRANCH 364 408
ATOM    408  CB  SER A   7      13.709   2.058  -1.438  0.00  0.00    +0.000 C 
BRANCH 408 409
ATOM    409  OG  SER A   7      13.217   2.737  -2.586  0.00  0.00    +0.000 OA
ATOM    410  HG  SER A   7      13.859   3.407  -2.832  0.00  0.00    +0.000 HD
ENDBRANCH 408 409
ENDBRANCH 364 408
ENDBRANCH 360 364
ENDBRANCH 359 362
BRANCH 359 411
ATOM    411  CB  GLU A   8       9.853  -2.452  -1.110  0.00  0.00    +0.000 C 
BRANCH 411 412
ATOM    412  CG  GLU A   8      10.542  -2.796   0.212  0.00  0.00    +0.000 C 
BRANCH 412 413
ATOM    413  CD  GLU A   8      10.376  -1.634   1.194  0.00  0.00    +0.000 C 
ATOM    414  OE1 GLU A   8      11.158  -0.701   1.115  0.00  0.00    +0.000 OA
ATOM    415  OE2 GLU A   8       9.468  -1.697   2.007  0.00  0.00    +0.000 OA
ENDBRANCH 412 413
ENDBRANCH 411 412
ENDBRANCH 359 411
ENDBRANCH 355 359
ENDBRANCH 354 357
ENDBRANCH 350 354
ENDBRANCH 349 352
BRANCH 349 416
ATOM    416  CB  ASN A  10       8.396  -5.404  -7.940  0.00  0.00    +0.000 C 
BRANCH 416 417
ATOM    417  CG  ASN A  10       7.237  -4.443  -8.236  0.00  0.00    +0.000 C 
ATOM    418  OD1 ASN A  10       6.088  -4.837  -8.200  0.00  0.00    +0.000 OA
ATOM    419  ND2 ASN A  10       7.484  -3.190  -8.530  0.00  0.00    +0.000 N 
ATOM    420 HD21 ASN A  10       8.408  -2.859  -8.562  0.00  0.00    +0.000 HD
ATOM    421 HD22 ASN A  10       6.742  -2.578  -8.719  0.00  0.00    +0.000 HD
ENDBRANCH 416 417
ENDBRANCH 349 416
ENDBRANCH 345 349
ENDBRANCH 344 347
BRANCH 344 422
ATOM    422  CB  LYS A  11      11.727  -8.448  -5.357  0.00  0.00    +0.000 C 
BRANCH 422 423
ATOM    423  CG  LYS A  11      11.782  -9.941  -5.678  0.00  0.00    +0.000 C 
BRANCH 423 424
ATOM    424  CD  LYS A  11      12.933 -10.212  -6.649  0.00  0.00    +0.000 C 
BRANCH 424 425
ATOM    425  CE  LYS A  11      14.182 -10.614  -5.861  0.00  0.00    +0.000 C 
BRANCH 425 426
ATOM    426  NZ  LYS A  11      15.326 -10.147  -6.692  0.00  0.00    +0.000 N 
ATOM    427  HZ1 LYS A  11      15.227 -10.519  -7.658  0.00  0.00    +0.000 HD
ATOM    428  HZ2 LYS A  11      16.217 -10.487  -6.277  0.00  0.00    +0.000 HD
ATOM    429  HZ3 LYS A  11      15.332  -9.108  -6.723  0.00  0.00    +0.000 HD
ENDBRANCH 425 426
ENDBRANCH 424 425
ENDBRANCH 423 424
ENDBRANCH 422 423
ENDBRANCH 344 422
ENDBRANCH 340 344
ENDBRANCH 339 342
BRANCH 339 430
ATOM    430  CB  VAL A  12      11.362  -6.029  -0.605  0.00  0.00    +0.000 C 
ATOM    431  CG1 VAL A  12      11.746  -5.792   0.858  0.00  0.00    +0.000 C 
ATOM    432  CG2 VAL A  12      12.638  -6.183  -1.439  0.00  0.00    +0.000 C 
ENDBRANCH 339 430
ENDBRANCH 335 339
ENDBRANCH 334 337
BRANCH 334 433
ATOM    433  CB  LYS A  13       8.283  -8.191   3.500  0.00  0.00    +0.000 C 
BRANCH 433 434
ATOM    434  CG  LYS A  13       8.294  -9.675   3.123  0.00  0.00    +0.000 C 
BRANCH 434 435
ATOM    435  CD  LYS A  13       7.898 -10.522   4.333  0.00  0.00    +0.000 C 
BRANCH 435 436
ATOM    436  CE  LYS A  13       7.306 -11.851   3.851  0.00  0.00    +0.000 C 
BRANCH 436 437
ATOM    437  NZ  LYS A  13       5.833 -11.630   3.835  0.00  0.00    +0.000 N 
ATOM    438  HZ1 LYS A  13       5.348 -12.531   3.649  0.00  0.00    +0.000 HD
ATOM    439  HZ2 LYS A  13       5.594 -10.947   3.087  0.00  0.00    +0.000 HD
ATOM    440  HZ3 LYS A  13       5.527 -11.259   4.756  0.00  0.00    +0.000 HD
ENDBRANCH 436 437
ENDBRANCH 435 436
ENDBRANCH 434 435
ENDBRANCH 433 434
ENDBRANCH 334 433
ENDBRANCH 330 334
ENDBRANCH 329 332
BRANCH 329 441
ATOM    441  CB  ARG A  14       5.817  -3.286   0.803  0.00  0.00    +0.000 C 
BRANCH 441 442
ATOM    442  CG  ARG A  14       6.714  -2.679  -0.278  0.00  0.00    +0.000 C 
BRANCH 442 443
ATOM    443  CD  ARG A  14       5.856  -2.037  -1.375  0.00  0.00    +0.000 C 
BRANCH 443 444
ATOM    444  NE  ARG A  14       4.985  -3.142  -1.891  0.00  0.00    +0.000 N 
ATOM    445  CZ  ARG A  14       5.489  -4.143  -2.598  0.00  0.00    +0.000 C 
ATOM    446  NH1 ARG A  14       6.757  -4.175  -2.938  0.00  0.00    +0.000 N 
ATOM    447  NH2 ARG A  14       4.706  -5.116  -2.988  0.00  0.00    +0.000 N 
ATOM    448  HE  ARG A  14       4.026  -3.129  -1.684  0.00  0.00    +0.000 HD
ATOM    449 HH11 ARG A  14       7.372  -3.436  -2.671  0.00  0.00    +0.000 HD
ATOM    450 HH12 ARG A  14       7.109  -4.946  -3.468  0.00  0.00    +0.000 HD
ATOM    451 HH21 ARG A  14       3.734  -5.101  -2.755  0.00  0.00    +0.000 HD
ATOM    452 HH22 ARG A  14       5.081  -5.878  -3.517  0.00  0.00    +0.000 HD
ENDBRANCH 443 444
ENDBRANCH 442 443
ENDBRANCH 441 442
ENDBRANCH 329 441
ENDBRANCH 325 329
ENDBRANCH 324 327
BRANCH 324 453
ATOM    453  CB  THR A  15       6.022  -1.018   5.875  0.00  0.00    +0.000 C 
ATOM    454  CG2 THR A  15       5.595   0.316   5.236  0.00  0.00    +0.000 C 
BRANCH 453 455
ATOM    455  OG1 THR A  15       5.697  -1.000   7.258  0.00  0.00    +0.000 OA
ATOM    456  HG1 THR A  15       6.398  -0.535   7.721  0.00  0.00    +0.000 HD
ENDBRANCH 453 455
ENDBRANCH 324 453
ENDBRANCH 320 324
ENDBRANCH 319 322
BRANCH 319 457
ATOM    457  CB  SER A  16       0.591  -2.741   6.412  0.00  0.00    +0.000 C 
BRANCH 457 458
ATOM    458  OG  SER A  16       0.550  -1.842   7.511  0.00  0.00    +0.000 OA
ATOM    459  HG  SER A  16       1.338  -1.987   8.040  0.00  0.00    +0.000 HD
ENDBRANCH 457 458
ENDBRANCH 319 457
ENDBRANCH 315 319
ENDBRANCH 314 317
BRANCH 314 460
ATOM    460  CB  CYS A  17      -0.560   1.679   3.108  0.00  0.00    +0.000 C 
BRANCH 460 461
ATOM    461  SG  CYS A  17      -0.541   3.441   2.721  0.00  0.00    +0.000 S 
ATOM    462  HG  CYS A  17      -0.571   4.614   2.851  0.00  0.00    +0.000 HD
ENDBRANCH 460 461
ENDBRANCH 314 460
ENDBRANCH 310 314
ENDBRANCH 309 312
BRANCH 309 463
ATOM    463  CB  MET A  18      -0.918   5.358   7.017  0.00  0.00    +0.000 C 
BRANCH 463 464
ATOM    464  CG  MET A  18       0.546   5.685   7.278  0.00  0.00    +0.000 C 
BRANCH 464 465
ATOM    465  SD  MET A  18       0.702   7.431   7.731  0.00  0.00    +0.000 S 
ATOM    466  CE  MET A  18       0.249   8.135   6.125  0.00  0.00    +0.000 C 
ENDBRANCH 464 465
ENDBRANCH 463 464
ENDBRANCH 309 463
ENDBRANCH 305 309
ENDBRANCH 304 307
BRANCH 304 467
ATOM    467  CB  TYR A  19      -5.346   4.366   5.345  0.00  0.00    +0.000 C 
BRANCH 467 468
ATOM    468  CG  TYR A  19      -4.925   5.526   6.224  0.00  0.00    +0.000 A 
ATOM    469  CD1 TYR A  19      -3.766   6.276   5.896  0.00  0.00    +0.000 A 
ATOM    470  CD2 TYR A  19      -5.728   5.907   7.337  0.00  0.00    +0.000 A 
ATOM    471  CE1 TYR A  19      -3.406   7.402   6.677  0.00  0.00    +0.000 A 
ATOM    472  CE2 TYR A  19      -5.360   7.034   8.123  0.00  0.00    +0.000 A 
ATOM    473  CZ  TYR A  19      -4.201   7.780   7.792  0.00  0.00    +0.000 A 
BRANCH 473 474
ATOM    474  OH  TYR A  19      -3.844   8.875   8.552  0.00  0.00    +0.000 OA
ATOM    475  HH  TYR A  19      -3.030   8.662   9.015  0.00  0.00    +0.000 HD
ENDBRANCH 473 474
ENDBRANCH 467 468
ENDBRANCH 304 467
ENDBRANCH 300 304
ENDBRANCH 299 302
ENDBRANCH 295 299
ENDBRANCH 293 297
ENDBRANCH 289 293
ENDBRANCH 288 291
BRANCH 288 476
ATOM    476  CB  ASN A  22      -9.667   3.003   3.585  0.00  0.00    +0.000 C 
BRANCH 476 477
ATOM    477  CG  ASN A  22     -10.458   1.932   4.355  0.00  0.00    +0.000 C 
ATOM    478  OD1 ASN A  22     -11.628   1.728   4.099  0.00  0.00    +0.000 OA
ATOM    479  ND2 ASN A  22      -9.864   1.232   5.294  0.00  0.00    +0.000 N 
ATOM    480 HD21 ASN A  22      -8.917   1.389   5.510  0.00  0.00    +0.000 HD
ATOM    481 HD22 ASN A  22     -10.369   0.553   5.786  0.00  0.00    +0.000 HD
ENDBRANCH 476 477
ENDBRANCH 288 476
ENDBRANCH 284 288
ENDBRANCH 283 286
BRANCH 283 482
ATOM    482  CB  CYS A  23      -4.423   3.255   0.484  0.00  0.00    +0.000 C 
BRANCH 482 483
ATOM    483  SG  CYS A  23      -3.059   4.391   0.126  0.00  0.00    +0.000 S 
ATOM    484  HG  CYS A  23      -2.021   4.929   0.247  0.00  0.00    +0.000 HD
ENDBRANCH 482 483
ENDBRANCH 283 482
ENDBRANCH 279 283
ENDBRANCH 278 281
BRANCH 278 485
ATOM    485  CB  TYR A  24      -8.386   7.881  -0.338  0.00  0.00    +0.000 C 
BRANCH 485 486
ATOM    486  CG  TYR A  24      -7.446   8.969   0.158  0.00  0.00    +0.000 A 
ATOM    487  CD1 TYR A  24      -6.975   9.954  -0.749  0.00  0.00    +0.000 A 
ATOM    488  CD2 TYR A  24      -7.029   8.999   1.517  0.00  0.00    +0.000 A 
ATOM    489  CE1 TYR A  24      -6.091  10.968  -0.302  0.00  0.00    +0.000 A 
ATOM    490  CE2 TYR A  24      -6.137  10.017   1.972  0.00  0.00    +0.000 A 
ATOM    491  CZ  TYR A  24      -5.672  11.001   1.054  0.00  0.00    +0.000 A 
BRANCH 491 492
ATOM    492  OH  TYR A  24      -4.815  11.991   1.475  0.00  0.00    +0.000 OA
ATOM    493  HH  TYR A  24      -5.344  12.708   1.831  0.00  0.00    +0.000 HD
ENDBRANCH 491 492
ENDBRANCH 485 486
ENDBRANCH 278 485
ENDBRANCH 274 278
ENDBRANCH 273 276
BRANCH 273 494
ATOM    494  CB  ARG A  25      -3.315   8.990  -1.609  0.00  0.00    +0.000 C 
BRANCH 494 495
ATOM    495  CG  ARG A  25      -2.473   8.030  -0.754  0.00  0.00    +0.000 C 
BRANCH 495 496
ATOM    496  CD  ARG A  25      -1.513   8.833   0.131  0.00  0.00    +0.000 C 
BRANCH 496 497
ATOM    497  NE  ARG A  25      -0.461   9.351  -0.801  0.00  0.00    +0.000 N 
ATOM    498  CZ  ARG A  25      -0.560  10.540  -1.381  0.00  0.00    +0.000 C 
ATOM    499  NH1 ARG A  25      -1.599  11.321  -1.191  0.00  0.00    +0.000 N 
ATOM    500  NH2 ARG A  25       0.398  10.951  -2.172  0.00  0.00    +0.000 N 
ATOM    501  HE  ARG A  25       0.328   8.793  -0.978  0.00  0.00    +0.000 HD
ATOM    502 HH11 ARG A  25      -2.347  11.037  -0.599  0.00  0.00    +0.000 HD
ATOM    503 HH12 ARG A  25      -1.639  12.210  -1.647  0.00  0.00    +0.000 HD
ATOM    504 HH21 ARG A  25       1.196  10.371  -2.334  0.00  0.00    +0.000 HD
ATOM    505 HH22 ARG A  25       0.331  11.845  -2.615  0.00  0.00    +0.000 HD
ENDBRANCH 496 497
ENDBRANCH 495 496
ENDBRANCH 494 495
ENDBRANCH 273 494
ENDBRANCH 269 273
ENDBRANCH 268 271
BRANCH 268 506
ATOM    506  CB  LYS A  26      -3.479   5.716  -5.993  0.00  0.00    +0.000 C 
BRANCH 506 507
ATOM    507  CG  LYS A  26      -4.148   6.789  -6.862  0.00  0.00    +0.000 C 
BRANCH 507 508
ATOM    508  CD  LYS A  26      -5.550   6.325  -7.255  0.00  0.00    +0.000 C 
BRANCH 508 509
ATOM    509  CE  LYS A  26      -5.447   5.319  -8.402  0.00  0.00    +0.000 C 
BRANCH 509 510
ATOM    510  NZ  LYS A  26      -6.841   5.159  -8.899  0.00  0.00    +0.000 N 
ATOM    511  HZ1 LYS A  26      -7.200   6.077  -9.228  0.00  0.00    +0.000 HD
ATOM    512  HZ2 LYS A  26      -7.444   4.805  -8.129  0.00  0.00    +0.000 HD
ATOM    513  HZ3 LYS A  26      -6.852   4.482  -9.689  0.00  0.00    +0.000 HD
ENDBRANCH 509 510
ENDBRANCH 508 509
ENDBRANCH 507 508
ENDBRANCH 506 507
ENDBRANCH 268 506
ENDBRANCH 264 268
ENDBRANCH 263 266
BRANCH 263 514
ATOM    514  CB  ASN A  27       1.983   7.957  -5.724  0.00  0.00    +0.000 C 
BRANCH 514 515
ATOM    515  CG  ASN A  27       1.708   9.462  -5.840  0.00  0.00    +0.000 C 
ATOM    516  OD1 ASN A  27       0.578   9.892  -5.715  0.00  0.00    +0.000 OA
ATOM    517  ND2 ASN A  27       2.696  10.290  -6.076  0.00  0.00    +0.000 N 
ATOM    518 HD21 ASN A  27       3.613   9.954  -6.179  0.00  0.00    +0.000 HD
ATOM    519 HD22 ASN A  27       2.520  11.252  -6.147  0.00  0.00    +0.000 HD
ENDBRANCH 514 515
ENDBRANCH 263 514
ENDBRANCH   1 263
TORSDOF 210
REMARK  Name = /Users/acegid/Desktop/Smoking_Research/Docking/Docking_All_PDB/All_PDB/2KQD_H.pdb
REMARK  374 active torsions:
REMARK  status: ('A' for Active; 'I' for Inactive)
REMARK    1  A    between atoms: N_1  and  CA_2
REMARK    2  A    between atoms: CA_2  and  C_3
REMARK    3  A    between atoms: CA_11  and  C_12
REMARK    4  A    between atoms: N_24  and  CA_25
REMARK    5  A    between atoms: CA_25  and  C_26
REMARK    6  A    between atoms: CA_25  and  CB_28
REMARK    7  A    between atoms: CB_28  and  CG_29
REMARK    8  A    between atoms: CG_29  and  CD1_30
REMARK    9  A    between atoms: CG_29  and  CD2_31
REMARK   10  A    between atoms: N_43  and  CA_44
REMARK   11  A    between atoms: CA_44  and  C_45
REMARK   12  A    between atoms: N_50  and  CA_51
REMARK   13  A    between atoms: CA_51  and  C_52
REMARK   14  A    between atoms: CA_51  and  CB_54
REMARK   15  A    between atoms: CB_54  and  OG_55
REMARK   16  A    between atoms: N_61  and  CA_62
REMARK   17  A    between atoms: CA_62  and  C_63
REMARK   18  A    between atoms: N_68  and  CA_69
REMARK   19  A    between atoms: CA_69  and  C_70
REMARK   20  A    between atoms: CA_69  and  CB_72
REMARK   21  A    between atoms: CB_72  and  OG_73
REMARK   22  A    between atoms: N_79  and  CA_80
REMARK   23  A    between atoms: CA_80  and  C_81
REMARK   24  A    between atoms: CA_80  and  CB_83
REMARK   25  A    between atoms: CB_83  and  CG_84
REMARK   26  A    between atoms: CG_84  and  CD_85
REMARK   27  A    between atoms: N_94  and  CA_95
REMARK   28  A    between atoms: CA_95  and  C_96
REMARK   29  A    between atoms: N_101  and  CA_102
REMARK   30  A    between atoms: CA_102  and  C_103
REMARK   31  A    between atoms: CA_102  and  CB_105
REMARK   32  A    between atoms: CB_105  and  CG_106
REMARK   33  A    between atoms: N_115  and  CA_116
REMARK   34  A    between atoms: CA_116  and  C_117
REMARK   35  A    between atoms: CA_116  and  CB_119
REMARK   36  A    between atoms: CB_119  and  CG_120
REMARK   37  A    between atoms: CG_120  and  CD_121
REMARK   38  A    between atoms: CD_121  and  CE_122
REMARK   39  A    between atoms: CE_122  and  NZ_123
REMARK   40  A    between atoms: N_137  and  CA_138
REMARK   41  A    between atoms: CA_138  and  C_139
REMARK   42  A    between atoms: CA_138  and  CB_141
REMARK   43  A    between atoms: CB_141  and  CG1_142
REMARK   44  A    between atoms: CB_141  and  CG2_143
REMARK   45  A    between atoms: N_153  and  CA_154
REMARK   46  A    between atoms: CA_154  and  C_155
REMARK   47  A    between atoms: CA_154  and  CB_157
REMARK   48  A    between atoms: CB_157  and  CG_158
REMARK   49  A    between atoms: CG_158  and  CD_159
REMARK   50  A    between atoms: CD_159  and  CE_160
REMARK   51  A    between atoms: CE_160  and  NZ_161
REMARK   52  A    between atoms: N_175  and  CA_176
REMARK   53  A    between atoms: CA_176  and  C_177
REMARK   54  A    between atoms: CA_176  and  CB_179
REMARK   55  A    between atoms: CB_179  and  CG_180
REMARK   56  A    between atoms: CG_180  and  CD_181
REMARK   57  A    between atoms: CD_181  and  NE_182
REMARK   58  A    between atoms: N_199  and  CA_200
REMARK   59  A    between atoms: CA_200  and  C_201
REMARK   60  A    between atoms: CA_200  and  CB_203
REMARK   61  A    between atoms: CB_203  and  OG1_204
REMARK   62  A    between atoms: CB_203  and  CG2_205
REMARK   63  A    between atoms: N_213  and  CA_214
REMARK   64  A    between atoms: CA_214  and  C_215
REMARK   65  A    between atoms: CA_214  and  CB_217
REMARK   66  A    between atoms: CB_217  and  OG_218
REMARK   67  A    between atoms: N_224  and  CA_225
REMARK   68  A    between atoms: CA_225  and  C_226
REMARK   69  A    between atoms: CA_225  and  CB_228
REMARK   70  A    between atoms: CB_228  and  SG_229
REMARK   71  A    between atoms: N_235  and  CA_236
REMARK   72  A    between atoms: CA_236  and  C_237
REMARK   73  A    between atoms: CA_236  and  CB_239
REMARK   74  A    between atoms: CB_239  and  CG_240
REMARK   75  A    between atoms: CG_240  and  SD_241
REMARK   76  A    between atoms: SD_241  and  CE_242
REMARK   77  A    between atoms: N_252  and  CA_253
REMARK   78  A    between atoms: CA_253  and  C_254
REMARK   79  A    between atoms: CA_253  and  CB_256
REMARK   80  A    between atoms: CB_256  and  CG_257
REMARK   81  A    between atoms: CZ_262  and  OH_263
REMARK   82  A    between atoms: N_273  and  CA_274
REMARK   83  A    between atoms: CA_274  and  C_275
REMARK   84  A    between atoms: N_280  and  CA_281
REMARK   85  A    between atoms: CA_281  and  C_282
REMARK   86  A    between atoms: CA_281  and  CB_284
REMARK   87  A    between atoms: N_290  and  CA_291
REMARK   88  A    between atoms: CA_291  and  C_292
REMARK   89  A    between atoms: CA_291  and  CB_294
REMARK   90  A    between atoms: CB_294  and  CG_295
REMARK   91  A    between atoms: N_304  and  CA_305
REMARK   92  A    between atoms: CA_305  and  C_306
REMARK   93  A    between atoms: CA_305  and  CB_308
REMARK   94  A    between atoms: CB_308  and  SG_309
REMARK   95  A    between atoms: N_315  and  CA_316
REMARK   96  A    between atoms: CA_316  and  C_317
REMARK   97  A    between atoms: CA_316  and  CB_319
REMARK   98  A    between atoms: CB_319  and  CG_320
REMARK   99  A    between atoms: CZ_325  and  OH_326
REMARK  100  A    between atoms: N_336  and  CA_337
REMARK  101  A    between atoms: CA_337  and  C_338
REMARK  102  A    between atoms: CA_337  and  CB_340
REMARK  103  A    between atoms: CB_340  and  CG_341
REMARK  104  A    between atoms: CG_341  and  CD_342
REMARK  105  A    between atoms: CD_342  and  NE_343
REMARK  106  A    between atoms: N_360  and  CA_361
REMARK  107  A    between atoms: CA_361  and  C_362
REMARK  108  A    between atoms: CA_361  and  CB_364
REMARK  109  A    between atoms: CB_364  and  CG_365
REMARK  110  A    between atoms: CG_365  and  CD_366
REMARK  111  A    between atoms: CD_366  and  CE_367
REMARK  112  A    between atoms: CE_367  and  NZ_368
REMARK  113  A    between atoms: N_382  and  CA_383
REMARK  114  A    between atoms: CA_383  and  C_384
REMARK  115  A    between atoms: CA_383  and  CB_386
REMARK  116  A    between atoms: CB_386  and  CG_387
REMARK  117  A    between atoms: CA_397  and  C_398
REMARK  118  A    between atoms: N_410  and  CA_411
REMARK  119  A    between atoms: CA_411  and  C_412
REMARK  120  A    between atoms: CA_411  and  CB_414
REMARK  121  A    between atoms: CB_414  and  CG1_415
REMARK  122  A    between atoms: CB_414  and  CG2_416
REMARK  123  A    between atoms: N_426  and  CA_427
REMARK  124  A    between atoms: CA_427  and  C_428
REMARK  125  A    between atoms: CA_427  and  CB_430
REMARK  126  A    between atoms: CB_430  and  CG_431
REMARK  127  A    between atoms: N_443  and  CA_444
REMARK  128  A    between atoms: CA_444  and  C_445
REMARK  129  A    between atoms: CA_444  and  CB_447
REMARK  130  A    between atoms: CB_447  and  CG_448
REMARK  131  A    between atoms: N_463  and  CA_464
REMARK  132  A    between atoms: CA_464  and  C_465
REMARK  133  A    between atoms: CA_464  and  CB_467
REMARK  134  A    between atoms: CB_467  and  CG_468
REMARK  135  A    between atoms: CG_468  and  CD_469
REMARK  136  A    between atoms: N_480  and  CA_481
REMARK  137  A    between atoms: CA_481  and  C_482
REMARK  138  A    between atoms: CA_481  and  CB_484
REMARK  139  A    between atoms: CB_484  and  CG_485
REMARK  140  A    between atoms: N_498  and  CA_499
REMARK  141  A    between atoms: CA_499  and  C_500
REMARK  142  A    between atoms: CA_499  and  CB_502
REMARK  143  A    between atoms: CB_502  and  CG_503
REMARK  144  A    between atoms: N_518  and  CA_519
REMARK  145  A    between atoms: CA_519  and  C_520
REMARK  146  A    between atoms: CA_519  and  CB_522
REMARK  147  A    between atoms: CB_522  and  OG_523
REMARK  148  A    between atoms: N_529  and  CA_530
REMARK  149  A    between atoms: CA_530  and  C_531
REMARK  150  A    between atoms: CA_530  and  CB_533
REMARK  151  A    between atoms: CB_533  and  CG_534
REMARK  152  A    between atoms: CA_547  and  C_548
REMARK  153  A    between atoms: N_560  and  CA_561
REMARK  154  A    between atoms: CA_561  and  C_562
REMARK  155  A    between atoms: N_567  and  CA_568
REMARK  156  A    between atoms: CA_568  and  C_569
REMARK  157  A    between atoms: CA_568  and  CB_571
REMARK  158  A    between atoms: CB_571  and  CG_572
REMARK  159  A    between atoms: N_579  and  CA_580
REMARK  160  A    between atoms: CA_580  and  C_581
REMARK  161  A    between atoms: CA_580  and  CB_583
REMARK  162  A    between atoms: CB_583  and  OG_584
REMARK  163  A    between atoms: N_590  and  CA_591
REMARK  164  A    between atoms: CA_591  and  C_592
REMARK  165  A    between atoms: CA_591  and  CB_594
REMARK  166  A    between atoms: CB_594  and  CG_595
REMARK  167  A    between atoms: N_602  and  CA_603
REMARK  168  A    between atoms: CA_603  and  C_604
REMARK  169  A    between atoms: CA_603  and  CB_606
REMARK  170  A    between atoms: CB_606  and  CG_607
REMARK  171  A    between atoms: CZ_612  and  OH_613
REMARK  172  A    between atoms: N_623  and  CA_624
REMARK  173  A    between atoms: CA_624  and  C_625
REMARK  174  A    between atoms: N_630  and  CA_631
REMARK  175  A    between atoms: CA_631  and  C_632
REMARK  176  A    between atoms: N_637  and  CA_638
REMARK  177  A    between atoms: CA_638  and  C_639
REMARK  178  A    between atoms: CA_638  and  CB_641
REMARK  179  A    between atoms: CB_641  and  CG1_642
REMARK  180  A    between atoms: CB_641  and  CG2_643
REMARK  181  A    between atoms: N_653  and  CA_654
REMARK  182  A    between atoms: CA_654  and  C_655
REMARK  183  A    between atoms: CA_654  and  CB_657
REMARK  184  A    between atoms: CB_657  and  CG_658
REMARK  185  A    between atoms: CG_658  and  CD_659
REMARK  186  A    between atoms: N_670  and  CA_671
REMARK  187  A    between atoms: CA_671  and  C_672
REMARK  188  A    between atoms: CA_671  and  CB_674
REMARK  189  A    between atoms: CB_674  and  CG1_675
REMARK  190  A    between atoms: CB_674  and  CG2_676
REMARK  191  A    between atoms: CG1_675  and  CD1_677
REMARK  192  A    between atoms: N_689  and  CA_690
REMARK  193  A    between atoms: CA_690  and  C_691
REMARK  194  A    between atoms: CA_690  and  CB_693
REMARK  195  A    between atoms: CB_693  and  CG1_694
REMARK  196  A    between atoms: CB_693  and  CG2_695
REMARK  197  A    between atoms: N_705  and  CA_706
REMARK  198  A    between atoms: CA_706  and  C_707
REMARK  199  A    between atoms: N_712  and  CA_713
REMARK  200  A    between atoms: CA_713  and  C_714
REMARK  201  A    between atoms: CA_713  and  CB_716
REMARK  202  A    between atoms: CB_716  and  CG_717
REMARK  203  A    between atoms: CG_717  and  CD_718
REMARK  204  A    between atoms: N_729  and  CA_730
REMARK  205  A    between atoms: CA_730  and  C_731
REMARK  206  A    between atoms: CA_730  and  CB_733
REMARK  207  A    between atoms: CB_733  and  CG_734
REMARK  208  A    between atoms: N_741  and  CA_742
REMARK  209  A    between atoms: CA_742  and  C_743
REMARK  210  A    between atoms: CA_742  and  CB_745
REMARK  211  A    between atoms: CB_745  and  CG_746
REMARK  212  A    between atoms: CG_746  and  CD_747
REMARK  213  A    between atoms: N_756  and  CA_757
REMARK  214  A    between atoms: CA_757  and  C_758
REMARK  215  A    between atoms: CA_757  and  CB_760
REMARK  216  A    between atoms: CB_760  and  OG1_761
REMARK  217  A    between atoms: CB_760  and  CG2_762
REMARK  218  A    between atoms: N_770  and  CA_771
REMARK  219  A    between atoms: CA_771  and  C_772
REMARK  220  A    between atoms: CA_771  and  CB_774
REMARK  221  A    between atoms: CB_774  and  CG_775
REMARK  222  A    between atoms: N_782  and  CA_783
REMARK  223  A    between atoms: CA_783  and  C_784
REMARK  224  A    between atoms: CA_783  and  CB_786
REMARK  225  A    between atoms: C_784  and  N_794
REMARK  226  A    between atoms: CB_786  and  CG_787
REMARK  227  A    between atoms: CA_796  and  CB_798
REMARK  228  A    between atoms: CA_796  and  C_816
REMARK  229  A    between atoms: CB_798  and  CG_801
REMARK  230  A    between atoms: CG_801  and  CD_804
REMARK  231  A    between atoms: CD_804  and  NE_807
REMARK  232  A    between atoms: CA_828  and  C_830
REMARK  233  A    between atoms: N_832  and  CA_834
REMARK  234  A    between atoms: CA_834  and  CB_836
REMARK  235  A    between atoms: CA_834  and  C_845
REMARK  236  A    between atoms: CB_836  and  CG_839
REMARK  237  A    between atoms: CG_839  and  CD_842
REMARK  238  A    between atoms: N_847  and  CA_849
REMARK  239  A    between atoms: CA_849  and  CB_851
REMARK  240  A    between atoms: CA_849  and  C_856
REMARK  241  A    between atoms: CB_851  and  SG_854
REMARK  242  A    between atoms: CA_868  and  C_870
REMARK  243  A    between atoms: N_872  and  CA_874
REMARK  244  A    between atoms: CA_874  and  CB_876
REMARK  245  A    between atoms: CA_874  and  C_891
REMARK  246  A    between atoms: CB_876  and  CG_879
REMARK  247  A    between atoms: CZ_884  and  OH_885
REMARK  248  A    between atoms: N_893  and  CA_895
REMARK  249  A    between atoms: CA_895  and  C_898
REMARK  250  A    between atoms: CA_910  and  C_912
REMARK  251  A    between atoms: N_914  and  CA_916
REMARK  252  A    between atoms: CA_916  and  CB_918
REMARK  253  A    between atoms: CA_916  and  C_923
REMARK  254  A    between atoms: CB_918  and  OG_921
REMARK  255  A    between atoms: N_925  and  CA_927
REMARK  256  A    between atoms: CA_927  and  CB_929
REMARK  257  A    between atoms: CA_927  and  C_934
REMARK  258  A    between atoms: CB_929  and  SG_932
REMARK  259  A    between atoms: N_936  and  CA_938
REMARK  260  A    between atoms: CA_938  and  CB_940
REMARK  261  A    between atoms: CA_938  and  C_955
REMARK  262  A    between atoms: CB_940  and  CG_943
REMARK  263  A    between atoms: CZ_948  and  OH_949
REMARK  264  A    between atoms: N_957  and  CA_959
REMARK  265  A    between atoms: CA_959  and  CB_961
REMARK  266  A    between atoms: CA_959  and  C_979
REMARK  267  A    between atoms: CB_961  and  CG_964
REMARK  268  A    between atoms: CG_964  and  CD_967
REMARK  269  A    between atoms: CD_967  and  NE_970
REMARK  270  A    between atoms: N_981  and  CA_983
REMARK  271  A    between atoms: CA_983  and  CB_985
REMARK  272  A    between atoms: CA_983  and  C_1001
REMARK  273  A    between atoms: CB_985  and  CG_988
REMARK  274  A    between atoms: CG_988  and  CD_991
REMARK  275  A    between atoms: CD_991  and  CE_994
REMARK  276  A    between atoms: CE_994  and  NZ_997
REMARK  277  A    between atoms: N_1003  and  CA_1005
REMARK  278  A    between atoms: CA_1005  and  CB_1007
REMARK  279  A    between atoms: CA_1005  and  C_1015
REMARK  280  A    between atoms: CB_1007  and  CG_1010
REMARK  281  A    between atoms: CA_1027  and  C_1029
REMARK  282  A    between atoms: N_1031  and  CA_1033
REMARK  283  A    between atoms: CA_1033  and  CB_1035
REMARK  284  A    between atoms: CA_1033  and  C_1046
REMARK  285  A    between atoms: CB_1035  and  CG_1038
REMARK  286  A    between atoms: CG_1038  and  CD_1041
REMARK  287  A    between atoms: N_1048  and  CA_1050
REMARK  288  A    between atoms: CA_1050  and  CB_1052
REMARK  289  A    between atoms: CA_1050  and  C_1063
REMARK  290  A    between atoms: CB_1052  and  CG_1055
REMARK  291  A    between atoms: N_1065  and  CA_1067
REMARK  292  A    between atoms: CA_1067  and  CB_1069
REMARK  293  A    between atoms: CA_1067  and  C_1085
REMARK  294  A    between atoms: CB_1069  and  CG_1072
REMARK  295  A    between atoms: CG_1072  and  CD_1075
REMARK  296  A    between atoms: CD_1075  and  CE_1078
REMARK  297  A    between atoms: CE_1078  and  NZ_1081
REMARK  298  A    between atoms: N_1087  and  CA_1089
REMARK  299  A    between atoms: CA_1089  and  CB_1091
REMARK  300  A    between atoms: CA_1089  and  C_1104
REMARK  301  A    between atoms: CB_1091  and  CG2_1093
REMARK  302  A    between atoms: CB_1091  and  CG1_1097
REMARK  303  A    between atoms: CG1_1097  and  CD1_1100
REMARK  304  A    between atoms: N_1106  and  CA_1108
REMARK  305  A    between atoms: CA_1108  and  CB_1110
REMARK  306  A    between atoms: CA_1108  and  C_1119
REMARK  307  A    between atoms: CB_1110  and  CG_1113
REMARK  308  A    between atoms: CG_1113  and  CD_1116
REMARK  309  A    between atoms: N_1121  and  CA_1123
REMARK  310  A    between atoms: CA_1123  and  CB_1125
REMARK  311  A    between atoms: CA_1123  and  C_1140
REMARK  312  A    between atoms: CB_1125  and  CG_1128
REMARK  313  A    between atoms: CZ_1133  and  OH_1134
REMARK  314  A    between atoms: N_1142  and  CA_1144
REMARK  315  A    between atoms: CA_1144  and  CB_1146
REMARK  316  A    between atoms: CA_1144  and  C_1164
REMARK  317  A    between atoms: CB_1146  and  CG_1149
REMARK  318  A    between atoms: CG_1149  and  CD_1152
REMARK  319  A    between atoms: CD_1152  and  NE_1155
REMARK  320  A    between atoms: N_1166  and  CA_1168
REMARK  321  A    between atoms: CA_1168  and  CB_1170
REMARK  322  A    between atoms: CA_1168  and  C_1181
REMARK  323  A    between atoms: CB_1170  and  CG_1173
REMARK  324  A    between atoms: N_1183  and  CA_1185
REMARK  325  A    between atoms: CA_1185  and  CB_1187
REMARK  326  A    between atoms: CA_1185  and  C_1195
REMARK  327  A    between atoms: CB_1187  and  CG_1190
REMARK  328  A    between atoms: N_1197  and  CA_1199
REMARK  329  A    between atoms: CA_1199  and  CB_1201
REMARK  330  A    between atoms: CA_1199  and  C_1209
REMARK  331  A    between atoms: CB_1201  and  CG2_1203
REMARK  332  A    between atoms: CB_1201  and  OG1_1207
REMARK  333  A    between atoms: N_1211  and  CA_1213
REMARK  334  A    between atoms: CA_1213  and  CB_1215
REMARK  335  A    between atoms: CA_1213  and  C_1228
REMARK  336  A    between atoms: CB_1215  and  CG_1218
REMARK  337  A    between atoms: CG_1218  and  CD1_1220
REMARK  338  A    between atoms: CG_1218  and  CD2_1224
REMARK  339  A    between atoms: CA_1240  and  C_1242
REMARK  340  A    between atoms: N_1244  and  CA_1246
REMARK  341  A    between atoms: CA_1246  and  CB_1248
REMARK  342  A    between atoms: CA_1246  and  C_1258
REMARK  343  A    between atoms: CB_1248  and  CG1_1250
REMARK  344  A    between atoms: CB_1248  and  CG2_1254
REMARK  345  A    between atoms: N_1260  and  CA_1262
REMARK  346  A    between atoms: CA_1262  and  CB_1264
REMARK  347  A    between atoms: CA_1262  and  C_1282
REMARK  348  A    between atoms: CB_1264  and  CG_1267
REMARK  349  A    between atoms: CG_1267  and  CD_1270
REMARK  350  A    between atoms: CD_1270  and  NE_1273
REMARK  351  A    between atoms: N_1284  and  CA_1286
REMARK  352  A    between atoms: CA_1286  and  CB_1288
REMARK  353  A    between atoms: CA_1286  and  C_1296
REMARK  354  A    between atoms: CB_1288  and  CG_1291
REMARK  355  A    between atoms: N_1298  and  CA_1300
REMARK  356  A    between atoms: CA_1300  and  CB_1302
REMARK  357  A    between atoms: CA_1300  and  C_1312
REMARK  358  A    between atoms: CB_1302  and  CG1_1304
REMARK  359  A    between atoms: CB_1302  and  CG2_1308
REMARK  360  A    between atoms: N_1314  and  CA_1316
REMARK  361  A    between atoms: CA_1316  and  CB_1318
REMARK  362  A    between atoms: CA_1316  and  C_1331
REMARK  363  A    between atoms: CB_1318  and  CG_1321
REMARK  364  A    between atoms: CG_1321  and  CD1_1323
REMARK  365  A    between atoms: CG_1321  and  CD2_1327
REMARK  366  A    between atoms: N_1333  and  CA_1335
REMARK  367  A    between atoms: CA_1335  and  CB_1337
REMARK  368  A    between atoms: CA_1335  and  C_1343
REMARK  369  A    between atoms: CB_1337  and  CG_1340
REMARK  370  A    between atoms: N_1345  and  CA_1347
REMARK  371  A    between atoms: CA_1347  and  CB_1349
REMARK  372  A    between atoms: CA_1347  and  C_1358
REMARK  373  A    between atoms: CB_1349  and  CG_1352
REMARK  374  A    between atoms: CG_1352  and  CD_1355
REMARK                            x       y       z     vdW  Elec       q    Type
REMARK                         _______ _______ _______ _____ _____    ______ ____
ROOT
ATOM      1  CA  LYS A  73     -98.284  13.023 -32.368  0.00  0.00    +0.000 C 
ENDROOT
BRANCH   1   4
ATOM      2  C   HIS A  72     -95.299  12.225 -31.421  0.00  0.00    +0.000 C 
ATOM      3  O   HIS A  72     -94.858  12.003 -32.552  0.00  0.00    +0.000 OA
ATOM      4  N   LYS A  73     -96.806  12.692 -31.573  0.00  0.00    +0.000 N 
ATOM      5  H   LYS A  73     -97.151  12.275 -30.511  0.00  0.00    +0.000 HD
BRANCH   2   6
ATOM      6  CA  HIS A  72     -94.073  11.770 -30.204  0.00  0.00    +0.000 C 
BRANCH   6   9
ATOM      7  C   GLN A  71     -91.349  10.603 -28.992  0.00  0.00    +0.000 C 
ATOM      8  O   GLN A  71     -91.654   9.405 -28.928  0.00  0.00    +0.000 OA
ATOM      9  N   HIS A  72     -92.462  11.268 -29.920  0.00  0.00    +0.000 N 
ATOM     10  H   HIS A  72     -91.988  11.254 -31.010  0.00  0.00    +0.000 HD
BRANCH   7  11
ATOM     11  CA  GLN A  71     -89.674  10.600 -28.416  0.00  0.00    +0.000 C 
BRANCH  11  14
ATOM     12  C   PRO A  70     -87.010   9.708 -26.958  0.00  0.00    +0.000 C 
ATOM     13  O   PRO A  70     -86.281   9.886 -27.925  0.00  0.00    +0.000 OA
ATOM     14  N   GLN A  71     -88.528   9.889 -27.368  0.00  0.00    +0.000 N 
ATOM     15  H   GLN A  71     -89.080   8.889 -27.040  0.00  0.00    +0.000 HD
BRANCH  12  22
ATOM     16  C   ASN A  69     -83.200   7.940 -24.641  0.00  0.00    +0.000 C 
ATOM     17  O   ASN A  69     -83.423   6.760 -24.870  0.00  0.00    +0.000 OA
ATOM     18  N   PRO A  70     -84.328   8.789 -25.315  0.00  0.00    +0.000 N 
ATOM     19  CD  PRO A  70     -83.991  10.146 -25.082  0.00  0.00    +0.000 C 
ATOM     20  CG  PRO A  70     -84.972  10.344 -23.928  0.00  0.00    +0.000 C 
ATOM     21  CB  PRO A  70     -86.287   9.778 -24.519  0.00  0.00    +0.000 C 
ATOM     22  CA  PRO A  70     -85.942   8.951 -25.779  0.00  0.00    +0.000 C 
BRANCH  16  23
ATOM     23  CA  ASN A  69     -81.628   7.992 -23.911  0.00  0.00    +0.000 C 
BRANCH  23  26
ATOM     24  C   LYS A  68     -78.910   6.646 -23.006  0.00  0.00    +0.000 C 
ATOM     25  O   LYS A  68     -78.301   6.685 -24.087  0.00  0.00    +0.000 OA
ATOM     26  N   ASN A  69     -80.402   6.969 -23.381  0.00  0.00    +0.000 N 
ATOM     27  H   ASN A  69     -80.912   5.896 -23.325  0.00  0.00    +0.000 HD
BRANCH  24  28
ATOM     28  CA  LYS A  68     -77.756   5.916 -21.872  0.00  0.00    +0.000 C 
BRANCH  28  31
ATOM     29  C   ARG A  67     -74.831   5.054 -20.875  0.00  0.00    +0.000 C 
ATOM     30  O   ARG A  67     -74.334   4.781 -21.975  0.00  0.00    +0.000 OA
ATOM     31  N   LYS A  68     -76.330   5.520 -21.038  0.00  0.00    +0.000 N 
ATOM     32  H   LYS A  68     -76.093   6.273 -20.162  0.00  0.00    +0.000 HD
BRANCH  29  33
ATOM     33  CA  ARG A  67     -73.637   4.692 -19.627  0.00  0.00    +0.000 C 
BRANCH  33  36
ATOM     34  C   TYR A  66     -70.740   3.564 -18.689  0.00  0.00    +0.000 C 
ATOM     35  O   TYR A  66     -70.070   3.303 -19.681  0.00  0.00    +0.000 OA
ATOM     36  N   ARG A  67     -72.059   4.138 -19.344  0.00  0.00    +0.000 N 
ATOM     37  H   ARG A  67     -71.793   4.107 -20.506  0.00  0.00    +0.000 HD
BRANCH  34  38
ATOM     38  CA  TYR A  66     -69.620   3.243 -17.356  0.00  0.00    +0.000 C 
BRANCH  38  41
ATOM     39  C   CYS A  65     -66.717   2.139 -16.328  0.00  0.00    +0.000 C 
ATOM     40  O   CYS A  65     -66.049   1.714 -17.266  0.00  0.00    +0.000 OA
ATOM     41  N   TYR A  66     -68.045   2.679 -17.038  0.00  0.00    +0.000 N 
ATOM     42  H   TYR A  66     -67.827   2.480 -18.194  0.00  0.00    +0.000 HD
BRANCH  39  43
ATOM     43  CA  CYS A  65     -65.685   1.598 -14.994  0.00  0.00    +0.000 C 
BRANCH  43  46
ATOM     44  C   SER A  64     -62.753   0.884 -13.748  0.00  0.00    +0.000 C 
ATOM     45  O   SER A  64     -62.102   0.908 -14.790  0.00  0.00    +0.000 OA
ATOM     46  N   CYS A  65     -64.254   1.320 -14.077  0.00  0.00    +0.000 N 
ATOM     47  H   CYS A  65     -64.733   1.163 -12.999  0.00  0.00    +0.000 HD
BRANCH  44  48
ATOM     48  CA  SER A  64     -61.633   0.360 -12.460  0.00  0.00    +0.000 C 
BRANCH  48  51
ATOM     49  C   PRO A  63     -58.591  -0.137 -11.286  0.00  0.00    +0.000 C 
ATOM     50  O   PRO A  63     -58.016  -0.272 -12.375  0.00  0.00    +0.000 OA
ATOM     51  N   SER A  64     -60.136   0.169 -11.606  0.00  0.00    +0.000 N 
ATOM     52  H   SER A  64     -60.506  -0.063 -10.497  0.00  0.00    +0.000 HD
BRANCH  49  59
ATOM     53  C   GLY A  62     -54.728  -2.201  -9.284  0.00  0.00    +0.000 C 
ATOM     54  O   GLY A  62     -55.024  -3.363  -9.625  0.00  0.00    +0.000 OA
ATOM     55  N   PRO A  63     -55.820  -1.191  -9.842  0.00  0.00    +0.000 N 
ATOM     56  CD  PRO A  63     -55.351   0.178  -9.626  0.00  0.00    +0.000 C 
ATOM     57  CG  PRO A  63     -56.100   0.522  -8.344  0.00  0.00    +0.000 C 
ATOM     58  CB  PRO A  63     -57.493  -0.020  -8.768  0.00  0.00    +0.000 C 
ATOM     59  CA  PRO A  63     -57.466  -0.870 -10.097  0.00  0.00    +0.000 C 
BRANCH  53  60
ATOM     60  CA  GLY A  62     -53.197  -2.256  -8.397  0.00  0.00    +0.000 C 
BRANCH  60  63
ATOM     61  C   TYR A  61     -50.513  -3.681  -7.349  0.00  0.00    +0.000 C 
ATOM     62  O   TYR A  61     -50.306  -4.331  -8.380  0.00  0.00    +0.000 OA
ATOM     63  N   GLY A  62     -51.866  -2.912  -7.593  0.00  0.00    +0.000 N 
ATOM     64  H   GLY A  62     -52.406  -3.457  -6.682  0.00  0.00    +0.000 HD
BRANCH  61  65
ATOM     65  CA  TYR A  61     -49.252  -3.908  -6.121  0.00  0.00    +0.000 C 
BRANCH  65  68
ATOM     66  C   PRO A  60     -46.252  -4.930  -5.117  0.00  0.00    +0.000 C 
ATOM     67  O   PRO A  60     -45.509  -4.672  -6.070  0.00  0.00    +0.000 OA
ATOM     68  N   TYR A  61     -47.649  -4.477  -5.790  0.00  0.00    +0.000 N 
ATOM     69  H   TYR A  61     -47.535  -5.276  -6.662  0.00  0.00    +0.000 HD
BRANCH  66  76
ATOM     70  C   CYS A  59     -42.060  -6.520  -3.083  0.00  0.00    +0.000 C 
ATOM     71  O   CYS A  59     -41.695  -7.207  -4.026  0.00  0.00    +0.000 OA
ATOM     72  N   PRO A  60     -43.453  -5.881  -3.610  0.00  0.00    +0.000 N 
ATOM     73  CD  PRO A  60     -43.476  -4.464  -3.424  0.00  0.00    +0.000 C 
ATOM     74  CG  PRO A  60     -44.366  -4.543  -2.187  0.00  0.00    +0.000 C 
ATOM     75  CB  PRO A  60     -45.412  -5.560  -2.651  0.00  0.00    +0.000 C 
ATOM     76  CA  PRO A  60     -45.077  -5.864  -4.113  0.00  0.00    +0.000 C 
BRANCH  70  77
ATOM     77  CA  CYS A  59     -40.828  -6.754  -1.779  0.00  0.00    +0.000 C 
BRANCH  77  80
ATOM     78  C   GLU A  58     -37.923  -8.037  -0.782  0.00  0.00    +0.000 C 
ATOM     79  O   GLU A  58     -37.434  -8.400  -1.867  0.00  0.00    +0.000 OA
ATOM     80  N   CYS A  59     -39.450  -7.506  -0.996  0.00  0.00    +0.000 N 
ATOM     81  H   CYS A  59     -39.932  -7.991  -0.024  0.00  0.00    +0.000 HD
BRANCH  78  82
ATOM     82  CA  GLU A  58     -36.708  -8.584   0.428  0.00  0.00    +0.000 C 
BRANCH  82  85
ATOM     83  C   PRO A  57     -33.539  -9.513   1.029  0.00  0.00    +0.000 C 
ATOM     84  O   PRO A  57     -33.063  -9.907  -0.017  0.00  0.00    +0.000 OA
ATOM     85  N   GLU A  58     -35.024  -8.995   0.560  0.00  0.00    +0.000 N 
ATOM     86  H   GLU A  58     -34.789  -8.758  -0.581  0.00  0.00    +0.000 HD
BRANCH  83  93
ATOM     87  C   ARG A  56     -29.116 -11.062   3.109  0.00  0.00    +0.000 C 
ATOM     88  O   ARG A  56     -28.659 -11.482   2.067  0.00  0.00    +0.000 OA
ATOM     89  N   PRO A  57     -30.676 -10.526   2.788  0.00  0.00    +0.000 N 
ATOM     90  CD  PRO A  57     -30.576  -9.137   2.409  0.00  0.00    +0.000 C 
ATOM     91  CG  PRO A  57     -31.062  -8.505   3.672  0.00  0.00    +0.000 C 
ATOM     92  CB  PRO A  57     -32.370  -8.726   2.936  0.00  0.00    +0.000 C 
ATOM     93  CA  PRO A  57     -32.315 -10.121   2.223  0.00  0.00    +0.000 C 
BRANCH  87  94
ATOM     94  CA  ARG A  56     -27.782 -11.591   4.282  0.00  0.00    +0.000 C 
BRANCH  94  95
ATOM     95  CB  ARG A  56     -27.506 -10.221   4.905  0.00  0.00    +0.000 C 
BRANCH  95  96
ATOM     96  CG  ARG A  56     -28.631  -9.554   5.697  0.00  0.00    +0.000 C 
BRANCH  96  97
ATOM     97  CD  ARG A  56     -29.365 -10.539   6.611  0.00  0.00    +0.000 C 
BRANCH  97  98
ATOM     98  NE  ARG A  56     -30.828 -10.534   6.602  0.00  0.00    +0.000 N 
ATOM     99  HE  ARG A  56     -31.260 -11.623   6.385  0.00  0.00    +0.000 HD
ATOM    100  CZ  ARG A  56     -31.734  -9.629   7.016  0.00  0.00    +0.000 C 
ATOM    101  NH1 ARG A  56     -31.435  -8.358   7.338  0.00  0.00    +0.000 N 
ATOM    102 HH11 ARG A  56     -31.960  -7.326   7.046  0.00  0.00    +0.000 HD
ATOM    103 HH12 ARG A  56     -30.989  -8.105   8.416  0.00  0.00    +0.000 HD
ATOM    104  NH2 ARG A  56     -33.023  -9.942   6.810  0.00  0.00    +0.000 N 
ATOM    105 HH21 ARG A  56     -33.578 -10.955   6.502  0.00  0.00    +0.000 HD
ATOM    106 HH22 ARG A  56     -33.920  -9.316   7.278  0.00  0.00    +0.000 HD
ENDBRANCH  97  98
ENDBRANCH  96  97
ENDBRANCH  95  96
ENDBRANCH  94  95
ENDBRANCH  87  94
ENDBRANCH  83  93
ENDBRANCH  82  85
BRANCH  82 107
ATOM    107  CB  GLU A  58     -36.699  -7.137   0.981  0.00  0.00    +0.000 C 
BRANCH 107 108
ATOM    108  CG  GLU A  58     -37.838  -6.738   1.934  0.00  0.00    +0.000 C 
BRANCH 108 109
ATOM    109  CD  GLU A  58     -37.925  -5.238   2.256  0.00  0.00    +0.000 C 
ATOM    110  OE1 GLU A  58     -38.492  -4.490   1.421  0.00  0.00    +0.000 OA
ATOM    111  OE2 GLU A  58     -37.812  -4.897   3.460  0.00  0.00    +0.000 OA
ENDBRANCH 108 109
ENDBRANCH 107 108
ENDBRANCH  82 107
ENDBRANCH  78  82
ENDBRANCH  77  80
BRANCH  77 112
ATOM    112  CB  CYS A  59     -40.681  -5.312  -1.304  0.00  0.00    +0.000 C 
BRANCH 112 113
ATOM    113  SG  CYS A  59     -41.664  -5.057   0.198  0.00  0.00    +0.000 S 
ATOM    114  HG  CYS A  59     -41.972  -4.604   1.246  0.00  0.00    +0.000 HD
ENDBRANCH 112 113
ENDBRANCH  77 112
ENDBRANCH  70  77
ENDBRANCH  66  76
ENDBRANCH  65  68
BRANCH  65 115
ATOM    115  CB  TYR A  61     -48.998  -2.414  -6.365  0.00  0.00    +0.000 C 
BRANCH 115 116
ATOM    116  CG  TYR A  61     -49.522  -1.666  -5.160  0.00  0.00    +0.000 A 
ATOM    117  CD1 TYR A  61     -48.772  -0.781  -4.378  0.00  0.00    +0.000 A 
ATOM    118  CE1 TYR A  61     -49.094  -0.900  -3.017  0.00  0.00    +0.000 A 
ATOM    119  CZ  TYR A  61     -49.890  -1.994  -2.590  0.00  0.00    +0.000 A 
ATOM    120  CE2 TYR A  61     -50.744  -2.634  -3.514  0.00  0.00    +0.000 A 
ATOM    121  CD2 TYR A  61     -50.820  -1.953  -4.731  0.00  0.00    +0.000 A 
BRANCH 119 122
ATOM    122  OH  TYR A  61     -49.828  -2.418  -1.297  0.00  0.00    +0.000 OA
ATOM    123  HH  TYR A  61     -49.727  -1.468  -0.591  0.00  0.00    +0.000 HD
ENDBRANCH 119 122
ENDBRANCH 115 116
ENDBRANCH  65 115
ENDBRANCH  61  65
ENDBRANCH  60  63
ENDBRANCH  53  60
ENDBRANCH  49  59
ENDBRANCH  48  51
BRANCH  48 124
ATOM    124  CB  SER A  64     -61.650   1.866 -12.217  0.00  0.00    +0.000 C 
BRANCH 124 125
ATOM    125  OG  SER A  64     -62.037   2.270 -10.919  0.00  0.00    +0.000 OA
ATOM    126  HG  SER A  64     -62.382   3.405 -10.929  0.00  0.00    +0.000 HD
ENDBRANCH 124 125
ENDBRANCH  48 124
ENDBRANCH  44  48
ENDBRANCH  43  46
BRANCH  43 127
ATOM    127  CB  CYS A  65     -65.432   3.101 -14.816  0.00  0.00    +0.000 C 
BRANCH 127 128
ATOM    128  SG  CYS A  65     -65.997   3.752 -13.213  0.00  0.00    +0.000 S 
ATOM    129  HG  CYS A  65     -66.124   4.343 -12.199  0.00  0.00    +0.000 HD
ENDBRANCH 127 128
ENDBRANCH  43 127
ENDBRANCH  39  43
ENDBRANCH  38  41
BRANCH  38 130
ATOM    130  CB  TYR A  66     -69.272   4.728 -17.213  0.00  0.00    +0.000 C 
BRANCH 130 131
ATOM    131  CG  TYR A  66     -69.861   5.330 -15.951  0.00  0.00    +0.000 C 
ATOM    132  CD1 TYR A  66     -69.371   6.377 -15.125  0.00  0.00    +0.000 C 
ATOM    133  CE1 TYR A  66     -69.828   6.384 -13.782  0.00  0.00    +0.000 C 
ATOM    134  CZ  TYR A  66     -70.450   5.211 -13.272  0.00  0.00    +0.000 C 
ATOM    135  CE2 TYR A  66     -71.097   4.360 -14.184  0.00  0.00    +0.000 C 
ATOM    136  CD2 TYR A  66     -71.048   4.726 -15.532  0.00  0.00    +0.000 C 
BRANCH 134 137
ATOM    137  OH  TYR A  66     -70.459   4.845 -11.955  0.00  0.00    +0.000 OA
ATOM    138  HH  TYR A  66     -70.615   5.816 -11.289  0.00  0.00    +0.000 HD
ENDBRANCH 134 137
ENDBRANCH 130 131
ENDBRANCH  38 130
ENDBRANCH  34  38
ENDBRANCH  33  36
BRANCH  33 139
ATOM    139  CB  ARG A  67     -73.389   6.174 -19.319  0.00  0.00    +0.000 C 
BRANCH 139 140
ATOM    140  CG  ARG A  67     -73.522   6.436 -17.825  0.00  0.00    +0.000 C 
BRANCH 140 141
ATOM    141  CD  ARG A  67     -74.517   5.414 -17.266  0.00  0.00    +0.000 C 
BRANCH 141 142
ATOM    142  NE  ARG A  67     -75.904   5.696 -17.652  0.00  0.00    +0.000 N 
ATOM    143  HE  ARG A  67     -76.473   4.810 -18.168  0.00  0.00    +0.000 HD
ATOM    144  CZ  ARG A  67     -76.744   6.484 -16.966  0.00  0.00    +0.000 C 
ATOM    145  NH1 ARG A  67     -76.373   7.733 -16.642  0.00  0.00    +0.000 N 
ATOM    146 HH11 ARG A  67     -77.013   8.117 -15.700  0.00  0.00    +0.000 HD
ATOM    147 HH12 ARG A  67     -75.475   8.507 -16.567  0.00  0.00    +0.000 HD
ATOM    148  NH2 ARG A  67     -78.045   6.160 -16.913  0.00  0.00    +0.000 N 
ATOM    149 HH21 ARG A  67     -78.427   6.066 -15.782  0.00  0.00    +0.000 HD
ATOM    150 HH22 ARG A  67     -78.828   5.417 -17.425  0.00  0.00    +0.000 HD
ENDBRANCH 141 142
ENDBRANCH 140 141
ENDBRANCH 139 140
ENDBRANCH  33 139
ENDBRANCH  29  33
ENDBRANCH  28  31
BRANCH  28 151
ATOM    151  CB  LYS A  68     -77.614   7.386 -21.434  0.00  0.00    +0.000 C 
BRANCH 151 152
ATOM    152  CG  LYS A  68     -78.364   7.678 -20.119  0.00  0.00    +0.000 C 
BRANCH 152 153
ATOM    153  CD  LYS A  68     -78.256   9.133 -19.655  0.00  0.00    +0.000 C 
BRANCH 153 154
ATOM    154  CE  LYS A  68     -78.989   9.351 -18.327  0.00  0.00    +0.000 C 
BRANCH 154 155
ATOM    155  NZ  LYS A  68     -80.447   9.469 -18.519  0.00  0.00    +0.000 N 
ATOM    156  HZ1 LYS A  68     -80.870   8.928 -17.515  0.00  0.00    +0.000 HD
ATOM    157  HZ2 LYS A  68     -80.657  10.620 -18.261  0.00  0.00    +0.000 HD
ATOM    158  HZ3 LYS A  68     -81.402   9.047 -19.103  0.00  0.00    +0.000 HD
ENDBRANCH 154 155
ENDBRANCH 153 154
ENDBRANCH 152 153
ENDBRANCH 151 152
ENDBRANCH  28 151
ENDBRANCH  24  28
ENDBRANCH  23  26
BRANCH  23 159
ATOM    159  CB  ASN A  69     -82.371   8.616 -22.710  0.00  0.00    +0.000 C 
BRANCH 159 160
ATOM    160  CG  ASN A  69     -81.952   9.133 -21.338  0.00  0.00    +0.000 C 
ATOM    161  OD1 ASN A  69     -82.869   9.500 -20.604  0.00  0.00    +0.000 OA
ATOM    162  ND2 ASN A  69     -80.698   9.559 -21.247  0.00  0.00    +0.000 N 
ATOM    163 HD21 ASN A  69     -80.779  10.734 -21.014  0.00  0.00    +0.000 HD
ATOM    164 HD22 ASN A  69     -79.927   9.525 -22.157  0.00  0.00    +0.000 HD
ENDBRANCH 159 160
ENDBRANCH  23 159
ENDBRANCH  16  23
ENDBRANCH  12  22
ENDBRANCH  11  14
BRANCH  11 165
ATOM    165  CB  GLN A  71     -89.888  11.863 -27.582  0.00  0.00    +0.000 C 
BRANCH 165 166
ATOM    166  CG  GLN A  71     -90.600  11.567 -26.254  0.00  0.00    +0.000 C 
BRANCH 166 167
ATOM    167  CD  GLN A  71     -91.409  12.732 -25.683  0.00  0.00    +0.000 C 
ATOM    168  OE1 GLN A  71     -91.014  13.358 -24.702  0.00  0.00    +0.000 OA
ATOM    169  NE2 GLN A  71     -92.502  13.093 -26.351  0.00  0.00    +0.000 N 
ATOM    170 HE21 GLN A  71     -92.320  14.217 -26.698  0.00  0.00    +0.000 HD
ATOM    171 HE22 GLN A  71     -93.439  12.572 -25.824  0.00  0.00    +0.000 HD
ENDBRANCH 166 167
ENDBRANCH 165 166
ENDBRANCH  11 165
ENDBRANCH   7  11
ENDBRANCH   6   9
BRANCH   6 172
ATOM    172  CB  HIS A  72     -93.915  13.223 -29.729  0.00  0.00    +0.000 C 
BRANCH 172 173
ATOM    173  CG  HIS A  72     -94.584  13.679 -28.456  0.00  0.00    +0.000 A 
ATOM    174  ND1 HIS A  72     -94.323  14.892 -27.853  0.00  0.00    +0.000 N 
ATOM    175  HD1 HIS A  72     -93.801  15.896 -28.222  0.00  0.00    +0.000 HD
ATOM    176  CE1 HIS A  72     -95.204  15.013 -26.849  0.00  0.00    +0.000 A 
ATOM    177  NE2 HIS A  72     -95.917  13.882 -26.708  0.00  0.00    +0.000 NA
ATOM    178  CD2 HIS A  72     -95.530  13.006 -27.721  0.00  0.00    +0.000 A 
ENDBRANCH 172 173
ENDBRANCH   6 172
ENDBRANCH   2   6
ENDBRANCH   1   4
BRANCH   1 179
ATOM    179  C   LYS A  73     -99.476  13.620 -33.530  0.00  0.00    +0.000 C 
ATOM    180  O   LYS A  73     -98.902  13.509 -34.622  0.00  0.00    +0.000 OA
ATOM    181  N   ILE A  74    -100.987  14.087 -33.736  0.00  0.00    +0.000 N 
ATOM    182  H   ILE A  74    -101.376  13.004 -33.437  0.00  0.00    +0.000 HD
BRANCH 181 183
ATOM    183  CA  ILE A  74    -102.309  14.837 -34.522  0.00  0.00    +0.000 C 
BRANCH 183 184
ATOM    184  C   ILE A  74    -103.433  15.071 -35.880  0.00  0.00    +0.000 C 
ATOM    185  O   ILE A  74    -102.959  14.349 -36.750  0.00  0.00    +0.000 OA
ATOM    186  N   GLU A  75    -104.799  15.577 -36.536  0.00  0.00    +0.000 N 
ATOM    187  H   GLU A  75    -104.407  15.673 -37.657  0.00  0.00    +0.000 HD
BRANCH 186 188
ATOM    188  CA  GLU A  75    -106.427  15.977 -36.823  0.00  0.00    +0.000 C 
BRANCH 188 189
ATOM    189  C   GLU A  75    -107.507  16.471 -38.134  0.00  0.00    +0.000 C 
ATOM    190  O   GLU A  75    -106.764  16.207 -39.070  0.00  0.00    +0.000 OA
ATOM    191  N   TYR A  76    -108.851  17.031 -38.829  0.00  0.00    +0.000 N 
ATOM    192  H   TYR A  76    -108.617  16.883 -39.986  0.00  0.00    +0.000 HD
BRANCH 191 193
ATOM    193  CA  TYR A  76    -110.445  17.597 -39.133  0.00  0.00    +0.000 C 
BRANCH 193 194
ATOM    194  C   TYR A  76    -111.560  17.949 -40.460  0.00  0.00    +0.000 C 
ATOM    195  O   TYR A  76    -110.924  17.623 -41.456  0.00  0.00    +0.000 OA
ATOM    196  N   ARG A  77    -112.917  18.509 -41.066  0.00  0.00    +0.000 N 
ATOM    197  H   ARG A  77    -112.683  18.403 -42.229  0.00  0.00    +0.000 HD
BRANCH 196 198
ATOM    198  CA  ARG A  77    -114.528  19.030 -41.247  0.00  0.00    +0.000 C 
BRANCH 198 199
ATOM    199  C   ARG A  77    -115.814  19.442 -42.415  0.00  0.00    +0.000 C 
ATOM    200  O   ARG A  77    -115.262  19.277 -43.509  0.00  0.00    +0.000 OA
ATOM    201  N   HIS A  78    -117.330  19.966 -42.559  0.00  0.00    +0.000 N 
ATOM    202  H   HIS A  78    -117.716  19.841 -41.452  0.00  0.00    +0.000 HD
BRANCH 201 203
ATOM    203  CA  HIS A  78    -118.822  20.435 -43.294  0.00  0.00    +0.000 C 
BRANCH 203 204
ATOM    204  C   HIS A  78    -120.089  21.217 -44.308  0.00  0.00    +0.000 C 
ATOM    205  O   HIS A  78    -119.613  21.496 -45.418  0.00  0.00    +0.000 OA
ATOM    206  N   ASN A  79    -121.623  21.604 -44.360  0.00  0.00    +0.000 N 
ATOM    207  H   ASN A  79    -122.061  20.980 -43.447  0.00  0.00    +0.000 HD
BRANCH 206 208
ATOM    208  CA  ASN A  79    -123.101  22.025 -45.123  0.00  0.00    +0.000 C 
BRANCH 208 209
ATOM    209  C   ASN A  79    -124.203  22.887 -46.216  0.00  0.00    +0.000 C 
ATOM    210  O   ASN A  79    -123.573  23.250 -47.221  0.00  0.00    +0.000 OA
ATOM    211  N   THR A  80    -125.726  23.269 -46.390  0.00  0.00    +0.000 N 
ATOM    212  H   THR A  80    -126.090  22.329 -45.756  0.00  0.00    +0.000 HD
BRANCH 211 213
ATOM    213  CA  THR A  80    -127.164  23.960 -46.983  0.00  0.00    +0.000 C 
BRANCH 213 214
ATOM    214  C   THR A  80    -128.405  24.286 -48.193  0.00  0.00    +0.000 C 
ATOM    215  O   THR A  80    -127.912  23.963 -49.271  0.00  0.00    +0.000 OA
ATOM    216  N   LEU A  81    -129.951  24.669 -48.291  0.00  0.00    +0.000 N 
ATOM    217  H   LEU A  81    -130.349  23.794 -47.593  0.00  0.00    +0.000 HD
BRANCH 216 218
ATOM    218  CA  LEU A  81    -131.488  24.978 -48.990  0.00  0.00    +0.000 C 
BRANCH 218 219
ATOM    219  C   LEU A  81    -132.533  25.711 -50.226  0.00  0.00    +0.000 C 
ATOM    220  O   LEU A  81    -131.859  26.039 -51.188  0.00  0.00    +0.000 OA
ATOM    221  N   PRO A  82    -134.018  26.184 -50.471  0.00  0.00    +0.000 N 
ATOM    222  CD  PRO A  82    -134.358  26.834 -49.245  0.00  0.00    +0.000 C 
ATOM    223  CG  PRO A  82    -134.166  28.199 -49.852  0.00  0.00    +0.000 C 
ATOM    224  CB  PRO A  82    -135.019  28.034 -51.104  0.00  0.00    +0.000 C 
ATOM    225  CA  PRO A  82    -135.420  26.574 -51.378  0.00  0.00    +0.000 C 
BRANCH 225 226
ATOM    226  C   PRO A  82    -136.525  27.255 -52.610  0.00  0.00    +0.000 C 
ATOM    227  O   PRO A  82    -136.002  27.233 -53.754  0.00  0.00    +0.000 OA
ATOM    228  N   VAL A  83    -138.029  27.737 -52.795  0.00  0.00    +0.000 N 
ATOM    229  H   VAL A  83    -138.402  26.733 -52.273  0.00  0.00    +0.000 HD
BRANCH 228 230
ATOM    230  CA  VAL A  83    -139.381  28.512 -53.488  0.00  0.00    +0.000 C 
BRANCH 230 231
ATOM    231  C   VAL A  83    -140.464  28.741 -54.850  0.00  0.00    +0.000 C 
ATOM    232  O   VAL A  83    -139.816  28.181 -55.762  0.00  0.00    +0.000 OA
ATOM    233  N   ARG A  84    -141.813  29.218 -55.521  0.00  0.00    +0.000 N 
ATOM    234  H   ARG A  84    -141.607  28.863 -56.639  0.00  0.00    +0.000 HD
BRANCH 233 235
ATOM    235  CA  ARG A  84    -143.382  29.742 -55.773  0.00  0.00    +0.000 C 
BRANCH 235 236
ATOM    236  C   ARG A  84    -144.545  30.060 -57.038  0.00  0.00    +0.000 C 
ATOM    237  O   ARG A  84    -144.000  29.602 -58.035  0.00  0.00    +0.000 OA
ATOM    238  N   ASN A  85    -145.892  30.630 -57.618  0.00  0.00    +0.000 N 
ATOM    239  H   ASN A  85    -145.511  30.944 -58.703  0.00  0.00    +0.000 HD
BRANCH 238 240
ATOM    240  CA  ASN A  85    -147.500  31.018 -57.814  0.00  0.00    +0.000 C 
BRANCH 240 241
ATOM    241  C   ASN A  85    -148.567  31.576 -59.043  0.00  0.00    +0.000 C 
ATOM    242  O   ASN A  85    -148.000  31.796 -60.125  0.00  0.00    +0.000 OA
ATOM    243  N   VAL A  86    -150.036  31.905 -59.126  0.00  0.00    +0.000 N 
ATOM    244  H   VAL A  86    -150.311  30.830 -58.685  0.00  0.00    +0.000 HD
BRANCH 243 245
ATOM    245  CA  VAL A  86    -151.353  32.636 -59.754  0.00  0.00    +0.000 C 
BRANCH 245 246
ATOM    246  C   VAL A  86    -152.379  32.885 -61.055  0.00  0.00    +0.000 C 
ATOM    247  O   VAL A  86    -151.947  32.558 -62.166  0.00  0.00    +0.000 OA
ATOM    248  N   LEU A  87    -153.817  33.223 -61.021  0.00  0.00    +0.000 N 
ATOM    249  H   LEU A  87    -154.210  32.597 -60.087  0.00  0.00    +0.000 HD
BRANCH 248 250
ATOM    250  CA  LEU A  87    -155.224  33.427 -61.737  0.00  0.00    +0.000 C 
BRANCH 250 251
ATOM    251  C   LEU A  87    -155.883  34.163 -63.035  0.00  0.00    +0.000 C 
ATOM    252  O   LEU A  87    -155.040  34.386 -63.907  0.00  0.00    +0.000 OA
ATOM    253  N   ASP A  88    -157.270  34.346 -63.447  0.00  0.00    +0.000 N 
ATOM    254  H   ASP A  88    -157.804  33.282 -63.442  0.00  0.00    +0.000 HD
BRANCH 253 255
ATOM    255  CA  ASP A  88    -158.135  35.401 -64.192  0.00  0.00    +0.000 C 
BRANCH 255 256
ATOM    256  C   ASP A  88    -159.572  35.009 -64.788  0.00  0.00    +0.000 C 
ATOM    257  O   ASP A  88    -160.007  33.871 -64.586  0.00  0.00    +0.000 OA
ATOM    258  N   GLU A  89    -160.383  35.744 -65.676  0.00  0.00    +0.000 N 
ATOM    259  H   GLU A  89    -159.847  35.680 -66.740  0.00  0.00    +0.000 HD
BRANCH 258 260
ATOM    260  CA  GLU A  89    -161.848  36.138 -65.719  0.00  0.00    +0.000 C 
BRANCH 260 261
ATOM    261  C   GLU A  89    -162.365  36.342 -67.164  0.00  0.00    +0.000 C 
ATOM    262  O   GLU A  89    -163.525  35.908 -67.357  0.00  0.00    +0.000 OA
ATOM    263  OXT GLU A  89    -161.859  37.194 -67.940  0.00  0.00    +0.000 OA
ENDBRANCH 260 261
BRANCH 260 264
ATOM    264  CB  GLU A  89    -162.323  37.511 -65.136  0.00  0.00    +0.000 C 
BRANCH 264 265
ATOM    265  CG  GLU A  89    -163.777  37.892 -65.539  0.00  0.00    +0.000 C 
BRANCH 265 266
ATOM    266  CD  GLU A  89    -164.534  39.163 -65.096  0.00  0.00    +0.000 C 
ATOM    267  OE1 GLU A  89    -165.423  39.554 -65.897  0.00  0.00    +0.000 OA
ATOM    268  OE2 GLU A  89    -164.707  39.319 -63.865  0.00  0.00    +0.000 OA
ENDBRANCH 265 266
ENDBRANCH 264 265
ENDBRANCH 260 264
ENDBRANCH 258 260
ENDBRANCH 255 256
BRANCH 255 269
ATOM    269  CB  ASP A  88    -159.029  36.508 -63.553  0.00  0.00    +0.000 C 
BRANCH 269 270
ATOM    270  CG  ASP A  88    -159.648  36.849 -62.183  0.00  0.00    +0.000 C 
ATOM    271  OD1 ASP A  88    -159.544  36.102 -61.188  0.00  0.00    +0.000 OA
ATOM    272  OD2 ASP A  88    -160.359  37.883 -62.191  0.00  0.00    +0.000 OA
ENDBRANCH 269 270
ENDBRANCH 255 269
ENDBRANCH 253 255
ENDBRANCH 250 251
BRANCH 250 273
ATOM    273  CB  LEU A  87    -155.734  34.856 -61.431  0.00  0.00    +0.000 C 
BRANCH 273 274
ATOM    274  CG  LEU A  87    -155.807  35.626 -60.101  0.00  0.00    +0.000 C 
ATOM    275  CD1 LEU A  87    -156.492  36.978 -60.326  0.00  0.00    +0.000 C 
ATOM    276  CD2 LEU A  87    -156.344  34.862 -58.892  0.00  0.00    +0.000 C 
ENDBRANCH 273 274
ENDBRANCH 250 273
ENDBRANCH 248 250
ENDBRANCH 245 246
BRANCH 245 277
ATOM    277  CB  VAL A  86    -151.324  33.910 -58.890  0.00  0.00    +0.000 C 
ATOM    278  CG1 VAL A  86    -151.944  35.186 -59.485  0.00  0.00    +0.000 C 
ATOM    279  CG2 VAL A  86    -151.801  33.693 -57.458  0.00  0.00    +0.000 C 
ENDBRANCH 245 277
ENDBRANCH 243 245
ENDBRANCH 240 241
BRANCH 240 280
ATOM    280  CB  ASN A  85    -147.946  32.406 -57.283  0.00  0.00    +0.000 C 
BRANCH 280 281
ATOM    281  CG  ASN A  85    -147.596  33.211 -56.036  0.00  0.00    +0.000 C 
ATOM    282  OD1 ASN A  85    -148.407  33.999 -55.529  0.00  0.00    +0.000 OA
ATOM    283  ND2 ASN A  85    -146.415  32.941 -55.530  0.00  0.00    +0.000 N 
ATOM    284 HD21 ASN A  85    -146.138  33.907 -54.877  0.00  0.00    +0.000 HD
ATOM    285 HD22 ASN A  85    -145.541  33.018 -56.344  0.00  0.00    +0.000 HD
ENDBRANCH 280 281
ENDBRANCH 240 280
ENDBRANCH 238 240
ENDBRANCH 235 236
BRANCH 235 286
ATOM    286  CB  ARG A  84    -142.915  31.193 -55.647  0.00  0.00    +0.000 C 
BRANCH 286 287
ATOM    287  CG  ARG A  84    -143.470  31.837 -54.377  0.00  0.00    +0.000 C 
BRANCH 287 288
ATOM    288  CD  ARG A  84    -144.092  30.766 -53.484  0.00  0.00    +0.000 C 
BRANCH 288 289
ATOM    289  NE  ARG A  84    -145.520  30.501 -53.717  0.00  0.00    +0.000 N 
ATOM    290  HE  ARG A  84    -145.758  29.354 -53.933  0.00  0.00    +0.000 HD
ATOM    291  CZ  ARG A  84    -146.555  31.269 -53.321  0.00  0.00    +0.000 C 
ATOM    292  NH1 ARG A  84    -146.335  32.478 -52.781  0.00  0.00    +0.000 N 
ATOM    293 HH11 ARG A  84    -145.494  33.196 -52.338  0.00  0.00    +0.000 HD
ATOM    294 HH12 ARG A  84    -147.270  32.925 -52.173  0.00  0.00    +0.000 HD
ATOM    295  NH2 ARG A  84    -147.806  30.779 -53.346  0.00  0.00    +0.000 N 
ATOM    296 HH21 ARG A  84    -148.199  29.697 -53.676  0.00  0.00    +0.000 HD
ATOM    297 HH22 ARG A  84    -148.785  31.202 -52.822  0.00  0.00    +0.000 HD
ENDBRANCH 288 289
ENDBRANCH 287 288
ENDBRANCH 286 287
ENDBRANCH 235 286
ENDBRANCH 233 235
ENDBRANCH 230 231
BRANCH 230 298
ATOM    298  CB  VAL A  83    -139.140  29.804 -52.686  0.00  0.00    +0.000 C 
ATOM    299  CG1 VAL A  83    -139.971  31.029 -53.080  0.00  0.00    +0.000 C 
ATOM    300  CG2 VAL A  83    -139.270  29.596 -51.175  0.00  0.00    +0.000 C 
ENDBRANCH 230 298
ENDBRANCH 228 230
ENDBRANCH 225 226
ENDBRANCH 218 219
BRANCH 218 301
ATOM    301  CB  LEU A  81    -131.659  26.442 -48.493  0.00  0.00    +0.000 C 
BRANCH 301 302
ATOM    302  CG  LEU A  81    -131.208  27.022 -47.135  0.00  0.00    +0.000 C 
ATOM    303  CD1 LEU A  81    -131.560  28.509 -47.034  0.00  0.00    +0.000 C 
ATOM    304  CD2 LEU A  81    -131.645  26.219 -45.904  0.00  0.00    +0.000 C 
ENDBRANCH 301 302
ENDBRANCH 218 301
ENDBRANCH 216 218
ENDBRANCH 213 214
BRANCH 213 305
ATOM    305  CB  THR A  80    -127.033  25.207 -46.091  0.00  0.00    +0.000 C 
ATOM    306  CG2 THR A  80    -127.871  26.440 -46.427  0.00  0.00    +0.000 C 
BRANCH 305 307
ATOM    307  OG1 THR A  80    -126.957  24.992 -44.699  0.00  0.00    +0.000 OA
ATOM    308  HG1 THR A  80    -126.582  25.998 -44.183  0.00  0.00    +0.000 HD
ENDBRANCH 305 307
ENDBRANCH 213 305
ENDBRANCH 211 213
ENDBRANCH 208 209
BRANCH 208 309
ATOM    309  CB  ASN A  79    -123.352  23.411 -44.514  0.00  0.00    +0.000 C 
BRANCH 309 310
ATOM    310  CG  ASN A  79    -122.768  23.898 -43.195  0.00  0.00    +0.000 C 
ATOM    311  OD1 ASN A  79    -123.516  23.782 -42.224  0.00  0.00    +0.000 OA
ATOM    312  ND2 ASN A  79    -121.873  24.884 -43.245  0.00  0.00    +0.000 N 
ATOM    313 HD21 ASN A  79    -121.273  25.271 -42.293  0.00  0.00    +0.000 HD
ATOM    314 HD22 ASN A  79    -121.799  25.869 -43.921  0.00  0.00    +0.000 HD
ENDBRANCH 309 310
ENDBRANCH 208 309
ENDBRANCH 206 208
ENDBRANCH 203 204
BRANCH 203 315
ATOM    315  CB  HIS A  78    -118.430  21.882 -42.971  0.00  0.00    +0.000 C 
BRANCH 315 316
ATOM    316  CG  HIS A  78    -119.066  22.458 -41.737  0.00  0.00    +0.000 A 
ATOM    317  ND1 HIS A  78    -118.627  23.614 -41.144  0.00  0.00    +0.000 N 
ATOM    318  HD1 HIS A  78    -117.720  24.362 -41.320  0.00  0.00    +0.000 HD
ATOM    319  CE1 HIS A  78    -119.561  23.956 -40.234  0.00  0.00    +0.000 A 
ATOM    320  NE2 HIS A  78    -120.484  22.988 -40.121  0.00  0.00    +0.000 NA
ATOM    321  CD2 HIS A  78    -120.144  21.988 -41.035  0.00  0.00    +0.000 A 
ENDBRANCH 315 316
ENDBRANCH 203 315
ENDBRANCH 201 203
ENDBRANCH 198 199
BRANCH 198 322
ATOM    322  CB  ARG A  77    -114.160  20.495 -40.918  0.00  0.00    +0.000 C 
BRANCH 322 323
ATOM    323  CG  ARG A  77    -114.409  20.906 -39.472  0.00  0.00    +0.000 C 
BRANCH 323 324
ATOM    324  CD  ARG A  77    -115.389  19.911 -38.852  0.00  0.00    +0.000 C 
BRANCH 324 325
ATOM    325  NE  ARG A  77    -116.805  20.208 -39.108  0.00  0.00    +0.000 N 
ATOM    326  HE  ARG A  77    -117.358  19.177 -39.360  0.00  0.00    +0.000 HD
ATOM    327  CZ  ARG A  77    -117.622  20.930 -38.321  0.00  0.00    +0.000 C 
ATOM    328  NH1 ARG A  77    -117.299  22.178 -37.949  0.00  0.00    +0.000 N 
ATOM    329 HH11 ARG A  77    -116.491  22.440 -37.113  0.00  0.00    +0.000 HD
ATOM    330 HH12 ARG A  77    -118.023  23.122 -37.856  0.00  0.00    +0.000 HD
ATOM    331  NH2 ARG A  77    -118.876  20.506 -38.108  0.00  0.00    +0.000 N 
ATOM    332 HH21 ARG A  77    -119.977  20.956 -38.063  0.00  0.00    +0.000 HD
ATOM    333 HH22 ARG A  77    -119.015  19.587 -37.354  0.00  0.00    +0.000 HD
ENDBRANCH 324 325
ENDBRANCH 323 324
ENDBRANCH 322 323
ENDBRANCH 198 322
ENDBRANCH 196 198
ENDBRANCH 193 194
BRANCH 193 334
ATOM    334  CB  TYR A  76    -110.240  19.106 -38.956  0.00  0.00    +0.000 C 
BRANCH 334 335
ATOM    335  CG  TYR A  76    -110.880  19.623 -37.675  0.00  0.00    +0.000 A 
ATOM    336  CD1 TYR A  76    -110.521  20.774 -36.924  0.00  0.00    +0.000 A 
ATOM    337  CE1 TYR A  76    -111.180  20.982 -35.692  0.00  0.00    +0.000 A 
ATOM    338  CZ  TYR A  76    -111.697  19.859 -35.008  0.00  0.00    +0.000 A 
ATOM    339  CE2 TYR A  76    -112.317  18.886 -35.818  0.00  0.00    +0.000 A 
ATOM    340  CD2 TYR A  76    -111.929  18.828 -37.170  0.00  0.00    +0.000 A 
BRANCH 338 341
ATOM    341  OH  TYR A  76    -111.595  19.692 -33.646  0.00  0.00    +0.000 OA
ATOM    342  HH  TYR A  76    -111.549  20.763 -33.135  0.00  0.00    +0.000 HD
ENDBRANCH 338 341
ENDBRANCH 334 335
ENDBRANCH 193 334
ENDBRANCH 191 193
ENDBRANCH 188 189
BRANCH 188 343
ATOM    343  CB  GLU A  75    -106.271  17.402 -36.273  0.00  0.00    +0.000 C 
BRANCH 343 344
ATOM    344  CG  GLU A  75    -107.247  17.644 -35.122  0.00  0.00    +0.000 C 
BRANCH 344 345
ATOM    345  CD  GLU A  75    -107.259  19.087 -34.624  0.00  0.00    +0.000 C 
ATOM    346  OE1 GLU A  75    -107.617  19.979 -35.430  0.00  0.00    +0.000 OA
ATOM    347  OE2 GLU A  75    -107.291  19.225 -33.379  0.00  0.00    +0.000 OA
ENDBRANCH 344 345
ENDBRANCH 343 344
ENDBRANCH 188 343
ENDBRANCH 186 188
ENDBRANCH 183 184
BRANCH 183 348
ATOM    348  CB  ILE A  74    -102.192  16.237 -33.892  0.00  0.00    +0.000 C 
ATOM    349  CG2 ILE A  74    -103.178  17.280 -34.381  0.00  0.00    +0.000 C 
BRANCH 348 350
ATOM    350  CG1 ILE A  74    -102.358  16.138 -32.367  0.00  0.00    +0.000 C 
ATOM    351  CD1 ILE A  74    -102.499  17.486 -31.678  0.00  0.00    +0.000 C 
ENDBRANCH 348 350
ENDBRANCH 183 348
ENDBRANCH 181 183
ENDBRANCH   1 179
BRANCH   1 352
ATOM    352  CB  LYS A  73     -98.138  14.520 -32.054  0.00  0.00    +0.000 C 
BRANCH 352 353
ATOM    353  CG  LYS A  73     -98.857  14.809 -30.725  0.00  0.00    +0.000 C 
BRANCH 353 354
ATOM    354  CD  LYS A  73     -98.768  16.289 -30.354  0.00  0.00    +0.000 C 
BRANCH 354 355
ATOM    355  CE  LYS A  73     -99.535  16.556 -29.060  0.00  0.00    +0.000 C 
BRANCH 355 356
ATOM    356  NZ  LYS A  73    -100.970  16.765 -29.321  0.00  0.00    +0.000 N 
ATOM    357  HZ1 LYS A  73    -101.096  17.953 -29.474  0.00  0.00    +0.000 HD
ATOM    358  HZ2 LYS A  73    -101.559  15.780 -29.683  0.00  0.00    +0.000 HD
ATOM    359  HZ3 LYS A  73    -101.525  16.791 -28.251  0.00  0.00    +0.000 HD
ENDBRANCH 355 356
ENDBRANCH 354 355
ENDBRANCH 353 354
ENDBRANCH 352 353
ENDBRANCH   1 352
TORSDOF 137
