REMARK  Name = /Users/acegid/Desktop/Smoking_Research/Docking/Docking_All_PDB/All_PDB/2KQE_H.pdb
REMARK  372 active torsions:
REMARK  status: ('A' for Active; 'I' for Inactive)
REMARK    1  A    between atoms: N_1  and  CA_5
REMARK    2  A    between atoms: CA_5  and  C_8
REMARK    3  A    between atoms: CA_20  and  C_22
REMARK    4  A    between atoms: N_24  and  CA_26
REMARK    5  A    between atoms: CA_26  and  CB_28
REMARK    6  A    between atoms: CA_26  and  C_41
REMARK    7  A    between atoms: CB_28  and  CG_31
REMARK    8  A    between atoms: CG_31  and  CD1_33
REMARK    9  A    between atoms: CG_31  and  CD2_37
REMARK   10  A    between atoms: N_43  and  CA_45
REMARK   11  A    between atoms: CA_45  and  C_48
REMARK   12  A    between atoms: N_50  and  CA_52
REMARK   13  A    between atoms: CA_52  and  CB_54
REMARK   14  A    between atoms: CA_52  and  C_59
REMARK   15  A    between atoms: CB_54  and  OG_57
REMARK   16  A    between atoms: N_61  and  CA_63
REMARK   17  A    between atoms: CA_63  and  C_66
REMARK   18  A    between atoms: N_68  and  CA_70
REMARK   19  A    between atoms: CA_70  and  CB_72
REMARK   20  A    between atoms: CA_70  and  C_77
REMARK   21  A    between atoms: CB_72  and  OG_75
REMARK   22  A    between atoms: N_79  and  CA_81
REMARK   23  A    between atoms: CA_81  and  CB_83
REMARK   24  A    between atoms: CA_81  and  C_92
REMARK   25  A    between atoms: CB_83  and  CG_86
REMARK   26  A    between atoms: CG_86  and  CD_89
REMARK   27  A    between atoms: N_94  and  CA_96
REMARK   28  A    between atoms: CA_96  and  C_99
REMARK   29  A    between atoms: N_101  and  CA_103
REMARK   30  A    between atoms: CA_103  and  CB_105
REMARK   31  A    between atoms: CA_103  and  C_113
REMARK   32  A    between atoms: CB_105  and  CG_108
REMARK   33  A    between atoms: N_115  and  CA_117
REMARK   34  A    between atoms: CA_117  and  CB_119
REMARK   35  A    between atoms: CA_117  and  C_135
REMARK   36  A    between atoms: CB_119  and  CG_122
REMARK   37  A    between atoms: CG_122  and  CD_125
REMARK   38  A    between atoms: CD_125  and  CE_128
REMARK   39  A    between atoms: CE_128  and  NZ_131
REMARK   40  A    between atoms: N_137  and  CA_139
REMARK   41  A    between atoms: CA_139  and  CB_141
REMARK   42  A    between atoms: CA_139  and  C_151
REMARK   43  A    between atoms: CB_141  and  CG1_143
REMARK   44  A    between atoms: CB_141  and  CG2_147
REMARK   45  A    between atoms: N_153  and  CA_155
REMARK   46  A    between atoms: CA_155  and  CB_157
REMARK   47  A    between atoms: CA_155  and  C_173
REMARK   48  A    between atoms: CB_157  and  CG_160
REMARK   49  A    between atoms: CG_160  and  CD_163
REMARK   50  A    between atoms: CD_163  and  CE_166
REMARK   51  A    between atoms: CE_166  and  NZ_169
REMARK   52  A    between atoms: N_175  and  CA_177
REMARK   53  A    between atoms: CA_177  and  CB_179
REMARK   54  A    between atoms: CA_177  and  C_197
REMARK   55  A    between atoms: CB_179  and  CG_182
REMARK   56  A    between atoms: CG_182  and  CD_185
REMARK   57  A    between atoms: CD_185  and  NE_188
REMARK   58  A    between atoms: N_199  and  CA_201
REMARK   59  A    between atoms: CA_201  and  CB_203
REMARK   60  A    between atoms: CA_201  and  C_211
REMARK   61  A    between atoms: CB_203  and  CG2_205
REMARK   62  A    between atoms: CB_203  and  OG1_209
REMARK   63  A    between atoms: N_213  and  CA_215
REMARK   64  A    between atoms: CA_215  and  CB_217
REMARK   65  A    between atoms: CA_215  and  C_222
REMARK   66  A    between atoms: CB_217  and  OG_220
REMARK   67  A    between atoms: N_224  and  CA_226
REMARK   68  A    between atoms: CA_226  and  CB_228
REMARK   69  A    between atoms: CA_226  and  C_233
REMARK   70  A    between atoms: CB_228  and  SG_231
REMARK   71  A    between atoms: N_235  and  CA_237
REMARK   72  A    between atoms: CA_237  and  CB_239
REMARK   73  A    between atoms: CA_237  and  C_250
REMARK   74  A    between atoms: CB_239  and  CG_242
REMARK   75  A    between atoms: CG_242  and  SD_245
REMARK   76  A    between atoms: SD_245  and  CE_246
REMARK   77  A    between atoms: N_252  and  CA_254
REMARK   78  A    between atoms: CA_254  and  CB_256
REMARK   79  A    between atoms: CA_254  and  C_271
REMARK   80  A    between atoms: CB_256  and  CG_259
REMARK   81  A    between atoms: CZ_264  and  OH_265
REMARK   82  A    between atoms: N_273  and  CA_275
REMARK   83  A    between atoms: CA_275  and  C_278
REMARK   84  A    between atoms: N_280  and  CA_282
REMARK   85  A    between atoms: CA_282  and  CB_284
REMARK   86  A    between atoms: CA_282  and  C_288
REMARK   87  A    between atoms: N_290  and  CA_292
REMARK   88  A    between atoms: CA_292  and  CB_294
REMARK   89  A    between atoms: CA_292  and  C_302
REMARK   90  A    between atoms: CB_294  and  CG_297
REMARK   91  A    between atoms: N_304  and  CA_306
REMARK   92  A    between atoms: CA_306  and  CB_308
REMARK   93  A    between atoms: CA_306  and  C_313
REMARK   94  A    between atoms: CB_308  and  SG_311
REMARK   95  A    between atoms: N_315  and  CA_317
REMARK   96  A    between atoms: CA_317  and  CB_319
REMARK   97  A    between atoms: CA_317  and  C_334
REMARK   98  A    between atoms: CB_319  and  CG_322
REMARK   99  A    between atoms: CZ_327  and  OH_328
REMARK  100  A    between atoms: N_336  and  CA_338
REMARK  101  A    between atoms: CA_338  and  CB_340
REMARK  102  A    between atoms: CA_338  and  C_358
REMARK  103  A    between atoms: CB_340  and  CG_343
REMARK  104  A    between atoms: CG_343  and  CD_346
REMARK  105  A    between atoms: CD_346  and  NE_349
REMARK  106  A    between atoms: N_360  and  CA_362
REMARK  107  A    between atoms: CA_362  and  CB_364
REMARK  108  A    between atoms: CA_362  and  C_380
REMARK  109  A    between atoms: CB_364  and  CG_367
REMARK  110  A    between atoms: CG_367  and  CD_370
REMARK  111  A    between atoms: CD_370  and  CE_373
REMARK  112  A    between atoms: CE_373  and  NZ_376
REMARK  113  A    between atoms: N_382  and  CA_384
REMARK  114  A    between atoms: CA_384  and  CB_386
REMARK  115  A    between atoms: CA_384  and  C_394
REMARK  116  A    between atoms: CB_386  and  CG_389
REMARK  117  A    between atoms: CA_406  and  C_408
REMARK  118  A    between atoms: N_410  and  CA_412
REMARK  119  A    between atoms: CA_412  and  CB_414
REMARK  120  A    between atoms: CA_412  and  C_424
REMARK  121  A    between atoms: CB_414  and  CG1_416
REMARK  122  A    between atoms: CB_414  and  CG2_420
REMARK  123  A    between atoms: N_426  and  CA_428
REMARK  124  A    between atoms: CA_428  and  CB_430
REMARK  125  A    between atoms: CA_428  and  C_441
REMARK  126  A    between atoms: CB_430  and  CG_433
REMARK  127  A    between atoms: N_443  and  CA_445
REMARK  128  A    between atoms: CA_445  and  CB_447
REMARK  129  A    between atoms: CA_445  and  C_461
REMARK  130  A    between atoms: CB_447  and  CG_450
REMARK  131  A    between atoms: N_463  and  CA_465
REMARK  132  A    between atoms: CA_465  and  CB_467
REMARK  133  A    between atoms: CA_465  and  C_478
REMARK  134  A    between atoms: CB_467  and  CG_470
REMARK  135  A    between atoms: CG_470  and  CD_473
REMARK  136  A    between atoms: N_480  and  CA_482
REMARK  137  A    between atoms: CA_482  and  CB_484
REMARK  138  A    between atoms: CA_482  and  C_495
REMARK  139  A    between atoms: CB_484  and  CG_487
REMARK  140  A    between atoms: N_497  and  CA_499
REMARK  141  A    between atoms: CA_499  and  CB_501
REMARK  142  A    between atoms: CA_499  and  C_515
REMARK  143  A    between atoms: CB_501  and  CG_504
REMARK  144  A    between atoms: N_517  and  CA_519
REMARK  145  A    between atoms: CA_519  and  CB_521
REMARK  146  A    between atoms: CA_519  and  C_526
REMARK  147  A    between atoms: CB_521  and  OG_524
REMARK  148  A    between atoms: N_528  and  CA_530
REMARK  149  A    between atoms: CA_530  and  CB_532
REMARK  150  A    between atoms: CA_530  and  C_543
REMARK  151  A    between atoms: CB_532  and  CG_535
REMARK  152  A    between atoms: CA_555  and  C_557
REMARK  153  A    between atoms: N_559  and  CA_561
REMARK  154  A    between atoms: CA_561  and  C_564
REMARK  155  A    between atoms: N_566  and  CA_568
REMARK  156  A    between atoms: CA_568  and  CB_570
REMARK  157  A    between atoms: CA_568  and  C_576
REMARK  158  A    between atoms: CB_570  and  CG_573
REMARK  159  A    between atoms: N_578  and  CA_580
REMARK  160  A    between atoms: CA_580  and  CB_582
REMARK  161  A    between atoms: CA_580  and  C_587
REMARK  162  A    between atoms: CB_582  and  OG_585
REMARK  163  A    between atoms: N_589  and  CA_591
REMARK  164  A    between atoms: CA_591  and  CB_593
REMARK  165  A    between atoms: CA_591  and  C_599
REMARK  166  A    between atoms: CB_593  and  CG_596
REMARK  167  A    between atoms: CA_603  and  CB_605
REMARK  168  A    between atoms: CB_605  and  CG_608
REMARK  169  A    between atoms: CZ_613  and  OH_614
REMARK  170  A    between atoms: N_622  and  CA_623
REMARK  171  A    between atoms: CA_623  and  C_624
REMARK  172  A    between atoms: N_629  and  CA_630
REMARK  173  A    between atoms: CA_630  and  C_631
REMARK  174  A    between atoms: N_636  and  CA_637
REMARK  175  A    between atoms: CA_637  and  C_638
REMARK  176  A    between atoms: CA_637  and  CB_640
REMARK  177  A    between atoms: CB_640  and  CG1_641
REMARK  178  A    between atoms: CB_640  and  CG2_642
REMARK  179  A    between atoms: N_652  and  CA_653
REMARK  180  A    between atoms: CA_653  and  C_654
REMARK  181  A    between atoms: CA_653  and  CB_656
REMARK  182  A    between atoms: CB_656  and  CG_657
REMARK  183  A    between atoms: CG_657  and  CD_658
REMARK  184  A    between atoms: N_669  and  CA_670
REMARK  185  A    between atoms: CA_670  and  C_671
REMARK  186  A    between atoms: CA_670  and  CB_673
REMARK  187  A    between atoms: CB_673  and  CG1_674
REMARK  188  A    between atoms: CB_673  and  CG2_675
REMARK  189  A    between atoms: CG1_674  and  CD1_676
REMARK  190  A    between atoms: N_688  and  CA_689
REMARK  191  A    between atoms: CA_689  and  C_690
REMARK  192  A    between atoms: CA_689  and  CB_692
REMARK  193  A    between atoms: CB_692  and  CG1_693
REMARK  194  A    between atoms: CB_692  and  CG2_694
REMARK  195  A    between atoms: N_704  and  CA_705
REMARK  196  A    between atoms: CA_705  and  C_706
REMARK  197  A    between atoms: N_711  and  CA_712
REMARK  198  A    between atoms: CA_712  and  C_713
REMARK  199  A    between atoms: CA_712  and  CB_715
REMARK  200  A    between atoms: CB_715  and  CG_716
REMARK  201  A    between atoms: CG_716  and  CD_717
REMARK  202  A    between atoms: N_728  and  CA_729
REMARK  203  A    between atoms: CA_729  and  C_730
REMARK  204  A    between atoms: CA_729  and  CB_732
REMARK  205  A    between atoms: CB_732  and  CG_733
REMARK  206  A    between atoms: N_740  and  CA_741
REMARK  207  A    between atoms: CA_741  and  C_742
REMARK  208  A    between atoms: CA_741  and  CB_744
REMARK  209  A    between atoms: CB_744  and  CG_745
REMARK  210  A    between atoms: CG_745  and  CD_746
REMARK  211  A    between atoms: N_755  and  CA_756
REMARK  212  A    between atoms: CA_756  and  C_757
REMARK  213  A    between atoms: CA_756  and  CB_759
REMARK  214  A    between atoms: CB_759  and  OG1_760
REMARK  215  A    between atoms: CB_759  and  CG2_761
REMARK  216  A    between atoms: N_769  and  CA_770
REMARK  217  A    between atoms: CA_770  and  C_771
REMARK  218  A    between atoms: CA_770  and  CB_773
REMARK  219  A    between atoms: CB_773  and  CG_774
REMARK  220  A    between atoms: N_781  and  CA_782
REMARK  221  A    between atoms: CA_782  and  C_783
REMARK  222  A    between atoms: CA_782  and  CB_785
REMARK  223  A    between atoms: CB_785  and  CG_786
REMARK  224  A    between atoms: N_793  and  CA_794
REMARK  225  A    between atoms: CA_794  and  C_795
REMARK  226  A    between atoms: CA_794  and  CB_797
REMARK  227  A    between atoms: CB_797  and  CG_798
REMARK  228  A    between atoms: CG_798  and  CD_799
REMARK  229  A    between atoms: CD_799  and  NE_800
REMARK  230  A    between atoms: CA_818  and  C_819
REMARK  231  A    between atoms: N_831  and  CA_832
REMARK  232  A    between atoms: CA_832  and  C_833
REMARK  233  A    between atoms: CA_832  and  CB_835
REMARK  234  A    between atoms: CB_835  and  CG_836
REMARK  235  A    between atoms: CG_836  and  CD_837
REMARK  236  A    between atoms: N_846  and  CA_847
REMARK  237  A    between atoms: CA_847  and  C_848
REMARK  238  A    between atoms: CA_847  and  CB_850
REMARK  239  A    between atoms: CB_850  and  SG_851
REMARK  240  A    between atoms: CA_858  and  C_859
REMARK  241  A    between atoms: N_871  and  CA_872
REMARK  242  A    between atoms: CA_872  and  C_873
REMARK  243  A    between atoms: CA_872  and  CB_875
REMARK  244  A    between atoms: CB_875  and  CG_876
REMARK  245  A    between atoms: CZ_881  and  OH_882
REMARK  246  A    between atoms: N_892  and  CA_893
REMARK  247  A    between atoms: CA_893  and  C_894
REMARK  248  A    between atoms: CA_900  and  C_901
REMARK  249  A    between atoms: N_913  and  CA_914
REMARK  250  A    between atoms: CA_914  and  C_915
REMARK  251  A    between atoms: CA_914  and  CB_917
REMARK  252  A    between atoms: CB_917  and  OG_918
REMARK  253  A    between atoms: N_924  and  CA_925
REMARK  254  A    between atoms: CA_925  and  C_926
REMARK  255  A    between atoms: CA_925  and  CB_928
REMARK  256  A    between atoms: CB_928  and  SG_929
REMARK  257  A    between atoms: N_935  and  CA_936
REMARK  258  A    between atoms: CA_936  and  C_937
REMARK  259  A    between atoms: CA_936  and  CB_939
REMARK  260  A    between atoms: CB_939  and  CG_940
REMARK  261  A    between atoms: CZ_945  and  OH_946
REMARK  262  A    between atoms: N_956  and  CA_957
REMARK  263  A    between atoms: CA_957  and  C_958
REMARK  264  A    between atoms: CA_957  and  CB_960
REMARK  265  A    between atoms: CB_960  and  CG_961
REMARK  266  A    between atoms: CG_961  and  CD_962
REMARK  267  A    between atoms: CD_962  and  NE_963
REMARK  268  A    between atoms: N_980  and  CA_981
REMARK  269  A    between atoms: CA_981  and  C_982
REMARK  270  A    between atoms: CA_981  and  CB_984
REMARK  271  A    between atoms: CB_984  and  CG_985
REMARK  272  A    between atoms: CG_985  and  CD_986
REMARK  273  A    between atoms: CD_986  and  CE_987
REMARK  274  A    between atoms: CE_987  and  NZ_988
REMARK  275  A    between atoms: N_1002  and  CA_1003
REMARK  276  A    between atoms: CA_1003  and  C_1004
REMARK  277  A    between atoms: CA_1003  and  CB_1006
REMARK  278  A    between atoms: CB_1006  and  CG_1007
REMARK  279  A    between atoms: CA_1017  and  C_1018
REMARK  280  A    between atoms: N_1030  and  CA_1031
REMARK  281  A    between atoms: CA_1031  and  C_1032
REMARK  282  A    between atoms: CA_1031  and  CB_1034
REMARK  283  A    between atoms: CB_1034  and  CG_1035
REMARK  284  A    between atoms: CG_1035  and  CD_1036
REMARK  285  A    between atoms: N_1047  and  CA_1048
REMARK  286  A    between atoms: CA_1048  and  C_1049
REMARK  287  A    between atoms: CA_1048  and  CB_1051
REMARK  288  A    between atoms: CB_1051  and  CG_1052
REMARK  289  A    between atoms: N_1064  and  CA_1065
REMARK  290  A    between atoms: CA_1065  and  C_1066
REMARK  291  A    between atoms: CA_1065  and  CB_1068
REMARK  292  A    between atoms: CB_1068  and  CG_1069
REMARK  293  A    between atoms: CG_1069  and  CD_1070
REMARK  294  A    between atoms: CD_1070  and  CE_1071
REMARK  295  A    between atoms: CE_1071  and  NZ_1072
REMARK  296  A    between atoms: N_1086  and  CA_1087
REMARK  297  A    between atoms: CA_1087  and  C_1088
REMARK  298  A    between atoms: CA_1087  and  CB_1090
REMARK  299  A    between atoms: CB_1090  and  CG1_1091
REMARK  300  A    between atoms: CB_1090  and  CG2_1092
REMARK  301  A    between atoms: CG1_1091  and  CD1_1093
REMARK  302  A    between atoms: N_1105  and  CA_1106
REMARK  303  A    between atoms: CA_1106  and  C_1107
REMARK  304  A    between atoms: CA_1106  and  CB_1109
REMARK  305  A    between atoms: CB_1109  and  CG_1110
REMARK  306  A    between atoms: CG_1110  and  CD_1111
REMARK  307  A    between atoms: N_1120  and  CA_1121
REMARK  308  A    between atoms: CA_1121  and  C_1122
REMARK  309  A    between atoms: CA_1121  and  CB_1124
REMARK  310  A    between atoms: CB_1124  and  CG_1125
REMARK  311  A    between atoms: CZ_1130  and  OH_1131
REMARK  312  A    between atoms: N_1141  and  CA_1142
REMARK  313  A    between atoms: CA_1142  and  C_1143
REMARK  314  A    between atoms: CA_1142  and  CB_1145
REMARK  315  A    between atoms: CB_1145  and  CG_1146
REMARK  316  A    between atoms: CG_1146  and  CD_1147
REMARK  317  A    between atoms: CD_1147  and  NE_1148
REMARK  318  A    between atoms: N_1165  and  CA_1166
REMARK  319  A    between atoms: CA_1166  and  C_1167
REMARK  320  A    between atoms: CA_1166  and  CB_1169
REMARK  321  A    between atoms: CB_1169  and  CG_1170
REMARK  322  A    between atoms: N_1182  and  CA_1183
REMARK  323  A    between atoms: CA_1183  and  C_1184
REMARK  324  A    between atoms: CA_1183  and  CB_1186
REMARK  325  A    between atoms: CB_1186  and  CG_1187
REMARK  326  A    between atoms: N_1196  and  CA_1197
REMARK  327  A    between atoms: CA_1197  and  C_1198
REMARK  328  A    between atoms: CA_1197  and  CB_1200
REMARK  329  A    between atoms: CB_1200  and  OG1_1201
REMARK  330  A    between atoms: CB_1200  and  CG2_1202
REMARK  331  A    between atoms: N_1210  and  CA_1211
REMARK  332  A    between atoms: CA_1211  and  C_1212
REMARK  333  A    between atoms: CA_1211  and  CB_1214
REMARK  334  A    between atoms: CB_1214  and  CG_1215
REMARK  335  A    between atoms: CG_1215  and  CD1_1216
REMARK  336  A    between atoms: CG_1215  and  CD2_1217
REMARK  337  A    between atoms: CA_1230  and  C_1231
REMARK  338  A    between atoms: N_1243  and  CA_1244
REMARK  339  A    between atoms: CA_1244  and  C_1245
REMARK  340  A    between atoms: CA_1244  and  CB_1247
REMARK  341  A    between atoms: CB_1247  and  CG1_1248
REMARK  342  A    between atoms: CB_1247  and  CG2_1249
REMARK  343  A    between atoms: N_1259  and  CA_1260
REMARK  344  A    between atoms: CA_1260  and  C_1261
REMARK  345  A    between atoms: CA_1260  and  CB_1263
REMARK  346  A    between atoms: CB_1263  and  CG_1264
REMARK  347  A    between atoms: CG_1264  and  CD_1265
REMARK  348  A    between atoms: CD_1265  and  NE_1266
REMARK  349  A    between atoms: N_1283  and  CA_1284
REMARK  350  A    between atoms: CA_1284  and  C_1285
REMARK  351  A    between atoms: CA_1284  and  CB_1287
REMARK  352  A    between atoms: CB_1287  and  CG_1288
REMARK  353  A    between atoms: N_1297  and  CA_1298
REMARK  354  A    between atoms: CA_1298  and  C_1299
REMARK  355  A    between atoms: CA_1298  and  CB_1301
REMARK  356  A    between atoms: CB_1301  and  CG1_1302
REMARK  357  A    between atoms: CB_1301  and  CG2_1303
REMARK  358  A    between atoms: N_1313  and  CA_1314
REMARK  359  A    between atoms: CA_1314  and  C_1315
REMARK  360  A    between atoms: CA_1314  and  CB_1317
REMARK  361  A    between atoms: CB_1317  and  CG_1318
REMARK  362  A    between atoms: CG_1318  and  CD1_1319
REMARK  363  A    between atoms: CG_1318  and  CD2_1320
REMARK  364  A    between atoms: N_1332  and  CA_1333
REMARK  365  A    between atoms: CA_1333  and  C_1334
REMARK  366  A    between atoms: CA_1333  and  CB_1336
REMARK  367  A    between atoms: CB_1336  and  CG_1337
REMARK  368  A    between atoms: N_1344  and  CA_1345
REMARK  369  A    between atoms: CA_1345  and  C_1346
REMARK  370  A    between atoms: CA_1345  and  CB_1348
REMARK  371  A    between atoms: CB_1348  and  CG_1349
REMARK  372  A    between atoms: CG_1349  and  CD_1350
REMARK                            x       y       z     vdW  Elec       q    Type
REMARK                         _______ _______ _______ _____ _____    ______ ____
ROOT
ATOM      1  CA  CYS A  23     -86.309  39.393 -75.663  0.00  0.00    +0.000 C 
ENDROOT
BRANCH   1   2
ATOM      2  C   CYS A  23     -84.809  38.885 -74.826  0.00  0.00    +0.000 C 
ATOM      3  O   CYS A  23     -83.876  39.235 -75.544  0.00  0.00    +0.000 OA
ATOM      4  N   TYR A  24     -84.146  38.128 -73.578  0.00  0.00    +0.000 N 
ATOM      5  H   TYR A  24     -84.895  37.222 -73.400  0.00  0.00    +0.000 HD
BRANCH   4   6
ATOM      6  CA  TYR A  24     -82.696  37.622 -72.833  0.00  0.00    +0.000 C 
BRANCH   6   7
ATOM      7  C   TYR A  24     -81.468  36.914 -71.727  0.00  0.00    +0.000 C 
ATOM      8  O   TYR A  24     -80.425  37.256 -72.278  0.00  0.00    +0.000 OA
ATOM      9  N   ARG A  25     -80.981  36.149 -70.417  0.00  0.00    +0.000 N 
ATOM     10  H   ARG A  25     -82.013  35.570 -70.295  0.00  0.00    +0.000 HD
BRANCH   9  11
ATOM     11  CA  ARG A  25     -79.931  35.526 -69.194  0.00  0.00    +0.000 C 
BRANCH  11  12
ATOM     12  C   ARG A  25     -78.580  34.535 -68.596  0.00  0.00    +0.000 C 
ATOM     13  O   ARG A  25     -77.890  34.192 -69.554  0.00  0.00    +0.000 OA
ATOM     14  N   LYS A  26     -78.106  33.763 -67.291  0.00  0.00    +0.000 N 
ATOM     15  H   LYS A  26     -79.012  32.996 -67.391  0.00  0.00    +0.000 HD
BRANCH  14  16
ATOM     16  CA  LYS A  26     -77.120  33.142 -66.036  0.00  0.00    +0.000 C 
BRANCH  16  17
ATOM     17  C   LYS A  26     -75.763  32.192 -65.381  0.00  0.00    +0.000 C 
ATOM     18  O   LYS A  26     -75.180  31.883 -66.395  0.00  0.00    +0.000 OA
ATOM     19  N   ASN A  27     -75.160  31.364 -64.135  0.00  0.00    +0.000 N 
ATOM     20  H   ASN A  27     -76.061  30.649 -63.837  0.00  0.00    +0.000 HD
BRANCH  19  21
ATOM     21  CA  ASN A  27     -73.833  30.726 -63.246  0.00  0.00    +0.000 C 
BRANCH  21  22
ATOM     22  C   ASN A  27     -73.391  29.581 -61.960  0.00  0.00    +0.000 C 
ATOM     23  O   ASN A  27     -74.204  28.665 -62.156  0.00  0.00    +0.000 OA
ATOM     24  N   PRO A  28     -72.275  28.987 -60.963  0.00  0.00    +0.000 N 
ATOM     25  CD  PRO A  28     -73.320  28.743 -59.974  0.00  0.00    +0.000 C 
ATOM     26  CG  PRO A  28     -73.063  29.895 -59.022  0.00  0.00    +0.000 C 
ATOM     27  CB  PRO A  28     -71.578  29.509 -58.883  0.00  0.00    +0.000 C 
ATOM     28  CA  PRO A  28     -71.439  28.192 -59.677  0.00  0.00    +0.000 C 
BRANCH  28  29
ATOM     29  C   PRO A  28     -69.913  27.560 -58.965  0.00  0.00    +0.000 C 
ATOM     30  O   PRO A  28     -69.215  27.224 -59.916  0.00  0.00    +0.000 OA
ATOM     31  N   VAL A  29     -69.219  27.055 -57.619  0.00  0.00    +0.000 N 
ATOM     32  H   VAL A  29     -70.232  26.593 -57.198  0.00  0.00    +0.000 HD
BRANCH  31  33
ATOM     33  CA  VAL A  29     -67.993  26.459 -56.574  0.00  0.00    +0.000 C 
BRANCH  33  34
ATOM     34  C   VAL A  29     -66.746  25.381 -55.893  0.00  0.00    +0.000 C 
ATOM     35  O   VAL A  29     -66.394  24.626 -56.799  0.00  0.00    +0.000 OA
ATOM     36  N   HIS A  30     -65.940  25.069 -54.538  0.00  0.00    +0.000 N 
ATOM     37  H   HIS A  30     -66.884  25.162 -53.821  0.00  0.00    +0.000 HD
BRANCH  36  38
ATOM     38  CA  HIS A  30     -64.865  24.360 -53.391  0.00  0.00    +0.000 C 
BRANCH  38  39
ATOM     39  C   HIS A  30     -63.414  23.833 -52.492  0.00  0.00    +0.000 C 
ATOM     40  O   HIS A  30     -62.495  23.800 -53.317  0.00  0.00    +0.000 OA
ATOM     41  N   PHE A  31     -62.802  22.964 -51.308  0.00  0.00    +0.000 N 
ATOM     42  H   PHE A  31     -63.517  22.030 -51.150  0.00  0.00    +0.000 HD
BRANCH  41  43
ATOM     43  CA  PHE A  31     -61.403  22.601 -50.382  0.00  0.00    +0.000 C 
BRANCH  43  44
ATOM     44  C   PHE A  31     -60.695  21.467 -49.206  0.00  0.00    +0.000 C 
ATOM     45  O   PHE A  31     -61.553  20.589 -49.019  0.00  0.00    +0.000 OA
ATOM     46  N   GLN A  32     -59.420  21.084 -48.317  0.00  0.00    +0.000 N 
ATOM     47  H   GLN A  32     -58.676  20.767 -49.188  0.00  0.00    +0.000 HD
BRANCH  46  48
ATOM     48  CA  GLN A  32     -58.653  20.565 -46.878  0.00  0.00    +0.000 C 
BRANCH  48  49
ATOM     49  C   GLN A  32     -57.103  19.908 -46.274  0.00  0.00    +0.000 C 
ATOM     50  O   GLN A  32     -56.490  19.612 -47.298  0.00  0.00    +0.000 OA
ATOM     51  N   HIS A  33     -56.065  19.542 -45.089  0.00  0.00    +0.000 N 
ATOM     52  H   HIS A  33     -56.470  20.327 -44.299  0.00  0.00    +0.000 HD
BRANCH  51  53
ATOM     53  CA  HIS A  33     -54.885  18.807 -44.061  0.00  0.00    +0.000 C 
BRANCH  53  54
ATOM     54  C   HIS A  33     -53.859  17.868 -42.909  0.00  0.00    +0.000 C 
ATOM     55  O   HIS A  33     -52.744  18.037 -43.415  0.00  0.00    +0.000 OA
ATOM     56  N   PHE A  34     -53.404  16.810 -41.810  0.00  0.00    +0.000 N 
ATOM     57  H   PHE A  34     -54.287  16.043 -42.018  0.00  0.00    +0.000 HD
BRANCH  56  58
ATOM     58  CA  PHE A  34     -52.369  16.133 -40.588  0.00  0.00    +0.000 C 
BRANCH  58  59
ATOM     59  C   PHE A  34     -50.835  15.485 -39.947  0.00  0.00    +0.000 C 
ATOM     60  O   PHE A  34     -50.040  15.995 -40.719  0.00  0.00    +0.000 OA
ATOM     61  N   SER A  35     -50.153  14.462 -38.896  0.00  0.00    +0.000 N 
ATOM     62  H   SER A  35     -50.534  13.471 -39.433  0.00  0.00    +0.000 HD
BRANCH  61  63
ATOM     63  CA  SER A  35     -49.064  13.697 -37.778  0.00  0.00    +0.000 C 
BRANCH  63  64
ATOM     64  C   SER A  35     -48.050  13.199 -36.369  0.00  0.00    +0.000 C 
ATOM     65  O   SER A  35     -48.921  12.933 -35.541  0.00  0.00    +0.000 OA
ATOM     66  N   HIS A  36     -46.831  12.343 -35.759  0.00  0.00    +0.000 N 
ATOM     67  H   HIS A  36     -46.650  11.481 -36.556  0.00  0.00    +0.000 HD
BRANCH  66  68
ATOM     68  CA  HIS A  36     -45.850  11.956 -34.390  0.00  0.00    +0.000 C 
BRANCH  68  69
ATOM     69  C   HIS A  36     -44.641  10.879 -33.639  0.00  0.00    +0.000 C 
ATOM     70  O   HIS A  36     -44.413   9.937 -34.397  0.00  0.00    +0.000 OA
ATOM     71  N   PRO A  37     -43.674  10.723 -32.383  0.00  0.00    +0.000 N 
ATOM     72  CD  PRO A  37     -43.273  12.059 -31.973  0.00  0.00    +0.000 C 
ATOM     73  CG  PRO A  37     -41.865  12.136 -32.556  0.00  0.00    +0.000 C 
ATOM     74  CB  PRO A  37     -41.285  10.822 -32.013  0.00  0.00    +0.000 C 
ATOM     75  CA  PRO A  37     -42.444  10.003 -31.402  0.00  0.00    +0.000 C 
BRANCH  75  76
ATOM     76  C   PRO A  37     -41.624   8.738 -30.423  0.00  0.00    +0.000 C 
ATOM     77  O   PRO A  37     -41.693   7.680 -31.057  0.00  0.00    +0.000 OA
ATOM     78  N   GLY A  38     -40.601   8.559 -29.192  0.00  0.00    +0.000 N 
ATOM     79  H   GLY A  38     -40.754   9.646 -28.743  0.00  0.00    +0.000 HD
BRANCH  78  80
ATOM     80  CA  GLY A  38     -39.655   7.867 -27.910  0.00  0.00    +0.000 C 
BRANCH  80  81
ATOM     81  C   GLY A  38     -38.380   6.895 -27.099  0.00  0.00    +0.000 C 
ATOM     82  O   GLY A  38     -37.716   6.317 -27.942  0.00  0.00    +0.000 OA
ATOM     83  N   ASP A  39     -37.683   6.486 -25.713  0.00  0.00    +0.000 N 
ATOM     84  H   ASP A  39     -38.705   6.378 -25.112  0.00  0.00    +0.000 HD
BRANCH  83  85
ATOM     85  CA  ASP A  39     -36.595   5.688 -24.629  0.00  0.00    +0.000 C 
BRANCH  85  86
ATOM     86  C   ASP A  39     -35.149   5.128 -23.717  0.00  0.00    +0.000 C 
ATOM     87  O   ASP A  39     -34.187   5.597 -24.323  0.00  0.00    +0.000 OA
ATOM     88  N   SER A  40     -34.502   4.106 -22.641  0.00  0.00    +0.000 N 
ATOM     89  H   SER A  40     -35.137   3.109 -22.734  0.00  0.00    +0.000 HD
BRANCH  88  90
ATOM     90  CA  SER A  40     -33.128   3.686 -21.671  0.00  0.00    +0.000 C 
BRANCH  90  91
ATOM     91  C   SER A  40     -32.301   2.483 -20.646  0.00  0.00    +0.000 C 
ATOM     92  O   SER A  40     -32.807   1.411 -20.950  0.00  0.00    +0.000 OA
ATOM     93  N   ASP A  41     -31.066   2.066 -19.715  0.00  0.00    +0.000 N 
ATOM     94  H   ASP A  41     -30.362   1.472 -20.465  0.00  0.00    +0.000 HD
BRANCH  93  95
ATOM     95  CA  ASP A  41     -30.331   1.687 -18.208  0.00  0.00    +0.000 C 
BRANCH  95  96
ATOM     96  C   ASP A  41     -28.967   0.799 -17.471  0.00  0.00    +0.000 C 
ATOM     97  O   ASP A  41     -28.450   0.219 -18.418  0.00  0.00    +0.000 OA
ATOM     98  N   TYR A  42     -28.241   0.362 -16.114  0.00  0.00    +0.000 N 
ATOM     99  H   TYR A  42     -29.183   0.162 -15.416  0.00  0.00    +0.000 HD
ATOM    100  CA  TYR A  42     -26.968  -0.491 -15.376  0.00  0.00    +0.000 C 
BRANCH 100 101
ATOM    101  CB  TYR A  42     -26.254   0.875 -15.236  0.00  0.00    +0.000 C 
BRANCH 101 102
ATOM    102  CG  TYR A  42     -26.891   2.101 -14.550  0.00  0.00    +0.000 C 
ATOM    103  CD1 TYR A  42     -27.233   2.008 -13.191  0.00  0.00    +0.000 C 
ATOM    104  CE1 TYR A  42     -27.934   3.059 -12.615  0.00  0.00    +0.000 C 
ATOM    105  CZ  TYR A  42     -27.481   4.321 -13.036  0.00  0.00    +0.000 C 
ATOM    106  CE2 TYR A  42     -27.133   4.536 -14.406  0.00  0.00    +0.000 C 
ATOM    107  CD2 TYR A  42     -27.115   3.356 -15.195  0.00  0.00    +0.000 C 
BRANCH 105 108
ATOM    108  OH  TYR A  42     -27.386   5.266 -12.057  0.00  0.00    +0.000 OA
ATOM    109  HH  TYR A  42     -26.315   5.203 -11.558  0.00  0.00    +0.000 HD
ENDBRANCH 105 108
ENDBRANCH 101 102
ENDBRANCH 100 101
ENDBRANCH  95  96
BRANCH  95 110
ATOM    110  CB  ASP A  41     -29.682   3.003 -17.696  0.00  0.00    +0.000 C 
BRANCH 110 111
ATOM    111  CG  ASP A  41     -29.421   4.208 -18.599  0.00  0.00    +0.000 C 
ATOM    112  OD1 ASP A  41     -29.683   4.100 -19.818  0.00  0.00    +0.000 OA
ATOM    113  OD2 ASP A  41     -28.873   5.197 -18.047  0.00  0.00    +0.000 OA
ENDBRANCH 110 111
ENDBRANCH  95 110
ENDBRANCH  93  95
ENDBRANCH  90  91
BRANCH  90 114
ATOM    114  CB  SER A  40     -33.523   4.503 -20.437  0.00  0.00    +0.000 C 
BRANCH 114 115
ATOM    115  OG  SER A  40     -33.037   5.809 -20.618  0.00  0.00    +0.000 OA
ATOM    116  HG  SER A  40     -32.400   6.106 -19.669  0.00  0.00    +0.000 HD
ENDBRANCH 114 115
ENDBRANCH  90 114
ENDBRANCH  88  90
ENDBRANCH  85  86
BRANCH  85 117
ATOM    117  CB  ASP A  39     -35.682   6.947 -24.731  0.00  0.00    +0.000 C 
BRANCH 117 118
ATOM    118  CG  ASP A  39     -36.017   8.212 -25.514  0.00  0.00    +0.000 C 
ATOM    119  OD1 ASP A  39     -37.081   8.248 -26.130  0.00  0.00    +0.000 OA
ATOM    120  OD2 ASP A  39     -35.201   9.144 -25.480  0.00  0.00    +0.000 OA
ENDBRANCH 117 118
ENDBRANCH  85 117
ENDBRANCH  83  85
ENDBRANCH  80  81
ENDBRANCH  78  80
ENDBRANCH  75  76
ENDBRANCH  68  69
BRANCH  68 121
ATOM    121  CB  HIS A  36     -44.787  12.992 -34.724  0.00  0.00    +0.000 C 
BRANCH 121 122
ATOM    122  CG  HIS A  36     -44.781  14.274 -33.931  0.00  0.00    +0.000 A 
ATOM    123  ND1 HIS A  36     -43.821  15.250 -34.103  0.00  0.00    +0.000 N 
ATOM    124  HD1 HIS A  36     -43.075  15.544 -34.980  0.00  0.00    +0.000 HD
ATOM    125  CE1 HIS A  36     -43.968  16.134 -33.099  0.00  0.00    +0.000 A 
ATOM    126  NE2 HIS A  36     -45.090  15.867 -32.423  0.00  0.00    +0.000 NA
ATOM    127  CD2 HIS A  36     -45.651  14.700 -32.956  0.00  0.00    +0.000 A 
ENDBRANCH 121 122
ENDBRANCH  68 121
ENDBRANCH  66  68
ENDBRANCH  63  64
BRANCH  63 128
ATOM    128  CB  SER A  35     -49.968  14.404 -36.757  0.00  0.00    +0.000 C 
BRANCH 128 129
ATOM    129  OG  SER A  35     -51.142  13.672 -36.497  0.00  0.00    +0.000 OA
ATOM    130  HG  SER A  35     -51.366  13.688 -35.334  0.00  0.00    +0.000 HD
ENDBRANCH 128 129
ENDBRANCH  63 128
ENDBRANCH  61  63
ENDBRANCH  58  59
BRANCH  58 131
ATOM    131  CB  PHE A  34     -52.995  16.743 -39.313  0.00  0.00    +0.000 C 
BRANCH 131 132
ATOM    132  CG  PHE A  34     -52.416  18.039 -38.761  0.00  0.00    +0.000 A 
ATOM    133  CD1 PHE A  34     -51.605  18.855 -39.575  0.00  0.00    +0.000 A 
ATOM    134  CE1 PHE A  34     -51.238  20.150 -39.159  0.00  0.00    +0.000 A 
ATOM    135  CZ  PHE A  34     -51.550  20.592 -37.864  0.00  0.00    +0.000 A 
ATOM    136  CE2 PHE A  34     -52.298  19.747 -37.037  0.00  0.00    +0.000 A 
ATOM    137  CD2 PHE A  34     -52.672  18.461 -37.446  0.00  0.00    +0.000 A 
ENDBRANCH 131 132
ENDBRANCH  58 131
ENDBRANCH  56  58
ENDBRANCH  53  54
BRANCH  53 138
ATOM    138  CB  HIS A  33     -53.764  19.677 -44.699  0.00  0.00    +0.000 C 
BRANCH 138 139
ATOM    139  CG  HIS A  33     -53.286  21.009 -44.122  0.00  0.00    +0.000 A 
ATOM    140  ND1 HIS A  33     -52.295  21.812 -44.689  0.00  0.00    +0.000 N 
ATOM    141  HD1 HIS A  33     -51.640  21.768 -45.679  0.00  0.00    +0.000 HD
ATOM    142  CE1 HIS A  33     -52.104  22.853 -43.853  0.00  0.00    +0.000 A 
ATOM    143  NE2 HIS A  33     -52.966  22.779 -42.827  0.00  0.00    +0.000 NA
ATOM    144  CD2 HIS A  33     -53.738  21.615 -42.968  0.00  0.00    +0.000 A 
ENDBRANCH 138 139
ENDBRANCH  53 138
ENDBRANCH  51  53
ENDBRANCH  48  49
BRANCH  48 145
ATOM    145  CB  GLN A  32     -58.397  21.973 -46.304  0.00  0.00    +0.000 C 
BRANCH 145 146
ATOM    146  CG  GLN A  32     -59.684  22.579 -45.710  0.00  0.00    +0.000 C 
BRANCH 146 147
ATOM    147  CD  GLN A  32     -59.657  23.022 -44.245  0.00  0.00    +0.000 C 
ATOM    148  OE1 GLN A  32     -60.249  24.070 -43.971  0.00  0.00    +0.000 OA
ATOM    149  NE2 GLN A  32     -59.536  22.035 -43.347  0.00  0.00    +0.000 N 
ATOM    150 HE21 GLN A  32     -58.678  21.296 -42.988  0.00  0.00    +0.000 HD
ATOM    151 HE22 GLN A  32     -60.400  21.982 -42.528  0.00  0.00    +0.000 HD
ENDBRANCH 146 147
ENDBRANCH 145 146
ENDBRANCH  48 145
ENDBRANCH  46  48
ENDBRANCH  43  44
BRANCH  43 152
ATOM    152  CB  PHE A  31     -61.557  23.616 -49.232  0.00  0.00    +0.000 C 
BRANCH 152 153
ATOM    153  CG  PHE A  31     -60.791  24.928 -49.057  0.00  0.00    +0.000 A 
ATOM    154  CD1 PHE A  31     -59.648  25.259 -49.810  0.00  0.00    +0.000 A 
ATOM    155  CE1 PHE A  31     -58.893  26.419 -49.537  0.00  0.00    +0.000 A 
ATOM    156  CZ  PHE A  31     -59.405  27.399 -48.674  0.00  0.00    +0.000 A 
ATOM    157  CE2 PHE A  31     -60.646  27.160 -48.065  0.00  0.00    +0.000 A 
ATOM    158  CD2 PHE A  31     -61.221  25.872 -48.098  0.00  0.00    +0.000 A 
ENDBRANCH 152 153
ENDBRANCH  43 152
ENDBRANCH  41  43
ENDBRANCH  38  39
BRANCH  38 159
ATOM    159  CB  HIS A  30     -63.944  25.491 -53.894  0.00  0.00    +0.000 C 
BRANCH 159 160
ATOM    160  CG  HIS A  30     -63.549  26.562 -52.895  0.00  0.00    +0.000 A 
ATOM    161  ND1 HIS A  30     -62.258  27.002 -52.638  0.00  0.00    +0.000 N 
ATOM    162  HD1 HIS A  30     -61.279  27.174 -53.290  0.00  0.00    +0.000 HD
ATOM    163  CE1 HIS A  30     -62.326  27.769 -51.536  0.00  0.00    +0.000 A 
ATOM    164  NE2 HIS A  30     -63.605  27.982 -51.207  0.00  0.00    +0.000 NA
ATOM    165  CD2 HIS A  30     -64.413  27.260 -52.089  0.00  0.00    +0.000 A 
ENDBRANCH 159 160
ENDBRANCH  38 159
ENDBRANCH  36  38
ENDBRANCH  33  34
BRANCH  33 166
ATOM    166  CB  VAL A  29     -67.414  27.836 -56.207  0.00  0.00    +0.000 C 
ATOM    167  CG1 VAL A  29     -66.012  27.940 -56.803  0.00  0.00    +0.000 C 
ATOM    168  CG2 VAL A  29     -68.233  29.030 -56.714  0.00  0.00    +0.000 C 
ENDBRANCH  33 166
ENDBRANCH  31  33
ENDBRANCH  28  29
ENDBRANCH  21  22
BRANCH  21 169
ATOM    169  CB  ASN A  27     -73.548  31.815 -62.210  0.00  0.00    +0.000 C 
BRANCH 169 170
ATOM    170  CG  ASN A  27     -73.698  33.304 -62.506  0.00  0.00    +0.000 C 
ATOM    171  OD1 ASN A  27     -72.716  33.915 -62.940  0.00  0.00    +0.000 OA
ATOM    172  ND2 ASN A  27     -74.685  33.910 -61.831  0.00  0.00    +0.000 N 
ATOM    173 HD21 ASN A  27     -75.839  33.656 -61.679  0.00  0.00    +0.000 HD
ATOM    174 HD22 ASN A  27     -74.317  34.439 -60.827  0.00  0.00    +0.000 HD
ENDBRANCH 169 170
ENDBRANCH  21 169
ENDBRANCH  19  21
ENDBRANCH  16  17
BRANCH  16 175
ATOM    175  CB  LYS A  26     -77.322  34.309 -65.071  0.00  0.00    +0.000 C 
BRANCH 175 176
ATOM    176  CG  LYS A  26     -75.990  35.024 -64.921  0.00  0.00    +0.000 C 
BRANCH 176 177
ATOM    177  CD  LYS A  26     -76.070  36.230 -63.983  0.00  0.00    +0.000 C 
BRANCH 177 178
ATOM    178  CE  LYS A  26     -74.658  36.788 -64.212  0.00  0.00    +0.000 C 
BRANCH 178 179
ATOM    179  NZ  LYS A  26     -74.123  37.409 -62.990  0.00  0.00    +0.000 N 
ATOM    180  HZ1 LYS A  26     -74.769  38.425 -62.899  0.00  0.00    +0.000 HD
ATOM    181  HZ2 LYS A  26     -73.089  37.903 -62.620  0.00  0.00    +0.000 HD
ATOM    182  HZ3 LYS A  26     -74.097  36.546 -62.167  0.00  0.00    +0.000 HD
ENDBRANCH 178 179
ENDBRANCH 177 178
ENDBRANCH 176 177
ENDBRANCH 175 176
ENDBRANCH  16 175
ENDBRANCH  14  16
ENDBRANCH  11  12
BRANCH  11 183
ATOM    183  CB  ARG A  25     -80.016  36.667 -68.157  0.00  0.00    +0.000 C 
BRANCH 183 184
ATOM    184  CG  ARG A  25     -79.423  38.100 -68.228  0.00  0.00    +0.000 C 
BRANCH 184 185
ATOM    185  CD  ARG A  25     -78.027  38.455 -68.760  0.00  0.00    +0.000 C 
BRANCH 185 186
ATOM    186  NE  ARG A  25     -78.057  39.799 -69.356  0.00  0.00    +0.000 N 
ATOM    187  HE  ARG A  25     -78.068  39.910 -70.541  0.00  0.00    +0.000 HD
ATOM    188  CZ  ARG A  25     -77.729  40.936 -68.717  0.00  0.00    +0.000 C 
ATOM    189  NH1 ARG A  25     -77.954  41.045 -67.394  0.00  0.00    +0.000 N 
ATOM    190 HH11 ARG A  25     -77.049  41.121 -66.626  0.00  0.00    +0.000 HD
ATOM    191 HH12 ARG A  25     -78.940  41.505 -66.911  0.00  0.00    +0.000 HD
ATOM    192  NH2 ARG A  25     -77.489  42.059 -69.422  0.00  0.00    +0.000 N 
ATOM    193 HH21 ARG A  25     -76.380  42.392 -69.698  0.00  0.00    +0.000 HD
ATOM    194 HH22 ARG A  25     -78.294  42.848 -69.804  0.00  0.00    +0.000 HD
ENDBRANCH 185 186
ENDBRANCH 184 185
ENDBRANCH 183 184
ENDBRANCH  11 183
ENDBRANCH   9  11
ENDBRANCH   6   7
BRANCH   6 195
ATOM    195  CB  TYR A  24     -82.742  38.845 -71.878  0.00  0.00    +0.000 C 
BRANCH 195 196
ATOM    196  CG  TYR A  24     -83.674  40.058 -71.699  0.00  0.00    +0.000 A 
ATOM    197  CD1 TYR A  24     -84.950  39.960 -71.095  0.00  0.00    +0.000 A 
ATOM    198  CE1 TYR A  24     -85.315  40.989 -70.198  0.00  0.00    +0.000 A 
ATOM    199  CZ  TYR A  24     -84.485  42.133 -70.135  0.00  0.00    +0.000 A 
ATOM    200  CE2 TYR A  24     -83.719  42.449 -71.284  0.00  0.00    +0.000 A 
ATOM    201  CD2 TYR A  24     -83.287  41.367 -72.086  0.00  0.00    +0.000 A 
BRANCH 199 202
ATOM    202  OH  TYR A  24     -84.425  42.878 -68.988  0.00  0.00    +0.000 OA
ATOM    203  HH  TYR A  24     -83.526  42.493 -68.320  0.00  0.00    +0.000 HD
ENDBRANCH 199 202
ENDBRANCH 195 196
ENDBRANCH   6 195
ENDBRANCH   4   6
ENDBRANCH   1   2
BRANCH   1 206
ATOM    204  C   ASN A  22     -88.309  40.546 -77.844  0.00  0.00    +0.000 C 
ATOM    205  O   ASN A  22     -88.828  39.460 -78.141  0.00  0.00    +0.000 OA
ATOM    206  N   CYS A  23     -87.033  40.246 -76.951  0.00  0.00    +0.000 N 
ATOM    207  H   CYS A  23     -86.114  40.450 -77.674  0.00  0.00    +0.000 HD
BRANCH 204 208
ATOM    208  CA  ASN A  22     -89.025  41.633 -79.049  0.00  0.00    +0.000 C 
BRANCH 208 211
ATOM    209  C   ALA A  21     -91.154  42.618 -81.219  0.00  0.00    +0.000 C 
ATOM    210  O   ALA A  21     -90.990  41.817 -82.127  0.00  0.00    +0.000 OA
ATOM    211  N   ASN A  22     -90.436  41.952 -79.954  0.00  0.00    +0.000 N 
ATOM    212  H   ASN A  22     -91.245  41.188 -79.540  0.00  0.00    +0.000 HD
BRANCH 209 213
ATOM    213  CA  ALA A  21     -92.342  43.729 -81.950  0.00  0.00    +0.000 C 
ATOM    214  CB  ALA A  21     -91.675  43.363 -83.278  0.00  0.00    +0.000 C 
BRANCH 213 217
ATOM    215  C   GLY A  20     -94.672  44.804 -83.927  0.00  0.00    +0.000 C 
ATOM    216  O   GLY A  20     -95.621  44.131 -83.530  0.00  0.00    +0.000 OA
ATOM    217  N   ALA A  21     -93.397  44.552 -83.021  0.00  0.00    +0.000 N 
ATOM    218  H   ALA A  21     -93.225  45.665 -82.642  0.00  0.00    +0.000 HD
BRANCH 215 219
ATOM    219  CA  GLY A  20     -95.422  46.006 -84.971  0.00  0.00    +0.000 C 
BRANCH 219 222
ATOM    220  C   TYR A  19     -97.766  46.899 -87.005  0.00  0.00    +0.000 C 
ATOM    221  O   TYR A  19     -97.998  45.775 -87.472  0.00  0.00    +0.000 OA
ATOM    222  N   GLY A  20     -96.685  46.698 -85.879  0.00  0.00    +0.000 N 
ATOM    223  H   GLY A  20     -96.871  47.673 -85.237  0.00  0.00    +0.000 HD
BRANCH 220 224
ATOM    224  CA  TYR A  19     -98.573  48.143 -87.974  0.00  0.00    +0.000 C 
BRANCH 224 227
ATOM    225  C   MET A  18    -100.881  48.893 -90.139  0.00  0.00    +0.000 C 
ATOM    226  O   MET A  18    -101.360  47.896 -90.678  0.00  0.00    +0.000 OA
ATOM    227  N   TYR A  19     -99.860  48.350 -89.052  0.00  0.00    +0.000 N 
ATOM    228  H   TYR A  19    -100.042  47.177 -89.118  0.00  0.00    +0.000 HD
BRANCH 225 229
ATOM    229  CA  MET A  18    -101.594  50.127 -91.138  0.00  0.00    +0.000 C 
BRANCH 229 232
ATOM    230  C   CYS A  17    -103.852  50.903 -93.320  0.00  0.00    +0.000 C 
ATOM    231  O   CYS A  17    -104.234  49.905 -93.938  0.00  0.00    +0.000 OA
ATOM    232  N   MET A  18    -102.872  50.338 -92.206  0.00  0.00    +0.000 N 
ATOM    233  H   MET A  18    -103.367  49.272 -92.027  0.00  0.00    +0.000 HD
BRANCH 230 234
ATOM    234  CA  CYS A  17    -104.604  52.235 -94.203  0.00  0.00    +0.000 C 
BRANCH 234 237
ATOM    235  C   SER A  16    -106.651  53.725 -96.130  0.00  0.00    +0.000 C 
ATOM    236  O   SER A  16    -105.986  54.753 -96.027  0.00  0.00    +0.000 OA
ATOM    237  N   CYS A  17    -105.904  52.670 -95.220  0.00  0.00    +0.000 N 
ATOM    238  H   CYS A  17    -106.315  51.612 -95.569  0.00  0.00    +0.000 HD
BRANCH 235 239
ATOM    239  CA  SER A  16    -107.739  54.006 -97.499  0.00  0.00    +0.000 C 
BRANCH 239 242
ATOM    240  C   THR A  15    -109.431  55.880 -99.523  0.00  0.00    +0.000 C 
ATOM    241  O   THR A  15    -108.520  56.295-100.241  0.00  0.00    +0.000 OA
ATOM    242  N   SER A  16    -108.652  55.192 -98.310  0.00  0.00    +0.000 N 
ATOM    243  H   SER A  16    -108.236  56.138 -97.724  0.00  0.00    +0.000 HD
BRANCH 240 244
ATOM    244  CA  THR A  15    -110.910  56.265-100.412  0.00  0.00    +0.000 C 
BRANCH 244 247
ATOM    245  C   ARG A  14    -112.685  57.571-102.656  0.00  0.00    +0.000 C 
ATOM    246  O   ARG A  14    -113.002  56.526-103.231  0.00  0.00    +0.000 OA
ATOM    247  N   THR A  15    -111.526  57.242-101.645  0.00  0.00    +0.000 N 
ATOM    248  H   THR A  15    -110.573  57.274-102.358  0.00  0.00    +0.000 HD
BRANCH 245 249
ATOM    249  CA  ARG A  14    -113.460  58.872-103.532  0.00  0.00    +0.000 C 
BRANCH 249 252
ATOM    250  C   LYS A  13    -115.371  60.316-105.451  0.00  0.00    +0.000 C 
ATOM    251  O   LYS A  13    -114.430  60.961-105.946  0.00  0.00    +0.000 OA
ATOM    252  N   ARG A  14    -114.770  59.238-104.507  0.00  0.00    +0.000 N 
ATOM    253  H   ARG A  14    -115.347  58.230-104.757  0.00  0.00    +0.000 HD
BRANCH 250 254
ATOM    254  CA  LYS A  13    -116.813  60.791-106.324  0.00  0.00    +0.000 C 
BRANCH 254 257
ATOM    255  C   VAL A  12    -118.301  62.137-108.720  0.00  0.00    +0.000 C 
ATOM    256  O   VAL A  12    -117.372  61.924-109.508  0.00  0.00    +0.000 OA
ATOM    257  N   LYS A  13    -117.798  61.662-107.352  0.00  0.00    +0.000 N 
ATOM    258  H   LYS A  13    -118.865  61.332-106.932  0.00  0.00    +0.000 HD
BRANCH 255 259
ATOM    259  CA  VAL A  12    -119.496  62.872-109.728  0.00  0.00    +0.000 C 
BRANCH 259 262
ATOM    260  C   LYS A  11    -121.493  64.291-111.423  0.00  0.00    +0.000 C 
ATOM    261  O   LYS A  11    -120.729  64.188-112.381  0.00  0.00    +0.000 OA
ATOM    262  N   VAL A  12    -120.883  63.574-110.224  0.00  0.00    +0.000 N 
ATOM    263  H   VAL A  12    -121.733  62.857-109.797  0.00  0.00    +0.000 HD
BRANCH 260 264
ATOM    264  CA  LYS A  11    -122.955  64.927-112.030  0.00  0.00    +0.000 C 
BRANCH 264 267
ATOM    265  C   ASN A  10    -124.728  65.868-114.332  0.00  0.00    +0.000 C 
ATOM    266  O   ASN A  10    -124.472  65.056-115.215  0.00  0.00    +0.000 OA
ATOM    267  N   LYS A  11    -123.948  65.677-113.078  0.00  0.00    +0.000 N 
ATOM    268  H   LYS A  11    -124.918  65.602-112.386  0.00  0.00    +0.000 HD
BRANCH 265 269
ATOM    269  CA  ASN A  10    -125.998  66.880-114.760  0.00  0.00    +0.000 C 
BRANCH 269 272
ATOM    270  C   GLY A   9    -127.905  67.773-116.730  0.00  0.00    +0.000 C 
ATOM    271  O   GLY A   9    -128.950  67.555-116.115  0.00  0.00    +0.000 OA
ATOM    272  N   ASN A  10    -126.686  67.169-116.167  0.00  0.00    +0.000 N 
ATOM    273  H   ASN A  10    -126.272  66.404-116.979  0.00  0.00    +0.000 HD
BRANCH 270 274
ATOM    274  CA  GLY A   9    -128.052  68.885-117.933  0.00  0.00    +0.000 C 
BRANCH 274 277
ATOM    275  C   GLU A   8    -130.105  69.731-119.818  0.00  0.00    +0.000 C 
ATOM    276  O   GLU A   8    -130.322  68.785-120.580  0.00  0.00    +0.000 OA
ATOM    277  N   GLY A   9    -129.088  69.695-118.795  0.00  0.00    +0.000 N 
ATOM    278  H   GLY A   9    -129.446  70.460-117.957  0.00  0.00    +0.000 HD
BRANCH 275 279
ATOM    279  CA  GLU A   8    -130.891  71.056-120.314  0.00  0.00    +0.000 C 
BRANCH 279 282
ATOM    280  C   SER A   7    -132.726  72.277-121.731  0.00  0.00    +0.000 C 
ATOM    281  O   SER A   7    -133.084  72.651-120.613  0.00  0.00    +0.000 OA
ATOM    282  N   GLU A   8    -131.856  71.191-121.512  0.00  0.00    +0.000 N 
ATOM    283  H   GLU A   8    -132.018  70.251-122.221  0.00  0.00    +0.000 HD
BRANCH 280 284
ATOM    284  CA  SER A   7    -133.952  72.914-122.557  0.00  0.00    +0.000 C 
BRANCH 284 287
ATOM    285  C   GLY A   6    -135.655  73.167-124.868  0.00  0.00    +0.000 C 
ATOM    286  O   GLY A   6    -136.053  72.229-125.567  0.00  0.00    +0.000 OA
ATOM    287  N   SER A   7    -135.058  73.009-123.608  0.00  0.00    +0.000 N 
ATOM    288  H   SER A   7    -136.055  72.680-123.040  0.00  0.00    +0.000 HD
BRANCH 285 289
ATOM    289  CA  GLY A   6    -136.097  74.632-125.271  0.00  0.00    +0.000 C 
BRANCH 289 292
ATOM    290  C   SER A   5    -137.735  75.183-127.438  0.00  0.00    +0.000 C 
ATOM    291  O   SER A   5    -137.227  74.498-128.336  0.00  0.00    +0.000 OA
ATOM    292  N   GLY A   6    -137.210  75.128-126.167  0.00  0.00    +0.000 N 
ATOM    293  H   GLY A   6    -137.705  75.990-125.513  0.00  0.00    +0.000 HD
BRANCH 290 294
ATOM    294  CA  SER A   5    -138.982  76.115-127.739  0.00  0.00    +0.000 C 
BRANCH 294 297
ATOM    295  C   GLY A   4    -140.641  76.484-129.801  0.00  0.00    +0.000 C 
ATOM    296  O   GLY A   4    -141.438  75.765-130.408  0.00  0.00    +0.000 OA
ATOM    297  N   SER A   5    -139.675  75.851-129.043  0.00  0.00    +0.000 N 
ATOM    298  H   SER A   5    -139.161  75.064-129.772  0.00  0.00    +0.000 HD
BRANCH 295 299
ATOM    299  CA  GLY A   4    -140.571  77.967-130.257  0.00  0.00    +0.000 C 
BRANCH 299 302
ATOM    300  C   LEU A   3    -142.581  78.722-131.873  0.00  0.00    +0.000 C 
ATOM    301  O   LEU A   3    -143.010  77.700-132.429  0.00  0.00    +0.000 OA
ATOM    302  N   GLY A   4    -141.742  78.696-130.797  0.00  0.00    +0.000 N 
ATOM    303  H   GLY A   4    -142.213  79.052-129.762  0.00  0.00    +0.000 HD
BRANCH 300 304
ATOM    304  CA  LEU A   3    -142.958  80.093-132.501  0.00  0.00    +0.000 C 
BRANCH 304 307
ATOM    305  C   PRO A   2    -144.180  80.437-134.765  0.00  0.00    +0.000 C 
ATOM    306  O   PRO A   2    -143.302  80.572-135.616  0.00  0.00    +0.000 OA
ATOM    307  N   LEU A   3    -143.835  79.759-133.633  0.00  0.00    +0.000 N 
ATOM    308  H   LEU A   3    -144.265  78.665-133.818  0.00  0.00    +0.000 HD
BRANCH 305 315
ATOM    309  C   GLY A   1    -145.748  81.841-137.531  0.00  0.00    +0.000 C 
ATOM    310  O   GLY A   1    -144.773  81.612-138.257  0.00  0.00    +0.000 OA
ATOM    311  N   PRO A   2    -146.107  80.986-136.525  0.00  0.00    +0.000 N 
ATOM    312  CD  PRO A   2    -147.461  80.485-136.456  0.00  0.00    +0.000 C 
ATOM    313  CG  PRO A   2    -147.927  81.448-135.367  0.00  0.00    +0.000 C 
ATOM    314  CB  PRO A   2    -146.704  81.622-134.456  0.00  0.00    +0.000 C 
ATOM    315  CA  PRO A   2    -145.661  80.737-135.147  0.00  0.00    +0.000 C 
BRANCH 309 316
ATOM    316  CA  GLY A   1    -146.747  82.823-138.159  0.00  0.00    +0.000 C 
BRANCH 316 317
ATOM    317  N   GLY A   1    -146.622  82.778-139.629  0.00  0.00    +0.000 N 
ATOM    318  H   GLY A   1    -146.828  81.699-140.112  0.00  0.00    +0.000 HD
ATOM    319  H2  GLY A   1    -145.582  83.179-140.071  0.00  0.00    +0.000 HD
ATOM    320  H3  GLY A   1    -147.422  83.487-140.175  0.00  0.00    +0.000 HD
ENDBRANCH 316 317
ENDBRANCH 309 316
ENDBRANCH 305 315
ENDBRANCH 304 307
BRANCH 304 321
ATOM    321  CB  LEU A   3    -143.798  80.762-131.379  0.00  0.00    +0.000 C 
BRANCH 321 322
ATOM    322  CG  LEU A   3    -144.293  82.210-131.556  0.00  0.00    +0.000 C 
ATOM    323  CD1 LEU A   3    -145.021  82.661-130.297  0.00  0.00    +0.000 C 
ATOM    324  CD2 LEU A   3    -143.280  83.217-132.111  0.00  0.00    +0.000 C 
ENDBRANCH 321 322
ENDBRANCH 304 321
ENDBRANCH 300 304
ENDBRANCH 299 302
ENDBRANCH 295 299
ENDBRANCH 294 297
BRANCH 294 325
ATOM    325  CB  SER A   5    -140.021  75.395-126.860  0.00  0.00    +0.000 C 
BRANCH 325 326
ATOM    326  OG  SER A   5    -140.916  76.369-126.350  0.00  0.00    +0.000 OA
ATOM    327  HG  SER A   5    -140.508  76.760-125.312  0.00  0.00    +0.000 HD
ENDBRANCH 325 326
ENDBRANCH 294 325
ENDBRANCH 290 294
ENDBRANCH 289 292
ENDBRANCH 285 289
ENDBRANCH 284 287
BRANCH 284 328
ATOM    328  CB  SER A   7    -133.959  74.354-122.026  0.00  0.00    +0.000 C 
BRANCH 328 329
ATOM    329  OG  SER A   7    -135.052  75.163-122.467  0.00  0.00    +0.000 OA
ATOM    330  HG  SER A   7    -135.617  75.579-121.510  0.00  0.00    +0.000 HD
ENDBRANCH 328 329
ENDBRANCH 284 328
ENDBRANCH 280 284
ENDBRANCH 279 282
BRANCH 279 331
ATOM    331  CB  GLU A   8    -129.717  71.765-120.991  0.00  0.00    +0.000 C 
BRANCH 331 332
ATOM    332  CG  GLU A   8    -129.428  73.140-120.345  0.00  0.00    +0.000 C 
BRANCH 332 333
ATOM    333  CD  GLU A   8    -129.865  74.380-121.113  0.00  0.00    +0.000 C 
ATOM    334  OE1 GLU A   8    -128.933  75.096-121.553  0.00  0.00    +0.000 OA
ATOM    335  OE2 GLU A   8    -130.917  74.890-120.663  0.00  0.00    +0.000 OA
ENDBRANCH 332 333
ENDBRANCH 331 332
ENDBRANCH 279 331
ENDBRANCH 275 279
ENDBRANCH 274 277
ENDBRANCH 270 274
ENDBRANCH 269 272
BRANCH 269 336
ATOM    336  CB  ASN A  10    -125.220  68.220-114.688  0.00  0.00    +0.000 C 
BRANCH 336 337
ATOM    337  CG  ASN A  10    -126.044  69.482-115.016  0.00  0.00    +0.000 C 
ATOM    338  OD1 ASN A  10    -125.556  70.589-114.802  0.00  0.00    +0.000 OA
ATOM    339  ND2 ASN A  10    -127.320  69.368-115.384  0.00  0.00    +0.000 N 
ATOM    340 HD21 ASN A  10    -127.995  69.135-114.419  0.00  0.00    +0.000 HD
ATOM    341 HD22 ASN A  10    -127.792  70.410-115.725  0.00  0.00    +0.000 HD
ENDBRANCH 336 337
ENDBRANCH 269 336
ENDBRANCH 265 269
ENDBRANCH 264 267
BRANCH 264 342
ATOM    342  CB  LYS A  11    -122.037  65.861-112.833  0.00  0.00    +0.000 C 
BRANCH 342 343
ATOM    343  CG  LYS A  11    -122.177  67.265-112.204  0.00  0.00    +0.000 C 
BRANCH 343 344
ATOM    344  CD  LYS A  11    -121.291  68.279-112.939  0.00  0.00    +0.000 C 
BRANCH 344 345
ATOM    345  CE  LYS A  11    -121.531  69.667-112.366  0.00  0.00    +0.000 C 
BRANCH 345 346
ATOM    346  NZ  LYS A  11    -120.603  70.615-112.983  0.00  0.00    +0.000 N 
ATOM    347  HZ1 LYS A  11    -119.487  70.334-113.322  0.00  0.00    +0.000 HD
ATOM    348  HZ2 LYS A  11    -121.055  71.157-113.954  0.00  0.00    +0.000 HD
ATOM    349  HZ3 LYS A  11    -120.383  71.543-112.252  0.00  0.00    +0.000 HD
ENDBRANCH 345 346
ENDBRANCH 344 345
ENDBRANCH 343 344
ENDBRANCH 342 343
ENDBRANCH 264 342
ENDBRANCH 260 264
ENDBRANCH 259 262
BRANCH 259 350
ATOM    350  CB  VAL A  12    -119.225  64.268-109.113  0.00  0.00    +0.000 C 
ATOM    351  CG1 VAL A  12    -117.756  64.640-109.217  0.00  0.00    +0.000 C 
ATOM    352  CG2 VAL A  12    -119.916  65.372-109.895  0.00  0.00    +0.000 C 
ENDBRANCH 259 350
ENDBRANCH 255 259
ENDBRANCH 254 257
BRANCH 254 353
ATOM    353  CB  LYS A  13    -116.129  62.190-106.509  0.00  0.00    +0.000 C 
BRANCH 353 354
ATOM    354  CG  LYS A  13    -116.594  63.309-105.538  0.00  0.00    +0.000 C 
BRANCH 354 355
ATOM    355  CD  LYS A  13    -115.849  64.646-105.757  0.00  0.00    +0.000 C 
BRANCH 355 356
ATOM    356  CE  LYS A  13    -116.267  65.752-104.772  0.00  0.00    +0.000 C 
BRANCH 356 357
ATOM    357  NZ  LYS A  13    -116.199  67.098-105.366  0.00  0.00    +0.000 N 
ATOM    358  HZ1 LYS A  13    -116.392  67.930-104.522  0.00  0.00    +0.000 HD
ATOM    359  HZ2 LYS A  13    -117.036  67.390-106.173  0.00  0.00    +0.000 HD
ATOM    360  HZ3 LYS A  13    -115.134  67.439-105.797  0.00  0.00    +0.000 HD
ENDBRANCH 356 357
ENDBRANCH 355 356
ENDBRANCH 354 355
ENDBRANCH 353 354
ENDBRANCH 254 353
ENDBRANCH 250 254
ENDBRANCH 249 252
BRANCH 249 361
ATOM    361  CB  ARG A  14    -114.043  59.494-102.256  0.00  0.00    +0.000 C 
BRANCH 361 362
ATOM    362  CG  ARG A  14    -113.641  60.971-102.085  0.00  0.00    +0.000 C 
BRANCH 362 363
ATOM    363  CD  ARG A  14    -112.198  61.347-102.454  0.00  0.00    +0.000 C 
BRANCH 363 364
ATOM    364  NE  ARG A  14    -111.757  62.256-101.377  0.00  0.00    +0.000 N 
ATOM    365  HE  ARG A  14    -111.558  61.948-100.244  0.00  0.00    +0.000 HD
ATOM    366  CZ  ARG A  14    -111.202  63.487-101.485  0.00  0.00    +0.000 C 
ATOM    367  NH1 ARG A  14    -111.592  64.518-100.715  0.00  0.00    +0.000 N 
ATOM    368 HH11 ARG A  14    -112.569  65.152-100.961  0.00  0.00    +0.000 HD
ATOM    369 HH12 ARG A  14    -111.059  64.896 -99.721  0.00  0.00    +0.000 HD
ATOM    370  NH2 ARG A  14    -110.019  63.633-102.095  0.00  0.00    +0.000 N 
ATOM    371 HH21 ARG A  14    -109.556  64.719-102.252  0.00  0.00    +0.000 HD
ATOM    372 HH22 ARG A  14    -109.258  62.849-102.568  0.00  0.00    +0.000 HD
ENDBRANCH 363 364
ENDBRANCH 362 363
ENDBRANCH 361 362
ENDBRANCH 249 361
ENDBRANCH 245 249
ENDBRANCH 244 247
BRANCH 244 373
ATOM    373  CB  THR A  15    -111.477  57.120 -99.279  0.00  0.00    +0.000 C 
ATOM    374  CG2 THR A  15    -112.104  58.454 -99.712  0.00  0.00    +0.000 C 
BRANCH 373 375
ATOM    375  OG1 THR A  15    -112.460  56.399 -98.561  0.00  0.00    +0.000 OA
ATOM    376  HG1 THR A  15    -112.319  56.582 -97.399  0.00  0.00    +0.000 HD
ENDBRANCH 373 375
ENDBRANCH 244 373
ENDBRANCH 240 244
ENDBRANCH 239 242
BRANCH 239 377
ATOM    377  CB  SER A  16    -109.054  53.417 -96.989  0.00  0.00    +0.000 C 
BRANCH 377 378
ATOM    378  OG  SER A  16    -109.109  53.072 -95.630  0.00  0.00    +0.000 OA
ATOM    379  HG  SER A  16    -109.506  54.000 -95.006  0.00  0.00    +0.000 HD
ENDBRANCH 377 378
ENDBRANCH 239 377
ENDBRANCH 235 239
ENDBRANCH 234 237
BRANCH 234 380
ATOM    380  CB  CYS A  17    -105.311  52.696 -92.943  0.00  0.00    +0.000 C 
BRANCH 380 381
ATOM    381  SG  CYS A  17    -104.493  54.271 -92.594  0.00  0.00    +0.000 S 
ATOM    382  HG  CYS A  17    -104.077  55.342 -92.873  0.00  0.00    +0.000 HD
ENDBRANCH 380 381
ENDBRANCH 234 380
ENDBRANCH 230 234
ENDBRANCH 229 232
BRANCH 229 383
ATOM    383  CB  MET A  18    -102.224  50.876 -89.955  0.00  0.00    +0.000 C 
BRANCH 383 384
ATOM    384  CG  MET A  18    -102.523  52.303 -90.419  0.00  0.00    +0.000 C 
BRANCH 384 385
ATOM    385  SD  MET A  18    -102.819  53.450 -89.047  0.00  0.00    +0.000 S 
ATOM    386  CE  MET A  18    -104.560  53.807 -89.382  0.00  0.00    +0.000 C 
ENDBRANCH 384 385
ENDBRANCH 383 384
ENDBRANCH 229 383
ENDBRANCH 225 229
ENDBRANCH 224 227
BRANCH 224 387
ATOM    387  CB  TYR A  19     -99.344  48.778 -86.808  0.00  0.00    +0.000 C 
BRANCH 387 388
ATOM    388  CG  TYR A  19     -99.124  50.178 -86.233  0.00  0.00    +0.000 A 
ATOM    389  CD1 TYR A  19     -99.766  51.369 -86.648  0.00  0.00    +0.000 A 
ATOM    390  CE1 TYR A  19    -100.103  52.341 -85.666  0.00  0.00    +0.000 A 
ATOM    391  CZ  TYR A  19     -99.181  52.491 -84.599  0.00  0.00    +0.000 A 
ATOM    392  CE2 TYR A  19     -98.047  51.673 -84.703  0.00  0.00    +0.000 A 
ATOM    393  CD2 TYR A  19     -98.259  50.358 -85.151  0.00  0.00    +0.000 A 
BRANCH 391 394
ATOM    394  OH  TYR A  19     -99.321  53.338 -83.532  0.00  0.00    +0.000 OA
ATOM    395  HH  TYR A  19     -98.728  52.895 -82.610  0.00  0.00    +0.000 HD
ENDBRANCH 391 394
ENDBRANCH 387 388
ENDBRANCH 224 387
ENDBRANCH 220 224
ENDBRANCH 219 222
ENDBRANCH 215 219
ENDBRANCH 213 217
ENDBRANCH 209 213
ENDBRANCH 208 211
BRANCH 208 396
ATOM    396  CB  ASN A  22     -89.055  42.808 -78.051  0.00  0.00    +0.000 C 
BRANCH 396 397
ATOM    397  CG  ASN A  22     -89.604  44.195 -78.393  0.00  0.00    +0.000 C 
ATOM    398  OD1 ASN A  22     -88.870  45.118 -78.763  0.00  0.00    +0.000 OA
ATOM    399  ND2 ASN A  22     -90.700  44.446 -77.668  0.00  0.00    +0.000 N 
ATOM    400 HD21 ASN A  22     -91.709  43.854 -77.449  0.00  0.00    +0.000 HD
ATOM    401 HD22 ASN A  22     -90.809  45.551 -77.237  0.00  0.00    +0.000 HD
ENDBRANCH 396 397
ENDBRANCH 208 396
ENDBRANCH 204 208
ENDBRANCH   1 206
BRANCH   1 402
ATOM    402  CB  CYS A  23     -86.674  40.474 -74.639  0.00  0.00    +0.000 C 
BRANCH 402 403
ATOM    403  SG  CYS A  23     -85.743  42.005 -74.949  0.00  0.00    +0.000 S 
ATOM    404  HG  CYS A  23     -85.300  43.081 -75.153  0.00  0.00    +0.000 HD
ENDBRANCH 402 403
ENDBRANCH   1 402
TORSDOF 160
REMARK  Name = /Users/acegid/Desktop/Smoking_Research/Docking/Docking_All_PDB/All_PDB/2KQE_H.pdb
REMARK  372 active torsions:
REMARK  status: ('A' for Active; 'I' for Inactive)
REMARK    1  A    between atoms: N_1  and  CA_5
REMARK    2  A    between atoms: CA_5  and  C_8
REMARK    3  A    between atoms: CA_20  and  C_22
REMARK    4  A    between atoms: N_24  and  CA_26
REMARK    5  A    between atoms: CA_26  and  CB_28
REMARK    6  A    between atoms: CA_26  and  C_41
REMARK    7  A    between atoms: CB_28  and  CG_31
REMARK    8  A    between atoms: CG_31  and  CD1_33
REMARK    9  A    between atoms: CG_31  and  CD2_37
REMARK   10  A    between atoms: N_43  and  CA_45
REMARK   11  A    between atoms: CA_45  and  C_48
REMARK   12  A    between atoms: N_50  and  CA_52
REMARK   13  A    between atoms: CA_52  and  CB_54
REMARK   14  A    between atoms: CA_52  and  C_59
REMARK   15  A    between atoms: CB_54  and  OG_57
REMARK   16  A    between atoms: N_61  and  CA_63
REMARK   17  A    between atoms: CA_63  and  C_66
REMARK   18  A    between atoms: N_68  and  CA_70
REMARK   19  A    between atoms: CA_70  and  CB_72
REMARK   20  A    between atoms: CA_70  and  C_77
REMARK   21  A    between atoms: CB_72  and  OG_75
REMARK   22  A    between atoms: N_79  and  CA_81
REMARK   23  A    between atoms: CA_81  and  CB_83
REMARK   24  A    between atoms: CA_81  and  C_92
REMARK   25  A    between atoms: CB_83  and  CG_86
REMARK   26  A    between atoms: CG_86  and  CD_89
REMARK   27  A    between atoms: N_94  and  CA_96
REMARK   28  A    between atoms: CA_96  and  C_99
REMARK   29  A    between atoms: N_101  and  CA_103
REMARK   30  A    between atoms: CA_103  and  CB_105
REMARK   31  A    between atoms: CA_103  and  C_113
REMARK   32  A    between atoms: CB_105  and  CG_108
REMARK   33  A    between atoms: N_115  and  CA_117
REMARK   34  A    between atoms: CA_117  and  CB_119
REMARK   35  A    between atoms: CA_117  and  C_135
REMARK   36  A    between atoms: CB_119  and  CG_122
REMARK   37  A    between atoms: CG_122  and  CD_125
REMARK   38  A    between atoms: CD_125  and  CE_128
REMARK   39  A    between atoms: CE_128  and  NZ_131
REMARK   40  A    between atoms: N_137  and  CA_139
REMARK   41  A    between atoms: CA_139  and  CB_141
REMARK   42  A    between atoms: CA_139  and  C_151
REMARK   43  A    between atoms: CB_141  and  CG1_143
REMARK   44  A    between atoms: CB_141  and  CG2_147
REMARK   45  A    between atoms: N_153  and  CA_155
REMARK   46  A    between atoms: CA_155  and  CB_157
REMARK   47  A    between atoms: CA_155  and  C_173
REMARK   48  A    between atoms: CB_157  and  CG_160
REMARK   49  A    between atoms: CG_160  and  CD_163
REMARK   50  A    between atoms: CD_163  and  CE_166
REMARK   51  A    between atoms: CE_166  and  NZ_169
REMARK   52  A    between atoms: N_175  and  CA_177
REMARK   53  A    between atoms: CA_177  and  CB_179
REMARK   54  A    between atoms: CA_177  and  C_197
REMARK   55  A    between atoms: CB_179  and  CG_182
REMARK   56  A    between atoms: CG_182  and  CD_185
REMARK   57  A    between atoms: CD_185  and  NE_188
REMARK   58  A    between atoms: N_199  and  CA_201
REMARK   59  A    between atoms: CA_201  and  CB_203
REMARK   60  A    between atoms: CA_201  and  C_211
REMARK   61  A    between atoms: CB_203  and  CG2_205
REMARK   62  A    between atoms: CB_203  and  OG1_209
REMARK   63  A    between atoms: N_213  and  CA_215
REMARK   64  A    between atoms: CA_215  and  CB_217
REMARK   65  A    between atoms: CA_215  and  C_222
REMARK   66  A    between atoms: CB_217  and  OG_220
REMARK   67  A    between atoms: N_224  and  CA_226
REMARK   68  A    between atoms: CA_226  and  CB_228
REMARK   69  A    between atoms: CA_226  and  C_233
REMARK   70  A    between atoms: CB_228  and  SG_231
REMARK   71  A    between atoms: N_235  and  CA_237
REMARK   72  A    between atoms: CA_237  and  CB_239
REMARK   73  A    between atoms: CA_237  and  C_250
REMARK   74  A    between atoms: CB_239  and  CG_242
REMARK   75  A    between atoms: CG_242  and  SD_245
REMARK   76  A    between atoms: SD_245  and  CE_246
REMARK   77  A    between atoms: N_252  and  CA_254
REMARK   78  A    between atoms: CA_254  and  CB_256
REMARK   79  A    between atoms: CA_254  and  C_271
REMARK   80  A    between atoms: CB_256  and  CG_259
REMARK   81  A    between atoms: CZ_264  and  OH_265
REMARK   82  A    between atoms: N_273  and  CA_275
REMARK   83  A    between atoms: CA_275  and  C_278
REMARK   84  A    between atoms: N_280  and  CA_282
REMARK   85  A    between atoms: CA_282  and  CB_284
REMARK   86  A    between atoms: CA_282  and  C_288
REMARK   87  A    between atoms: N_290  and  CA_292
REMARK   88  A    between atoms: CA_292  and  CB_294
REMARK   89  A    between atoms: CA_292  and  C_302
REMARK   90  A    between atoms: CB_294  and  CG_297
REMARK   91  A    between atoms: N_304  and  CA_306
REMARK   92  A    between atoms: CA_306  and  CB_308
REMARK   93  A    between atoms: CA_306  and  C_313
REMARK   94  A    between atoms: CB_308  and  SG_311
REMARK   95  A    between atoms: N_315  and  CA_317
REMARK   96  A    between atoms: CA_317  and  CB_319
REMARK   97  A    between atoms: CA_317  and  C_334
REMARK   98  A    between atoms: CB_319  and  CG_322
REMARK   99  A    between atoms: CZ_327  and  OH_328
REMARK  100  A    between atoms: N_336  and  CA_338
REMARK  101  A    between atoms: CA_338  and  CB_340
REMARK  102  A    between atoms: CA_338  and  C_358
REMARK  103  A    between atoms: CB_340  and  CG_343
REMARK  104  A    between atoms: CG_343  and  CD_346
REMARK  105  A    between atoms: CD_346  and  NE_349
REMARK  106  A    between atoms: N_360  and  CA_362
REMARK  107  A    between atoms: CA_362  and  CB_364
REMARK  108  A    between atoms: CA_362  and  C_380
REMARK  109  A    between atoms: CB_364  and  CG_367
REMARK  110  A    between atoms: CG_367  and  CD_370
REMARK  111  A    between atoms: CD_370  and  CE_373
REMARK  112  A    between atoms: CE_373  and  NZ_376
REMARK  113  A    between atoms: N_382  and  CA_384
REMARK  114  A    between atoms: CA_384  and  CB_386
REMARK  115  A    between atoms: CA_384  and  C_394
REMARK  116  A    between atoms: CB_386  and  CG_389
REMARK  117  A    between atoms: CA_406  and  C_408
REMARK  118  A    between atoms: N_410  and  CA_412
REMARK  119  A    between atoms: CA_412  and  CB_414
REMARK  120  A    between atoms: CA_412  and  C_424
REMARK  121  A    between atoms: CB_414  and  CG1_416
REMARK  122  A    between atoms: CB_414  and  CG2_420
REMARK  123  A    between atoms: N_426  and  CA_428
REMARK  124  A    between atoms: CA_428  and  CB_430
REMARK  125  A    between atoms: CA_428  and  C_441
REMARK  126  A    between atoms: CB_430  and  CG_433
REMARK  127  A    between atoms: N_443  and  CA_445
REMARK  128  A    between atoms: CA_445  and  CB_447
REMARK  129  A    between atoms: CA_445  and  C_461
REMARK  130  A    between atoms: CB_447  and  CG_450
REMARK  131  A    between atoms: N_463  and  CA_465
REMARK  132  A    between atoms: CA_465  and  CB_467
REMARK  133  A    between atoms: CA_465  and  C_478
REMARK  134  A    between atoms: CB_467  and  CG_470
REMARK  135  A    between atoms: CG_470  and  CD_473
REMARK  136  A    between atoms: N_480  and  CA_482
REMARK  137  A    between atoms: CA_482  and  CB_484
REMARK  138  A    between atoms: CA_482  and  C_495
REMARK  139  A    between atoms: CB_484  and  CG_487
REMARK  140  A    between atoms: N_497  and  CA_499
REMARK  141  A    between atoms: CA_499  and  CB_501
REMARK  142  A    between atoms: CA_499  and  C_515
REMARK  143  A    between atoms: CB_501  and  CG_504
REMARK  144  A    between atoms: N_517  and  CA_519
REMARK  145  A    between atoms: CA_519  and  CB_521
REMARK  146  A    between atoms: CA_519  and  C_526
REMARK  147  A    between atoms: CB_521  and  OG_524
REMARK  148  A    between atoms: N_528  and  CA_530
REMARK  149  A    between atoms: CA_530  and  CB_532
REMARK  150  A    between atoms: CA_530  and  C_543
REMARK  151  A    between atoms: CB_532  and  CG_535
REMARK  152  A    between atoms: CA_555  and  C_557
REMARK  153  A    between atoms: N_559  and  CA_561
REMARK  154  A    between atoms: CA_561  and  C_564
REMARK  155  A    between atoms: N_566  and  CA_568
REMARK  156  A    between atoms: CA_568  and  CB_570
REMARK  157  A    between atoms: CA_568  and  C_576
REMARK  158  A    between atoms: CB_570  and  CG_573
REMARK  159  A    between atoms: N_578  and  CA_580
REMARK  160  A    between atoms: CA_580  and  CB_582
REMARK  161  A    between atoms: CA_580  and  C_587
REMARK  162  A    between atoms: CB_582  and  OG_585
REMARK  163  A    between atoms: N_589  and  CA_591
REMARK  164  A    between atoms: CA_591  and  CB_593
REMARK  165  A    between atoms: CA_591  and  C_599
REMARK  166  A    between atoms: CB_593  and  CG_596
REMARK  167  A    between atoms: CA_603  and  CB_605
REMARK  168  A    between atoms: CB_605  and  CG_608
REMARK  169  A    between atoms: CZ_613  and  OH_614
REMARK  170  A    between atoms: N_622  and  CA_623
REMARK  171  A    between atoms: CA_623  and  C_624
REMARK  172  A    between atoms: N_629  and  CA_630
REMARK  173  A    between atoms: CA_630  and  C_631
REMARK  174  A    between atoms: N_636  and  CA_637
REMARK  175  A    between atoms: CA_637  and  C_638
REMARK  176  A    between atoms: CA_637  and  CB_640
REMARK  177  A    between atoms: CB_640  and  CG1_641
REMARK  178  A    between atoms: CB_640  and  CG2_642
REMARK  179  A    between atoms: N_652  and  CA_653
REMARK  180  A    between atoms: CA_653  and  C_654
REMARK  181  A    between atoms: CA_653  and  CB_656
REMARK  182  A    between atoms: CB_656  and  CG_657
REMARK  183  A    between atoms: CG_657  and  CD_658
REMARK  184  A    between atoms: N_669  and  CA_670
REMARK  185  A    between atoms: CA_670  and  C_671
REMARK  186  A    between atoms: CA_670  and  CB_673
REMARK  187  A    between atoms: CB_673  and  CG1_674
REMARK  188  A    between atoms: CB_673  and  CG2_675
REMARK  189  A    between atoms: CG1_674  and  CD1_676
REMARK  190  A    between atoms: N_688  and  CA_689
REMARK  191  A    between atoms: CA_689  and  C_690
REMARK  192  A    between atoms: CA_689  and  CB_692
REMARK  193  A    between atoms: CB_692  and  CG1_693
REMARK  194  A    between atoms: CB_692  and  CG2_694
REMARK  195  A    between atoms: N_704  and  CA_705
REMARK  196  A    between atoms: CA_705  and  C_706
REMARK  197  A    between atoms: N_711  and  CA_712
REMARK  198  A    between atoms: CA_712  and  C_713
REMARK  199  A    between atoms: CA_712  and  CB_715
REMARK  200  A    between atoms: CB_715  and  CG_716
REMARK  201  A    between atoms: CG_716  and  CD_717
REMARK  202  A    between atoms: N_728  and  CA_729
REMARK  203  A    between atoms: CA_729  and  C_730
REMARK  204  A    between atoms: CA_729  and  CB_732
REMARK  205  A    between atoms: CB_732  and  CG_733
REMARK  206  A    between atoms: N_740  and  CA_741
REMARK  207  A    between atoms: CA_741  and  C_742
REMARK  208  A    between atoms: CA_741  and  CB_744
REMARK  209  A    between atoms: CB_744  and  CG_745
REMARK  210  A    between atoms: CG_745  and  CD_746
REMARK  211  A    between atoms: N_755  and  CA_756
REMARK  212  A    between atoms: CA_756  and  C_757
REMARK  213  A    between atoms: CA_756  and  CB_759
REMARK  214  A    between atoms: CB_759  and  OG1_760
REMARK  215  A    between atoms: CB_759  and  CG2_761
REMARK  216  A    between atoms: N_769  and  CA_770
REMARK  217  A    between atoms: CA_770  and  C_771
REMARK  218  A    between atoms: CA_770  and  CB_773
REMARK  219  A    between atoms: CB_773  and  CG_774
REMARK  220  A    between atoms: N_781  and  CA_782
REMARK  221  A    between atoms: CA_782  and  C_783
REMARK  222  A    between atoms: CA_782  and  CB_785
REMARK  223  A    between atoms: CB_785  and  CG_786
REMARK  224  A    between atoms: N_793  and  CA_794
REMARK  225  A    between atoms: CA_794  and  C_795
REMARK  226  A    between atoms: CA_794  and  CB_797
REMARK  227  A    between atoms: CB_797  and  CG_798
REMARK  228  A    between atoms: CG_798  and  CD_799
REMARK  229  A    between atoms: CD_799  and  NE_800
REMARK  230  A    between atoms: CA_818  and  C_819
REMARK  231  A    between atoms: N_831  and  CA_832
REMARK  232  A    between atoms: CA_832  and  C_833
REMARK  233  A    between atoms: CA_832  and  CB_835
REMARK  234  A    between atoms: CB_835  and  CG_836
REMARK  235  A    between atoms: CG_836  and  CD_837
REMARK  236  A    between atoms: N_846  and  CA_847
REMARK  237  A    between atoms: CA_847  and  C_848
REMARK  238  A    between atoms: CA_847  and  CB_850
REMARK  239  A    between atoms: CB_850  and  SG_851
REMARK  240  A    between atoms: CA_858  and  C_859
REMARK  241  A    between atoms: N_871  and  CA_872
REMARK  242  A    between atoms: CA_872  and  C_873
REMARK  243  A    between atoms: CA_872  and  CB_875
REMARK  244  A    between atoms: CB_875  and  CG_876
REMARK  245  A    between atoms: CZ_881  and  OH_882
REMARK  246  A    between atoms: N_892  and  CA_893
REMARK  247  A    between atoms: CA_893  and  C_894
REMARK  248  A    between atoms: CA_900  and  C_901
REMARK  249  A    between atoms: N_913  and  CA_914
REMARK  250  A    between atoms: CA_914  and  C_915
REMARK  251  A    between atoms: CA_914  and  CB_917
REMARK  252  A    between atoms: CB_917  and  OG_918
REMARK  253  A    between atoms: N_924  and  CA_925
REMARK  254  A    between atoms: CA_925  and  C_926
REMARK  255  A    between atoms: CA_925  and  CB_928
REMARK  256  A    between atoms: CB_928  and  SG_929
REMARK  257  A    between atoms: N_935  and  CA_936
REMARK  258  A    between atoms: CA_936  and  C_937
REMARK  259  A    between atoms: CA_936  and  CB_939
REMARK  260  A    between atoms: CB_939  and  CG_940
REMARK  261  A    between atoms: CZ_945  and  OH_946
REMARK  262  A    between atoms: N_956  and  CA_957
REMARK  263  A    between atoms: CA_957  and  C_958
REMARK  264  A    between atoms: CA_957  and  CB_960
REMARK  265  A    between atoms: CB_960  and  CG_961
REMARK  266  A    between atoms: CG_961  and  CD_962
REMARK  267  A    between atoms: CD_962  and  NE_963
REMARK  268  A    between atoms: N_980  and  CA_981
REMARK  269  A    between atoms: CA_981  and  C_982
REMARK  270  A    between atoms: CA_981  and  CB_984
REMARK  271  A    between atoms: CB_984  and  CG_985
REMARK  272  A    between atoms: CG_985  and  CD_986
REMARK  273  A    between atoms: CD_986  and  CE_987
REMARK  274  A    between atoms: CE_987  and  NZ_988
REMARK  275  A    between atoms: N_1002  and  CA_1003
REMARK  276  A    between atoms: CA_1003  and  C_1004
REMARK  277  A    between atoms: CA_1003  and  CB_1006
REMARK  278  A    between atoms: CB_1006  and  CG_1007
REMARK  279  A    between atoms: CA_1017  and  C_1018
REMARK  280  A    between atoms: N_1030  and  CA_1031
REMARK  281  A    between atoms: CA_1031  and  C_1032
REMARK  282  A    between atoms: CA_1031  and  CB_1034
REMARK  283  A    between atoms: CB_1034  and  CG_1035
REMARK  284  A    between atoms: CG_1035  and  CD_1036
REMARK  285  A    between atoms: N_1047  and  CA_1048
REMARK  286  A    between atoms: CA_1048  and  C_1049
REMARK  287  A    between atoms: CA_1048  and  CB_1051
REMARK  288  A    between atoms: CB_1051  and  CG_1052
REMARK  289  A    between atoms: N_1064  and  CA_1065
REMARK  290  A    between atoms: CA_1065  and  C_1066
REMARK  291  A    between atoms: CA_1065  and  CB_1068
REMARK  292  A    between atoms: CB_1068  and  CG_1069
REMARK  293  A    between atoms: CG_1069  and  CD_1070
REMARK  294  A    between atoms: CD_1070  and  CE_1071
REMARK  295  A    between atoms: CE_1071  and  NZ_1072
REMARK  296  A    between atoms: N_1086  and  CA_1087
REMARK  297  A    between atoms: CA_1087  and  C_1088
REMARK  298  A    between atoms: CA_1087  and  CB_1090
REMARK  299  A    between atoms: CB_1090  and  CG1_1091
REMARK  300  A    between atoms: CB_1090  and  CG2_1092
REMARK  301  A    between atoms: CG1_1091  and  CD1_1093
REMARK  302  A    between atoms: N_1105  and  CA_1106
REMARK  303  A    between atoms: CA_1106  and  C_1107
REMARK  304  A    between atoms: CA_1106  and  CB_1109
REMARK  305  A    between atoms: CB_1109  and  CG_1110
REMARK  306  A    between atoms: CG_1110  and  CD_1111
REMARK  307  A    between atoms: N_1120  and  CA_1121
REMARK  308  A    between atoms: CA_1121  and  C_1122
REMARK  309  A    between atoms: CA_1121  and  CB_1124
REMARK  310  A    between atoms: CB_1124  and  CG_1125
REMARK  311  A    between atoms: CZ_1130  and  OH_1131
REMARK  312  A    between atoms: N_1141  and  CA_1142
REMARK  313  A    between atoms: CA_1142  and  C_1143
REMARK  314  A    between atoms: CA_1142  and  CB_1145
REMARK  315  A    between atoms: CB_1145  and  CG_1146
REMARK  316  A    between atoms: CG_1146  and  CD_1147
REMARK  317  A    between atoms: CD_1147  and  NE_1148
REMARK  318  A    between atoms: N_1165  and  CA_1166
REMARK  319  A    between atoms: CA_1166  and  C_1167
REMARK  320  A    between atoms: CA_1166  and  CB_1169
REMARK  321  A    between atoms: CB_1169  and  CG_1170
REMARK  322  A    between atoms: N_1182  and  CA_1183
REMARK  323  A    between atoms: CA_1183  and  C_1184
REMARK  324  A    between atoms: CA_1183  and  CB_1186
REMARK  325  A    between atoms: CB_1186  and  CG_1187
REMARK  326  A    between atoms: N_1196  and  CA_1197
REMARK  327  A    between atoms: CA_1197  and  C_1198
REMARK  328  A    between atoms: CA_1197  and  CB_1200
REMARK  329  A    between atoms: CB_1200  and  OG1_1201
REMARK  330  A    between atoms: CB_1200  and  CG2_1202
REMARK  331  A    between atoms: N_1210  and  CA_1211
REMARK  332  A    between atoms: CA_1211  and  C_1212
REMARK  333  A    between atoms: CA_1211  and  CB_1214
REMARK  334  A    between atoms: CB_1214  and  CG_1215
REMARK  335  A    between atoms: CG_1215  and  CD1_1216
REMARK  336  A    between atoms: CG_1215  and  CD2_1217
REMARK  337  A    between atoms: CA_1230  and  C_1231
REMARK  338  A    between atoms: N_1243  and  CA_1244
REMARK  339  A    between atoms: CA_1244  and  C_1245
REMARK  340  A    between atoms: CA_1244  and  CB_1247
REMARK  341  A    between atoms: CB_1247  and  CG1_1248
REMARK  342  A    between atoms: CB_1247  and  CG2_1249
REMARK  343  A    between atoms: N_1259  and  CA_1260
REMARK  344  A    between atoms: CA_1260  and  C_1261
REMARK  345  A    between atoms: CA_1260  and  CB_1263
REMARK  346  A    between atoms: CB_1263  and  CG_1264
REMARK  347  A    between atoms: CG_1264  and  CD_1265
REMARK  348  A    between atoms: CD_1265  and  NE_1266
REMARK  349  A    between atoms: N_1283  and  CA_1284
REMARK  350  A    between atoms: CA_1284  and  C_1285
REMARK  351  A    between atoms: CA_1284  and  CB_1287
REMARK  352  A    between atoms: CB_1287  and  CG_1288
REMARK  353  A    between atoms: N_1297  and  CA_1298
REMARK  354  A    between atoms: CA_1298  and  C_1299
REMARK  355  A    between atoms: CA_1298  and  CB_1301
REMARK  356  A    between atoms: CB_1301  and  CG1_1302
REMARK  357  A    between atoms: CB_1301  and  CG2_1303
REMARK  358  A    between atoms: N_1313  and  CA_1314
REMARK  359  A    between atoms: CA_1314  and  C_1315
REMARK  360  A    between atoms: CA_1314  and  CB_1317
REMARK  361  A    between atoms: CB_1317  and  CG_1318
REMARK  362  A    between atoms: CG_1318  and  CD1_1319
REMARK  363  A    between atoms: CG_1318  and  CD2_1320
REMARK  364  A    between atoms: N_1332  and  CA_1333
REMARK  365  A    between atoms: CA_1333  and  C_1334
REMARK  366  A    between atoms: CA_1333  and  CB_1336
REMARK  367  A    between atoms: CB_1336  and  CG_1337
REMARK  368  A    between atoms: N_1344  and  CA_1345
REMARK  369  A    between atoms: CA_1345  and  C_1346
REMARK  370  A    between atoms: CA_1345  and  CB_1348
REMARK  371  A    between atoms: CB_1348  and  CG_1349
REMARK  372  A    between atoms: CG_1349  and  CD_1350
REMARK                            x       y       z     vdW  Elec       q    Type
REMARK                         _______ _______ _______ _____ _____    ______ ____
ROOT
ATOM      1  C   TYR A  42     -25.738  -1.263 -14.353  0.00  0.00    +0.000 C 
ATOM      2  O   TYR A  42     -25.272  -1.970 -15.256  0.00  0.00    +0.000 OA
ENDROOT
TORSDOF 0
REMARK  Name = /Users/acegid/Desktop/Smoking_Research/Docking/Docking_All_PDB/All_PDB/2KQE_H.pdb
REMARK  372 active torsions:
REMARK  status: ('A' for Active; 'I' for Inactive)
REMARK    1  A    between atoms: N_1  and  CA_5
REMARK    2  A    between atoms: CA_5  and  C_8
REMARK    3  A    between atoms: CA_20  and  C_22
REMARK    4  A    between atoms: N_24  and  CA_26
REMARK    5  A    between atoms: CA_26  and  CB_28
REMARK    6  A    between atoms: CA_26  and  C_41
REMARK    7  A    between atoms: CB_28  and  CG_31
REMARK    8  A    between atoms: CG_31  and  CD1_33
REMARK    9  A    between atoms: CG_31  and  CD2_37
REMARK   10  A    between atoms: N_43  and  CA_45
REMARK   11  A    between atoms: CA_45  and  C_48
REMARK   12  A    between atoms: N_50  and  CA_52
REMARK   13  A    between atoms: CA_52  and  CB_54
REMARK   14  A    between atoms: CA_52  and  C_59
REMARK   15  A    between atoms: CB_54  and  OG_57
REMARK   16  A    between atoms: N_61  and  CA_63
REMARK   17  A    between atoms: CA_63  and  C_66
REMARK   18  A    between atoms: N_68  and  CA_70
REMARK   19  A    between atoms: CA_70  and  CB_72
REMARK   20  A    between atoms: CA_70  and  C_77
REMARK   21  A    between atoms: CB_72  and  OG_75
REMARK   22  A    between atoms: N_79  and  CA_81
REMARK   23  A    between atoms: CA_81  and  CB_83
REMARK   24  A    between atoms: CA_81  and  C_92
REMARK   25  A    between atoms: CB_83  and  CG_86
REMARK   26  A    between atoms: CG_86  and  CD_89
REMARK   27  A    between atoms: N_94  and  CA_96
REMARK   28  A    between atoms: CA_96  and  C_99
REMARK   29  A    between atoms: N_101  and  CA_103
REMARK   30  A    between atoms: CA_103  and  CB_105
REMARK   31  A    between atoms: CA_103  and  C_113
REMARK   32  A    between atoms: CB_105  and  CG_108
REMARK   33  A    between atoms: N_115  and  CA_117
REMARK   34  A    between atoms: CA_117  and  CB_119
REMARK   35  A    between atoms: CA_117  and  C_135
REMARK   36  A    between atoms: CB_119  and  CG_122
REMARK   37  A    between atoms: CG_122  and  CD_125
REMARK   38  A    between atoms: CD_125  and  CE_128
REMARK   39  A    between atoms: CE_128  and  NZ_131
REMARK   40  A    between atoms: N_137  and  CA_139
REMARK   41  A    between atoms: CA_139  and  CB_141
REMARK   42  A    between atoms: CA_139  and  C_151
REMARK   43  A    between atoms: CB_141  and  CG1_143
REMARK   44  A    between atoms: CB_141  and  CG2_147
REMARK   45  A    between atoms: N_153  and  CA_155
REMARK   46  A    between atoms: CA_155  and  CB_157
REMARK   47  A    between atoms: CA_155  and  C_173
REMARK   48  A    between atoms: CB_157  and  CG_160
REMARK   49  A    between atoms: CG_160  and  CD_163
REMARK   50  A    between atoms: CD_163  and  CE_166
REMARK   51  A    between atoms: CE_166  and  NZ_169
REMARK   52  A    between atoms: N_175  and  CA_177
REMARK   53  A    between atoms: CA_177  and  CB_179
REMARK   54  A    between atoms: CA_177  and  C_197
REMARK   55  A    between atoms: CB_179  and  CG_182
REMARK   56  A    between atoms: CG_182  and  CD_185
REMARK   57  A    between atoms: CD_185  and  NE_188
REMARK   58  A    between atoms: N_199  and  CA_201
REMARK   59  A    between atoms: CA_201  and  CB_203
REMARK   60  A    between atoms: CA_201  and  C_211
REMARK   61  A    between atoms: CB_203  and  CG2_205
REMARK   62  A    between atoms: CB_203  and  OG1_209
REMARK   63  A    between atoms: N_213  and  CA_215
REMARK   64  A    between atoms: CA_215  and  CB_217
REMARK   65  A    between atoms: CA_215  and  C_222
REMARK   66  A    between atoms: CB_217  and  OG_220
REMARK   67  A    between atoms: N_224  and  CA_226
REMARK   68  A    between atoms: CA_226  and  CB_228
REMARK   69  A    between atoms: CA_226  and  C_233
REMARK   70  A    between atoms: CB_228  and  SG_231
REMARK   71  A    between atoms: N_235  and  CA_237
REMARK   72  A    between atoms: CA_237  and  CB_239
REMARK   73  A    between atoms: CA_237  and  C_250
REMARK   74  A    between atoms: CB_239  and  CG_242
REMARK   75  A    between atoms: CG_242  and  SD_245
REMARK   76  A    between atoms: SD_245  and  CE_246
REMARK   77  A    between atoms: N_252  and  CA_254
REMARK   78  A    between atoms: CA_254  and  CB_256
REMARK   79  A    between atoms: CA_254  and  C_271
REMARK   80  A    between atoms: CB_256  and  CG_259
REMARK   81  A    between atoms: CZ_264  and  OH_265
REMARK   82  A    between atoms: N_273  and  CA_275
REMARK   83  A    between atoms: CA_275  and  C_278
REMARK   84  A    between atoms: N_280  and  CA_282
REMARK   85  A    between atoms: CA_282  and  CB_284
REMARK   86  A    between atoms: CA_282  and  C_288
REMARK   87  A    between atoms: N_290  and  CA_292
REMARK   88  A    between atoms: CA_292  and  CB_294
REMARK   89  A    between atoms: CA_292  and  C_302
REMARK   90  A    between atoms: CB_294  and  CG_297
REMARK   91  A    between atoms: N_304  and  CA_306
REMARK   92  A    between atoms: CA_306  and  CB_308
REMARK   93  A    between atoms: CA_306  and  C_313
REMARK   94  A    between atoms: CB_308  and  SG_311
REMARK   95  A    between atoms: N_315  and  CA_317
REMARK   96  A    between atoms: CA_317  and  CB_319
REMARK   97  A    between atoms: CA_317  and  C_334
REMARK   98  A    between atoms: CB_319  and  CG_322
REMARK   99  A    between atoms: CZ_327  and  OH_328
REMARK  100  A    between atoms: N_336  and  CA_338
REMARK  101  A    between atoms: CA_338  and  CB_340
REMARK  102  A    between atoms: CA_338  and  C_358
REMARK  103  A    between atoms: CB_340  and  CG_343
REMARK  104  A    between atoms: CG_343  and  CD_346
REMARK  105  A    between atoms: CD_346  and  NE_349
REMARK  106  A    between atoms: N_360  and  CA_362
REMARK  107  A    between atoms: CA_362  and  CB_364
REMARK  108  A    between atoms: CA_362  and  C_380
REMARK  109  A    between atoms: CB_364  and  CG_367
REMARK  110  A    between atoms: CG_367  and  CD_370
REMARK  111  A    between atoms: CD_370  and  CE_373
REMARK  112  A    between atoms: CE_373  and  NZ_376
REMARK  113  A    between atoms: N_382  and  CA_384
REMARK  114  A    between atoms: CA_384  and  CB_386
REMARK  115  A    between atoms: CA_384  and  C_394
REMARK  116  A    between atoms: CB_386  and  CG_389
REMARK  117  A    between atoms: CA_406  and  C_408
REMARK  118  A    between atoms: N_410  and  CA_412
REMARK  119  A    between atoms: CA_412  and  CB_414
REMARK  120  A    between atoms: CA_412  and  C_424
REMARK  121  A    between atoms: CB_414  and  CG1_416
REMARK  122  A    between atoms: CB_414  and  CG2_420
REMARK  123  A    between atoms: N_426  and  CA_428
REMARK  124  A    between atoms: CA_428  and  CB_430
REMARK  125  A    between atoms: CA_428  and  C_441
REMARK  126  A    between atoms: CB_430  and  CG_433
REMARK  127  A    between atoms: N_443  and  CA_445
REMARK  128  A    between atoms: CA_445  and  CB_447
REMARK  129  A    between atoms: CA_445  and  C_461
REMARK  130  A    between atoms: CB_447  and  CG_450
REMARK  131  A    between atoms: N_463  and  CA_465
REMARK  132  A    between atoms: CA_465  and  CB_467
REMARK  133  A    between atoms: CA_465  and  C_478
REMARK  134  A    between atoms: CB_467  and  CG_470
REMARK  135  A    between atoms: CG_470  and  CD_473
REMARK  136  A    between atoms: N_480  and  CA_482
REMARK  137  A    between atoms: CA_482  and  CB_484
REMARK  138  A    between atoms: CA_482  and  C_495
REMARK  139  A    between atoms: CB_484  and  CG_487
REMARK  140  A    between atoms: N_497  and  CA_499
REMARK  141  A    between atoms: CA_499  and  CB_501
REMARK  142  A    between atoms: CA_499  and  C_515
REMARK  143  A    between atoms: CB_501  and  CG_504
REMARK  144  A    between atoms: N_517  and  CA_519
REMARK  145  A    between atoms: CA_519  and  CB_521
REMARK  146  A    between atoms: CA_519  and  C_526
REMARK  147  A    between atoms: CB_521  and  OG_524
REMARK  148  A    between atoms: N_528  and  CA_530
REMARK  149  A    between atoms: CA_530  and  CB_532
REMARK  150  A    between atoms: CA_530  and  C_543
REMARK  151  A    between atoms: CB_532  and  CG_535
REMARK  152  A    between atoms: CA_555  and  C_557
REMARK  153  A    between atoms: N_559  and  CA_561
REMARK  154  A    between atoms: CA_561  and  C_564
REMARK  155  A    between atoms: N_566  and  CA_568
REMARK  156  A    between atoms: CA_568  and  CB_570
REMARK  157  A    between atoms: CA_568  and  C_576
REMARK  158  A    between atoms: CB_570  and  CG_573
REMARK  159  A    between atoms: N_578  and  CA_580
REMARK  160  A    between atoms: CA_580  and  CB_582
REMARK  161  A    between atoms: CA_580  and  C_587
REMARK  162  A    between atoms: CB_582  and  OG_585
REMARK  163  A    between atoms: N_589  and  CA_591
REMARK  164  A    between atoms: CA_591  and  CB_593
REMARK  165  A    between atoms: CA_591  and  C_599
REMARK  166  A    between atoms: CB_593  and  CG_596
REMARK  167  A    between atoms: CA_603  and  CB_605
REMARK  168  A    between atoms: CB_605  and  CG_608
REMARK  169  A    between atoms: CZ_613  and  OH_614
REMARK  170  A    between atoms: N_622  and  CA_623
REMARK  171  A    between atoms: CA_623  and  C_624
REMARK  172  A    between atoms: N_629  and  CA_630
REMARK  173  A    between atoms: CA_630  and  C_631
REMARK  174  A    between atoms: N_636  and  CA_637
REMARK  175  A    between atoms: CA_637  and  C_638
REMARK  176  A    between atoms: CA_637  and  CB_640
REMARK  177  A    between atoms: CB_640  and  CG1_641
REMARK  178  A    between atoms: CB_640  and  CG2_642
REMARK  179  A    between atoms: N_652  and  CA_653
REMARK  180  A    between atoms: CA_653  and  C_654
REMARK  181  A    between atoms: CA_653  and  CB_656
REMARK  182  A    between atoms: CB_656  and  CG_657
REMARK  183  A    between atoms: CG_657  and  CD_658
REMARK  184  A    between atoms: N_669  and  CA_670
REMARK  185  A    between atoms: CA_670  and  C_671
REMARK  186  A    between atoms: CA_670  and  CB_673
REMARK  187  A    between atoms: CB_673  and  CG1_674
REMARK  188  A    between atoms: CB_673  and  CG2_675
REMARK  189  A    between atoms: CG1_674  and  CD1_676
REMARK  190  A    between atoms: N_688  and  CA_689
REMARK  191  A    between atoms: CA_689  and  C_690
REMARK  192  A    between atoms: CA_689  and  CB_692
REMARK  193  A    between atoms: CB_692  and  CG1_693
REMARK  194  A    between atoms: CB_692  and  CG2_694
REMARK  195  A    between atoms: N_704  and  CA_705
REMARK  196  A    between atoms: CA_705  and  C_706
REMARK  197  A    between atoms: N_711  and  CA_712
REMARK  198  A    between atoms: CA_712  and  C_713
REMARK  199  A    between atoms: CA_712  and  CB_715
REMARK  200  A    between atoms: CB_715  and  CG_716
REMARK  201  A    between atoms: CG_716  and  CD_717
REMARK  202  A    between atoms: N_728  and  CA_729
REMARK  203  A    between atoms: CA_729  and  C_730
REMARK  204  A    between atoms: CA_729  and  CB_732
REMARK  205  A    between atoms: CB_732  and  CG_733
REMARK  206  A    between atoms: N_740  and  CA_741
REMARK  207  A    between atoms: CA_741  and  C_742
REMARK  208  A    between atoms: CA_741  and  CB_744
REMARK  209  A    between atoms: CB_744  and  CG_745
REMARK  210  A    between atoms: CG_745  and  CD_746
REMARK  211  A    between atoms: N_755  and  CA_756
REMARK  212  A    between atoms: CA_756  and  C_757
REMARK  213  A    between atoms: CA_756  and  CB_759
REMARK  214  A    between atoms: CB_759  and  OG1_760
REMARK  215  A    between atoms: CB_759  and  CG2_761
REMARK  216  A    between atoms: N_769  and  CA_770
REMARK  217  A    between atoms: CA_770  and  C_771
REMARK  218  A    between atoms: CA_770  and  CB_773
REMARK  219  A    between atoms: CB_773  and  CG_774
REMARK  220  A    between atoms: N_781  and  CA_782
REMARK  221  A    between atoms: CA_782  and  C_783
REMARK  222  A    between atoms: CA_782  and  CB_785
REMARK  223  A    between atoms: CB_785  and  CG_786
REMARK  224  A    between atoms: N_793  and  CA_794
REMARK  225  A    between atoms: CA_794  and  C_795
REMARK  226  A    between atoms: CA_794  and  CB_797
REMARK  227  A    between atoms: CB_797  and  CG_798
REMARK  228  A    between atoms: CG_798  and  CD_799
REMARK  229  A    between atoms: CD_799  and  NE_800
REMARK  230  A    between atoms: CA_818  and  C_819
REMARK  231  A    between atoms: N_831  and  CA_832
REMARK  232  A    between atoms: CA_832  and  C_833
REMARK  233  A    between atoms: CA_832  and  CB_835
REMARK  234  A    between atoms: CB_835  and  CG_836
REMARK  235  A    between atoms: CG_836  and  CD_837
REMARK  236  A    between atoms: N_846  and  CA_847
REMARK  237  A    between atoms: CA_847  and  C_848
REMARK  238  A    between atoms: CA_847  and  CB_850
REMARK  239  A    between atoms: CB_850  and  SG_851
REMARK  240  A    between atoms: CA_858  and  C_859
REMARK  241  A    between atoms: N_871  and  CA_872
REMARK  242  A    between atoms: CA_872  and  C_873
REMARK  243  A    between atoms: CA_872  and  CB_875
REMARK  244  A    between atoms: CB_875  and  CG_876
REMARK  245  A    between atoms: CZ_881  and  OH_882
REMARK  246  A    between atoms: N_892  and  CA_893
REMARK  247  A    between atoms: CA_893  and  C_894
REMARK  248  A    between atoms: CA_900  and  C_901
REMARK  249  A    between atoms: N_913  and  CA_914
REMARK  250  A    between atoms: CA_914  and  C_915
REMARK  251  A    between atoms: CA_914  and  CB_917
REMARK  252  A    between atoms: CB_917  and  OG_918
REMARK  253  A    between atoms: N_924  and  CA_925
REMARK  254  A    between atoms: CA_925  and  C_926
REMARK  255  A    between atoms: CA_925  and  CB_928
REMARK  256  A    between atoms: CB_928  and  SG_929
REMARK  257  A    between atoms: N_935  and  CA_936
REMARK  258  A    between atoms: CA_936  and  C_937
REMARK  259  A    between atoms: CA_936  and  CB_939
REMARK  260  A    between atoms: CB_939  and  CG_940
REMARK  261  A    between atoms: CZ_945  and  OH_946
REMARK  262  A    between atoms: N_956  and  CA_957
REMARK  263  A    between atoms: CA_957  and  C_958
REMARK  264  A    between atoms: CA_957  and  CB_960
REMARK  265  A    between atoms: CB_960  and  CG_961
REMARK  266  A    between atoms: CG_961  and  CD_962
REMARK  267  A    between atoms: CD_962  and  NE_963
REMARK  268  A    between atoms: N_980  and  CA_981
REMARK  269  A    between atoms: CA_981  and  C_982
REMARK  270  A    between atoms: CA_981  and  CB_984
REMARK  271  A    between atoms: CB_984  and  CG_985
REMARK  272  A    between atoms: CG_985  and  CD_986
REMARK  273  A    between atoms: CD_986  and  CE_987
REMARK  274  A    between atoms: CE_987  and  NZ_988
REMARK  275  A    between atoms: N_1002  and  CA_1003
REMARK  276  A    between atoms: CA_1003  and  C_1004
REMARK  277  A    between atoms: CA_1003  and  CB_1006
REMARK  278  A    between atoms: CB_1006  and  CG_1007
REMARK  279  A    between atoms: CA_1017  and  C_1018
REMARK  280  A    between atoms: N_1030  and  CA_1031
REMARK  281  A    between atoms: CA_1031  and  C_1032
REMARK  282  A    between atoms: CA_1031  and  CB_1034
REMARK  283  A    between atoms: CB_1034  and  CG_1035
REMARK  284  A    between atoms: CG_1035  and  CD_1036
REMARK  285  A    between atoms: N_1047  and  CA_1048
REMARK  286  A    between atoms: CA_1048  and  C_1049
REMARK  287  A    between atoms: CA_1048  and  CB_1051
REMARK  288  A    between atoms: CB_1051  and  CG_1052
REMARK  289  A    between atoms: N_1064  and  CA_1065
REMARK  290  A    between atoms: CA_1065  and  C_1066
REMARK  291  A    between atoms: CA_1065  and  CB_1068
REMARK  292  A    between atoms: CB_1068  and  CG_1069
REMARK  293  A    between atoms: CG_1069  and  CD_1070
REMARK  294  A    between atoms: CD_1070  and  CE_1071
REMARK  295  A    between atoms: CE_1071  and  NZ_1072
REMARK  296  A    between atoms: N_1086  and  CA_1087
REMARK  297  A    between atoms: CA_1087  and  C_1088
REMARK  298  A    between atoms: CA_1087  and  CB_1090
REMARK  299  A    between atoms: CB_1090  and  CG1_1091
REMARK  300  A    between atoms: CB_1090  and  CG2_1092
REMARK  301  A    between atoms: CG1_1091  and  CD1_1093
REMARK  302  A    between atoms: N_1105  and  CA_1106
REMARK  303  A    between atoms: CA_1106  and  C_1107
REMARK  304  A    between atoms: CA_1106  and  CB_1109
REMARK  305  A    between atoms: CB_1109  and  CG_1110
REMARK  306  A    between atoms: CG_1110  and  CD_1111
REMARK  307  A    between atoms: N_1120  and  CA_1121
REMARK  308  A    between atoms: CA_1121  and  C_1122
REMARK  309  A    between atoms: CA_1121  and  CB_1124
REMARK  310  A    between atoms: CB_1124  and  CG_1125
REMARK  311  A    between atoms: CZ_1130  and  OH_1131
REMARK  312  A    between atoms: N_1141  and  CA_1142
REMARK  313  A    between atoms: CA_1142  and  C_1143
REMARK  314  A    between atoms: CA_1142  and  CB_1145
REMARK  315  A    between atoms: CB_1145  and  CG_1146
REMARK  316  A    between atoms: CG_1146  and  CD_1147
REMARK  317  A    between atoms: CD_1147  and  NE_1148
REMARK  318  A    between atoms: N_1165  and  CA_1166
REMARK  319  A    between atoms: CA_1166  and  C_1167
REMARK  320  A    between atoms: CA_1166  and  CB_1169
REMARK  321  A    between atoms: CB_1169  and  CG_1170
REMARK  322  A    between atoms: N_1182  and  CA_1183
REMARK  323  A    between atoms: CA_1183  and  C_1184
REMARK  324  A    between atoms: CA_1183  and  CB_1186
REMARK  325  A    between atoms: CB_1186  and  CG_1187
REMARK  326  A    between atoms: N_1196  and  CA_1197
REMARK  327  A    between atoms: CA_1197  and  C_1198
REMARK  328  A    between atoms: CA_1197  and  CB_1200
REMARK  329  A    between atoms: CB_1200  and  OG1_1201
REMARK  330  A    between atoms: CB_1200  and  CG2_1202
REMARK  331  A    between atoms: N_1210  and  CA_1211
REMARK  332  A    between atoms: CA_1211  and  C_1212
REMARK  333  A    between atoms: CA_1211  and  CB_1214
REMARK  334  A    between atoms: CB_1214  and  CG_1215
REMARK  335  A    between atoms: CG_1215  and  CD1_1216
REMARK  336  A    between atoms: CG_1215  and  CD2_1217
REMARK  337  A    between atoms: CA_1230  and  C_1231
REMARK  338  A    between atoms: N_1243  and  CA_1244
REMARK  339  A    between atoms: CA_1244  and  C_1245
REMARK  340  A    between atoms: CA_1244  and  CB_1247
REMARK  341  A    between atoms: CB_1247  and  CG1_1248
REMARK  342  A    between atoms: CB_1247  and  CG2_1249
REMARK  343  A    between atoms: N_1259  and  CA_1260
REMARK  344  A    between atoms: CA_1260  and  C_1261
REMARK  345  A    between atoms: CA_1260  and  CB_1263
REMARK  346  A    between atoms: CB_1263  and  CG_1264
REMARK  347  A    between atoms: CG_1264  and  CD_1265
REMARK  348  A    between atoms: CD_1265  and  NE_1266
REMARK  349  A    between atoms: N_1283  and  CA_1284
REMARK  350  A    between atoms: CA_1284  and  C_1285
REMARK  351  A    between atoms: CA_1284  and  CB_1287
REMARK  352  A    between atoms: CB_1287  and  CG_1288
REMARK  353  A    between atoms: N_1297  and  CA_1298
REMARK  354  A    between atoms: CA_1298  and  C_1299
REMARK  355  A    between atoms: CA_1298  and  CB_1301
REMARK  356  A    between atoms: CB_1301  and  CG1_1302
REMARK  357  A    between atoms: CB_1301  and  CG2_1303
REMARK  358  A    between atoms: N_1313  and  CA_1314
REMARK  359  A    between atoms: CA_1314  and  C_1315
REMARK  360  A    between atoms: CA_1314  and  CB_1317
REMARK  361  A    between atoms: CB_1317  and  CG_1318
REMARK  362  A    between atoms: CG_1318  and  CD1_1319
REMARK  363  A    between atoms: CG_1318  and  CD2_1320
REMARK  364  A    between atoms: N_1332  and  CA_1333
REMARK  365  A    between atoms: CA_1333  and  C_1334
REMARK  366  A    between atoms: CA_1333  and  CB_1336
REMARK  367  A    between atoms: CB_1336  and  CG_1337
REMARK  368  A    between atoms: N_1344  and  CA_1345
REMARK  369  A    between atoms: CA_1345  and  C_1346
REMARK  370  A    between atoms: CA_1345  and  CB_1348
REMARK  371  A    between atoms: CB_1348  and  CG_1349
REMARK  372  A    between atoms: CG_1349  and  CD_1350
REMARK                            x       y       z     vdW  Elec       q    Type
REMARK                         _______ _______ _______ _____ _____    ______ ____
ROOT
ATOM      1  CA  LYS A  68      -1.447   7.656  -1.504  0.00  0.00    +0.000 C 
ENDROOT
BRANCH   1   4
ATOM      2  C   ARG A  67      -0.956   7.086   0.813  0.00  0.00    +0.000 C 
ATOM      3  O   ARG A  67      -1.446   5.987   0.636  0.00  0.00    +0.000 OA
ATOM      4  N   LYS A  68      -0.902   7.979  -0.155  0.00  0.00    +0.000 N 
ATOM      5  H   LYS A  68      -0.508   8.864   0.005  0.00  0.00    +0.000 HD
BRANCH   2   6
ATOM      6  CA  ARG A  67      -0.384   7.485   2.181  0.00  0.00    +0.000 C 
BRANCH   6   9
ATOM      7  C   TYR A  66      -2.126   7.779   3.863  0.00  0.00    +0.000 C 
ATOM      8  O   TYR A  66      -2.224   8.931   3.481  0.00  0.00    +0.000 OA
ATOM      9  N   ARG A  67      -1.253   6.964   3.294  0.00  0.00    +0.000 N 
ATOM     10  H   ARG A  67      -1.186   6.035   3.576  0.00  0.00    +0.000 HD
BRANCH   7  11
ATOM     11  CA  TYR A  66      -3.047   7.271   5.020  0.00  0.00    +0.000 C 
BRANCH  11  14
ATOM     12  C   CYS A  65      -3.330   4.864   4.580  0.00  0.00    +0.000 C 
ATOM     13  O   CYS A  65      -3.987   5.132   3.593  0.00  0.00    +0.000 OA
ATOM     14  N   TYR A  66      -2.826   5.810   5.343  0.00  0.00    +0.000 N 
ATOM     15  H   TYR A  66      -2.316   5.562   6.133  0.00  0.00    +0.000 HD
BRANCH  12  16
ATOM     16  CA  CYS A  65      -3.062   3.401   4.989  0.00  0.00    +0.000 C 
BRANCH  16  19
ATOM     17  C   SER A  64      -4.356   2.857   6.990  0.00  0.00    +0.000 C 
ATOM     18  O   SER A  64      -3.488   3.370   7.672  0.00  0.00    +0.000 OA
ATOM     19  N   CYS A  65      -4.255   2.815   5.677  0.00  0.00    +0.000 N 
ATOM     20  H   CYS A  65      -4.952   2.391   5.148  0.00  0.00    +0.000 HD
BRANCH  17  21
ATOM     21  CA  SER A  64      -5.603   2.229   7.640  0.00  0.00    +0.000 C 
BRANCH  21  24
ATOM     22  C   PRO A  63      -6.499   0.601   6.040  0.00  0.00    +0.000 C 
ATOM     23  O   PRO A  63      -6.989   1.523   5.416  0.00  0.00    +0.000 OA
ATOM     24  N   SER A  64      -5.803   0.821   7.139  0.00  0.00    +0.000 N 
ATOM     25  H   SER A  64      -5.432   0.067   7.637  0.00  0.00    +0.000 HD
BRANCH  22  29
ATOM     26  C   GLY A  62      -4.330  -1.425   5.229  0.00  0.00    +0.000 C 
ATOM     27  O   GLY A  62      -4.196  -0.545   4.403  0.00  0.00    +0.000 OA
ATOM     28  N   PRO A  63      -5.472  -1.668   5.852  0.00  0.00    +0.000 N 
ATOM     29  CA  PRO A  63      -6.685  -0.850   5.562  0.00  0.00    +0.000 C 
ATOM     30  CB  PRO A  63      -7.792  -1.552   6.347  0.00  0.00    +0.000 C 
ATOM     31  CG  PRO A  63      -7.082  -2.282   7.437  0.00  0.00    +0.000 C 
ATOM     32  CD  PRO A  63      -5.751  -2.695   6.871  0.00  0.00    +0.000 C 
BRANCH  26  33
ATOM     33  CA  GLY A  62      -3.139  -2.336   5.589  0.00  0.00    +0.000 C 
BRANCH  33  36
ATOM     34  C   TYR A  61      -1.630  -0.966   6.936  0.00  0.00    +0.000 C 
ATOM     35  O   TYR A  61      -2.391  -1.090   7.877  0.00  0.00    +0.000 OA
ATOM     36  N   GLY A  62      -1.891  -1.528   5.770  0.00  0.00    +0.000 N 
ATOM     37  H   GLY A  62      -1.260  -1.434   5.023  0.00  0.00    +0.000 HD
BRANCH  34  38
ATOM     38  CA  TYR A  61      -0.325  -0.162   7.085  0.00  0.00    +0.000 C 
BRANCH  38  41
ATOM     39  C   PRO A  60       1.127  -2.136   7.109  0.00  0.00    +0.000 C 
ATOM     40  O   PRO A  60       0.461  -2.581   8.025  0.00  0.00    +0.000 OA
ATOM     41  N   TYR A  61       0.843  -0.966   6.566  0.00  0.00    +0.000 N 
ATOM     42  H   TYR A  61       1.384  -0.619   5.816  0.00  0.00    +0.000 HD
BRANCH  39  46
ATOM     43  C   CYS A  59       1.435  -3.310   4.310  0.00  0.00    +0.000 C 
ATOM     44  O   CYS A  59       0.491  -3.931   4.756  0.00  0.00    +0.000 OA
ATOM     45  N   PRO A  60       2.376  -2.783   5.068  0.00  0.00    +0.000 N 
ATOM     46  CA  PRO A  60       2.315  -2.934   6.545  0.00  0.00    +0.000 C 
ATOM     47  CB  PRO A  60       3.646  -2.356   7.024  0.00  0.00    +0.000 C 
ATOM     48  CG  PRO A  60       4.063  -1.419   5.939  0.00  0.00    +0.000 C 
ATOM     49  CD  PRO A  60       3.563  -2.014   4.652  0.00  0.00    +0.000 C 
BRANCH  43  50
ATOM     50  CA  CYS A  59       1.562  -3.090   2.790  0.00  0.00    +0.000 C 
BRANCH  50  53
ATOM     51  C   GLU A  58       1.859  -5.475   2.305  0.00  0.00    +0.000 C 
ATOM     52  O   GLU A  58       2.758  -5.497   3.125  0.00  0.00    +0.000 OA
ATOM     53  N   CYS A  59       1.200  -4.359   2.054  0.00  0.00    +0.000 N 
ATOM     54  H   CYS A  59       0.470  -4.351   1.394  0.00  0.00    +0.000 HD
BRANCH  51  55
ATOM     55  CA  GLU A  58       1.462  -6.760   1.544  0.00  0.00    +0.000 C 
BRANCH  55  58
ATOM     56  C   PRO A  57       2.395  -8.210  -0.238  0.00  0.00    +0.000 C 
ATOM     57  O   PRO A  57       1.483  -8.985  -0.045  0.00  0.00    +0.000 OA
ATOM     58  N   GLU A  58       2.489  -7.090   0.476  0.00  0.00    +0.000 N 
ATOM     59  H   GLU A  58       3.214  -6.458   0.319  0.00  0.00    +0.000 HD
BRANCH  56  63
ATOM     60  C   ARG A  56       2.143  -8.506  -3.388  0.00  0.00    +0.000 C 
ATOM     61  O   ARG A  56       1.536  -9.508  -3.066  0.00  0.00    +0.000 OA
ATOM     62  N   PRO A  57       3.080  -7.949  -2.639  0.00  0.00    +0.000 N 
ATOM     63  CA  PRO A  57       3.454  -8.533  -1.326  0.00  0.00    +0.000 C 
ATOM     64  CB  PRO A  57       4.820  -7.908  -1.031  0.00  0.00    +0.000 C 
ATOM     65  CG  PRO A  57       4.850  -6.625  -1.805  0.00  0.00    +0.000 C 
ATOM     66  CD  PRO A  57       3.867  -6.750  -2.943  0.00  0.00    +0.000 C 
BRANCH  60  67
ATOM     67  CA  ARG A  56       1.840  -7.814  -4.737  0.00  0.00    +0.000 C 
BRANCH  67  70
ATOM     68  C   ASP A  55       2.254  -8.835  -6.908  0.00  0.00    +0.000 C 
ATOM     69  O   ASP A  55       3.153  -8.034  -7.088  0.00  0.00    +0.000 OA
ATOM     70  N   ARG A  56       1.543  -8.825  -5.796  0.00  0.00    +0.000 N 
ATOM     71  H   ARG A  56       0.810  -9.467  -5.664  0.00  0.00    +0.000 HD
BRANCH  68  72
ATOM     72  CA  ASP A  55       1.907  -9.876  -7.982  0.00  0.00    +0.000 C 
BRANCH  72  75
ATOM     73  C   ASP A  54      -0.352 -10.794  -8.069  0.00  0.00    +0.000 C 
ATOM     74  O   ASP A  54       0.064 -11.817  -7.560  0.00  0.00    +0.000 OA
ATOM     75  N   ASP A  55       0.455  -9.783  -8.320  0.00  0.00    +0.000 N 
ATOM     76  H   ASP A  55       0.103  -8.966  -8.723  0.00  0.00    +0.000 HD
BRANCH  73  77
ATOM     77  CA  ASP A  54      -1.846 -10.652  -8.431  0.00  0.00    +0.000 C 
BRANCH  77  80
ATOM     78  C   THR A  53      -2.834  -8.719  -7.303  0.00  0.00    +0.000 C 
ATOM     79  O   THR A  53      -3.001  -9.409  -6.313  0.00  0.00    +0.000 OA
ATOM     80  N   ASP A  54      -2.283  -9.211  -8.392  0.00  0.00    +0.000 N 
ATOM     81  H   ASP A  54      -2.150  -8.631  -9.180  0.00  0.00    +0.000 HD
BRANCH  78  82
ATOM     82  CA  THR A  53      -3.250  -7.239  -7.314  0.00  0.00    +0.000 C 
BRANCH  82  85
ATOM     83  C   GLU A  52      -4.123  -6.331  -9.402  0.00  0.00    +0.000 C 
ATOM     84  O   GLU A  52      -3.020  -5.874  -9.640  0.00  0.00    +0.000 OA
ATOM     85  N   THR A  53      -4.355  -7.014  -8.298  0.00  0.00    +0.000 N 
ATOM     86  H   THR A  53      -5.250  -7.378  -8.117  0.00  0.00    +0.000 HD
BRANCH  83  87
ATOM     87  CA  GLU A  52      -5.290  -6.125 -10.386  0.00  0.00    +0.000 C 
BRANCH  87  90
ATOM     88  C   ASP A  51      -6.215  -4.259  -9.088  0.00  0.00    +0.000 C 
ATOM     89  O   ASP A  51      -5.102  -3.771  -9.029  0.00  0.00    +0.000 OA
ATOM     90  N   GLU A  52      -6.425  -5.401  -9.721  0.00  0.00    +0.000 N 
ATOM     91  H   GLU A  52      -7.328  -5.785  -9.763  0.00  0.00    +0.000 HD
BRANCH  88  92
ATOM     92  CA  ASP A  51      -7.417  -3.557  -8.426  0.00  0.00    +0.000 C 
BRANCH  92  95
ATOM     93  C   GLN A  50      -9.419  -4.153  -7.154  0.00  0.00    +0.000 C 
ATOM     94  O   GLN A  50      -9.822  -3.013  -7.295  0.00  0.00    +0.000 OA
ATOM     95  N   ASP A  51      -8.261  -4.533  -7.661  0.00  0.00    +0.000 N 
ATOM     96  H   ASP A  51      -7.952  -5.453  -7.545  0.00  0.00    +0.000 HD
BRANCH  93  97
ATOM     97  CA  GLN A  50     -10.256  -5.187  -6.382  0.00  0.00    +0.000 C 
BRANCH  97 100
ATOM     98  C   GLY A  49      -9.867  -7.138  -7.845  0.00  0.00    +0.000 C 
ATOM     99  O   GLY A  49      -8.683  -7.089  -7.580  0.00  0.00    +0.000 OA
ATOM    100  N   GLN A  50     -10.713  -6.272  -7.323  0.00  0.00    +0.000 N 
ATOM    101  H   GLN A  50     -11.657  -6.321  -7.553  0.00  0.00    +0.000 HD
BRANCH  98 102
ATOM    102  CA  GLY A  49     -10.415  -8.210  -8.801  0.00  0.00    +0.000 C 
BRANCH 102 105
ATOM    103  C   VAL A  48     -12.705  -8.986  -9.111  0.00  0.00    +0.000 C 
ATOM    104  O   VAL A  48     -12.585  -8.807 -10.309  0.00  0.00    +0.000 OA
ATOM    105  N   GLY A  49     -11.715  -8.729  -8.280  0.00  0.00    +0.000 N 
ATOM    106  H   GLY A  49     -11.824  -8.878  -7.314  0.00  0.00    +0.000 HD
BRANCH 103 107
ATOM    107  CA  VAL A  48     -14.025  -9.520  -8.524  0.00  0.00    +0.000 C 
BRANCH 107 110
ATOM    108  C   ILE A  47     -14.326  -8.582  -6.293  0.00  0.00    +0.000 C 
ATOM    109  O   ILE A  47     -13.585  -9.443  -5.853  0.00  0.00    +0.000 OA
ATOM    110  N   VAL A  48     -14.613  -8.520  -7.578  0.00  0.00    +0.000 N 
ATOM    111  H   VAL A  48     -15.210  -7.822  -7.917  0.00  0.00    +0.000 HD
BRANCH 108 112
ATOM    112  CA  ILE A  47     -14.954  -7.533  -5.358  0.00  0.00    +0.000 C 
BRANCH 112 115
ATOM    113  C   GLN A  46     -17.139  -6.588  -5.888  0.00  0.00    +0.000 C 
ATOM    114  O   GLN A  46     -16.589  -5.566  -6.255  0.00  0.00    +0.000 OA
ATOM    115  N   ILE A  47     -16.444  -7.612  -5.433  0.00  0.00    +0.000 N 
ATOM    116  H   ILE A  47     -16.900  -8.432  -5.139  0.00  0.00    +0.000 HD
BRANCH 113 117
ATOM    117  CA  GLN A  46     -18.669  -6.718  -5.945  0.00  0.00    +0.000 C 
BRANCH 117 120
ATOM    118  C   VAL A  45     -20.108  -4.756  -5.807  0.00  0.00    +0.000 C 
ATOM    119  O   VAL A  45     -20.406  -5.074  -4.671  0.00  0.00    +0.000 OA
ATOM    120  N   GLN A  46     -19.273  -5.480  -6.523  0.00  0.00    +0.000 N 
ATOM    121  H   GLN A  46     -19.043  -5.211  -7.440  0.00  0.00    +0.000 HD
BRANCH 118 122
ATOM    122  CA  VAL A  45     -20.700  -3.493  -6.453  0.00  0.00    +0.000 C 
BRANCH 122 125
ATOM    123  C   GLY A  44     -20.903  -3.394  -8.879  0.00  0.00    +0.000 C 
ATOM    124  O   GLY A  44     -19.922  -2.674  -8.917  0.00  0.00    +0.000 OA
ATOM    125  N   VAL A  45     -21.372  -3.853  -7.737  0.00  0.00    +0.000 N 
ATOM    126  H   VAL A  45     -22.165  -4.435  -7.723  0.00  0.00    +0.000 HD
BRANCH 123 127
ATOM    127  CA  GLY A  44     -21.632  -3.795 -10.168  0.00  0.00    +0.000 C 
BRANCH 127 130
ATOM    128  C   GLY A  43     -22.914  -2.409 -11.709  0.00  0.00    +0.000 C 
ATOM    129  O   GLY A  43     -22.253  -2.851 -12.630  0.00  0.00    +0.000 OA
ATOM    130  N   GLY A  44     -22.699  -2.796 -10.467  0.00  0.00    +0.000 N 
ATOM    131  H   GLY A  44     -23.240  -2.432  -9.731  0.00  0.00    +0.000 HD
BRANCH 128 132
ATOM    132  CA  GLY A  43     -24.024  -1.379 -11.965  0.00  0.00    +0.000 C 
BRANCH 132 133
ATOM    133  N   GLY A  43     -24.796  -1.770 -13.179  0.00  0.00    +0.000 NA
ATOM    134  H   GLY A  43     -25.755  -1.371 -13.124  0.00  0.00    +0.000 HD
ENDBRANCH 132 133
ENDBRANCH 128 132
ENDBRANCH 127 130
ENDBRANCH 123 127
ENDBRANCH 122 125
BRANCH 122 135
ATOM    135  CB  VAL A  45     -21.808  -2.895  -5.580  0.00  0.00    +0.000 C 
ATOM    136  CG1 VAL A  45     -21.241  -2.506  -4.212  0.00  0.00    +0.000 C 
ATOM    137  CG2 VAL A  45     -22.378  -1.649  -6.262  0.00  0.00    +0.000 C 
ENDBRANCH 122 135
ENDBRANCH 118 122
ENDBRANCH 117 120
BRANCH 117 138
ATOM    138  CB  GLN A  46     -19.078  -7.840  -6.900  0.00  0.00    +0.000 C 
BRANCH 138 139
ATOM    139  CG  GLN A  46     -20.544  -8.208  -6.661  0.00  0.00    +0.000 C 
BRANCH 139 140
ATOM    140  CD  GLN A  46     -21.436  -7.446  -7.651  0.00  0.00    +0.000 C 
ATOM    141  OE1 GLN A  46     -21.042  -6.420  -8.171  0.00  0.00    +0.000 OA
ATOM    142  NE2 GLN A  46     -22.632  -7.900  -7.937  0.00  0.00    +0.000 N 
ATOM    143 HE21 GLN A  46     -22.962  -8.727  -7.523  0.00  0.00    +0.000 HD
ATOM    144 HE22 GLN A  46     -23.200  -7.412  -8.570  0.00  0.00    +0.000 HD
ENDBRANCH 139 140
ENDBRANCH 138 139
ENDBRANCH 117 138
ENDBRANCH 113 117
ENDBRANCH 112 115
BRANCH 112 145
ATOM    145  CB  ILE A  47     -14.611  -7.831  -3.893  0.00  0.00    +0.000 C 
ATOM    146  CG2 ILE A  47     -13.093  -7.792  -3.699  0.00  0.00    +0.000 C 
BRANCH 145 147
ATOM    147  CG1 ILE A  47     -15.262  -6.778  -2.989  0.00  0.00    +0.000 C 
ATOM    148  CD1 ILE A  47     -15.682  -7.428  -1.669  0.00  0.00    +0.000 C 
ENDBRANCH 145 147
ENDBRANCH 112 145
ENDBRANCH 108 112
ENDBRANCH 107 110
BRANCH 107 149
ATOM    149  CB  VAL A  48     -15.077  -9.736  -9.630  0.00  0.00    +0.000 C 
ATOM    150  CG1 VAL A  48     -16.401 -10.183  -9.002  0.00  0.00    +0.000 C 
ATOM    151  CG2 VAL A  48     -15.298  -8.444 -10.440  0.00  0.00    +0.000 C 
ENDBRANCH 107 149
ENDBRANCH 103 107
ENDBRANCH 102 105
ENDBRANCH  98 102
ENDBRANCH  97 100
BRANCH  97 152
ATOM    152  CB  GLN A  50      -9.406  -5.820  -5.245  0.00  0.00    +0.000 C 
BRANCH 152 153
ATOM    153  CG  GLN A  50      -9.961  -7.182  -4.782  0.00  0.00    +0.000 C 
BRANCH 153 154
ATOM    154  CD  GLN A  50      -8.795  -8.148  -4.510  0.00  0.00    +0.000 C 
ATOM    155  OE1 GLN A  50      -8.737  -8.753  -3.458  0.00  0.00    +0.000 OA
ATOM    156  NE2 GLN A  50      -7.855  -8.325  -5.412  0.00  0.00    +0.000 N 
ATOM    157 HE21 GLN A  50      -7.885  -7.846  -6.268  0.00  0.00    +0.000 HD
ATOM    158 HE22 GLN A  50      -7.117  -8.942  -5.229  0.00  0.00    +0.000 HD
ENDBRANCH 153 154
ENDBRANCH 152 153
ENDBRANCH  97 152
ENDBRANCH  93  97
ENDBRANCH  92  95
BRANCH  92 159
ATOM    159  CB  ASP A  51      -6.933  -2.540  -7.388  0.00  0.00    +0.000 C 
BRANCH 159 160
ATOM    160  CG  ASP A  51      -6.323  -1.332  -8.101  0.00  0.00    +0.000 C 
ATOM    161  OD1 ASP A  51      -6.929  -0.860  -9.049  0.00  0.00    +0.000 OA
ATOM    162  OD2 ASP A  51      -5.260  -0.899  -7.687  0.00  0.00    +0.000 OA
ENDBRANCH 159 160
ENDBRANCH  92 159
ENDBRANCH  88  92
ENDBRANCH  87  90
BRANCH  87 163
ATOM    163  CB  GLU A  52      -4.865  -5.223 -11.551  0.00  0.00    +0.000 C 
BRANCH 163 164
ATOM    164  CG  GLU A  52      -4.539  -6.082 -12.775  0.00  0.00    +0.000 C 
BRANCH 164 165
ATOM    165  CD  GLU A  52      -5.789  -6.224 -13.647  0.00  0.00    +0.000 C 
ATOM    166  OE1 GLU A  52      -6.870  -6.311 -13.088  0.00  0.00    +0.000 OA
ATOM    167  OE2 GLU A  52      -5.643  -6.243 -14.858  0.00  0.00    +0.000 OA
ENDBRANCH 164 165
ENDBRANCH 163 164
ENDBRANCH  87 163
ENDBRANCH  83  87
ENDBRANCH  82  85
BRANCH  82 168
ATOM    168  CB  THR A  53      -3.819  -6.828  -5.953  0.00  0.00    +0.000 C 
ATOM    169  CG2 THR A  53      -3.347  -5.416  -5.606  0.00  0.00    +0.000 C 
BRANCH 168 170
ATOM    170  OG1 THR A  53      -5.240  -6.860  -5.998  0.00  0.00    +0.000 OA
ATOM    171  HG1 THR A  53      -5.567  -6.817  -5.096  0.00  0.00    +0.000 HD
ENDBRANCH 168 170
ENDBRANCH  82 168
ENDBRANCH  78  82
ENDBRANCH  77  80
BRANCH  77 172
ATOM    172  CB  ASP A  54      -2.093 -11.131  -9.867  0.00  0.00    +0.000 C 
BRANCH 172 173
ATOM    173  CG  ASP A  54      -1.849 -12.639  -9.952  0.00  0.00    +0.000 C 
ATOM    174  OD1 ASP A  54      -2.665 -13.382  -9.431  0.00  0.00    +0.000 OA
ATOM    175  OD2 ASP A  54      -0.850 -13.026 -10.536  0.00  0.00    +0.000 OA
ENDBRANCH 172 173
ENDBRANCH  77 172
ENDBRANCH  73  77
ENDBRANCH  72  75
BRANCH  72 176
ATOM    176  CB  ASP A  55       2.640  -9.569  -9.292  0.00  0.00    +0.000 C 
BRANCH 176 177
ATOM    177  CG  ASP A  55       3.954 -10.351  -9.341  0.00  0.00    +0.000 C 
ATOM    178  OD1 ASP A  55       3.927 -11.489  -9.780  0.00  0.00    +0.000 OA
ATOM    179  OD2 ASP A  55       4.965  -9.797  -8.942  0.00  0.00    +0.000 OA
ENDBRANCH 176 177
ENDBRANCH  72 176
ENDBRANCH  68  72
ENDBRANCH  67  70
BRANCH  67 180
ATOM    180  CB  ARG A  56       0.570  -6.964  -4.632  0.00  0.00    +0.000 C 
BRANCH 180 181
ATOM    181  CG  ARG A  56       0.255  -6.311  -5.984  0.00  0.00    +0.000 C 
BRANCH 181 182
ATOM    182  CD  ARG A  56       0.862  -4.908  -6.029  0.00  0.00    +0.000 C 
BRANCH 182 183
ATOM    183  NE  ARG A  56       0.592  -4.413  -7.414  0.00  0.00    +0.000 N 
ATOM    184  CZ  ARG A  56       1.261  -4.881  -8.457  0.00  0.00    +0.000 C 
ATOM    185  NH1 ARG A  56       2.190  -5.799  -8.318  0.00  0.00    +0.000 N 
ATOM    186  NH2 ARG A  56       0.998  -4.422  -9.654  0.00  0.00    +0.000 N 
ATOM    187  HE  ARG A  56      -0.097  -3.726  -7.549  0.00  0.00    +0.000 HD
ATOM    188 HH11 ARG A  56       2.411  -6.165  -7.416  0.00  0.00    +0.000 HD
ATOM    189 HH12 ARG A  56       2.679  -6.135  -9.123  0.00  0.00    +0.000 HD
ATOM    190 HH21 ARG A  56       0.294  -3.723  -9.778  0.00  0.00    +0.000 HD
ATOM    191 HH22 ARG A  56       1.500  -4.772 -10.445  0.00  0.00    +0.000 HD
ENDBRANCH 182 183
ENDBRANCH 181 182
ENDBRANCH 180 181
ENDBRANCH  67 180
ENDBRANCH  60  67
ENDBRANCH  56  63
ENDBRANCH  55  58
BRANCH  55 192
ATOM    192  CB  GLU A  58       1.447  -7.942   2.537  0.00  0.00    +0.000 C 
BRANCH 192 193
ATOM    193  CG  GLU A  58       2.879  -8.284   2.983  0.00  0.00    +0.000 C 
BRANCH 193 194
ATOM    194  CD  GLU A  58       2.949  -8.344   4.512  0.00  0.00    +0.000 C 
ATOM    195  OE1 GLU A  58       2.311  -7.521   5.147  0.00  0.00    +0.000 OA
ATOM    196  OE2 GLU A  58       3.638  -9.213   5.019  0.00  0.00    +0.000 OA
ENDBRANCH 193 194
ENDBRANCH 192 193
ENDBRANCH  55 192
ENDBRANCH  51  55
ENDBRANCH  50  53
BRANCH  50 197
ATOM    197  CB  CYS A  59       0.545  -2.026   2.329  0.00  0.00    +0.000 C 
BRANCH 197 198
ATOM    198  SG  CYS A  59       0.899  -0.435   3.118  0.00  0.00    +0.000 S 
ATOM    199  HG  CYS A  59       1.754   0.324   3.393  0.00  0.00    +0.000 HD
ENDBRANCH 197 198
ENDBRANCH  50 197
ENDBRANCH  43  50
ENDBRANCH  39  46
ENDBRANCH  38  41
BRANCH  38 200
ATOM    200  CB  TYR A  61      -0.381   1.126   6.237  0.00  0.00    +0.000 C 
BRANCH 200 201
ATOM    201  CG  TYR A  61       0.893   1.916   6.422  0.00  0.00    +0.000 A 
ATOM    202  CD1 TYR A  61       1.412   2.136   7.733  0.00  0.00    +0.000 A 
ATOM    203  CD2 TYR A  61       1.561   2.466   5.290  0.00  0.00    +0.000 A 
ATOM    204  CE1 TYR A  61       2.598   2.896   7.910  0.00  0.00    +0.000 A 
ATOM    205  CE2 TYR A  61       2.747   3.229   5.473  0.00  0.00    +0.000 A 
ATOM    206  CZ  TYR A  61       3.264   3.441   6.783  0.00  0.00    +0.000 A 
BRANCH 206 207
ATOM    207  OH  TYR A  61       4.416   4.170   6.964  0.00  0.00    +0.000 OA
ATOM    208  HH  TYR A  61       5.112   3.565   7.228  0.00  0.00    +0.000 HD
ENDBRANCH 206 207
ENDBRANCH 200 201
ENDBRANCH  38 200
ENDBRANCH  34  38
ENDBRANCH  33  36
ENDBRANCH  26  33
ENDBRANCH  22  29
ENDBRANCH  21  24
BRANCH  21 209
ATOM    209  CB  SER A  64      -5.413   2.115   9.161  0.00  0.00    +0.000 C 
BRANCH 209 210
ATOM    210  OG  SER A  64      -5.979   3.254   9.795  0.00  0.00    +0.000 OA
ATOM    211  HG  SER A  64      -5.754   3.216  10.728  0.00  0.00    +0.000 HD
ENDBRANCH 209 210
ENDBRANCH  21 209
ENDBRANCH  17  21
ENDBRANCH  16  19
BRANCH  16 212
ATOM    212  CB  CYS A  65      -2.826   2.533   3.747  0.00  0.00    +0.000 C 
BRANCH 212 213
ATOM    213  SG  CYS A  65      -1.149   2.817   3.156  0.00  0.00    +0.000 S 
ATOM    214  HG  CYS A  65      -0.833   2.408   2.096  0.00  0.00    +0.000 HD
ENDBRANCH 212 213
ENDBRANCH  16 212
ENDBRANCH  12  16
ENDBRANCH  11  14
BRANCH  11 215
ATOM    215  CB  TYR A  66      -2.794   8.047   6.371  0.00  0.00    +0.000 C 
BRANCH 215 216
ATOM    216  CG  TYR A  66      -1.561   8.943   6.304  0.00  0.00    +0.000 A 
ATOM    217  CD1 TYR A  66      -1.688  10.256   5.774  0.00  0.00    +0.000 A 
ATOM    218  CD2 TYR A  66      -0.277   8.467   6.721  0.00  0.00    +0.000 A 
ATOM    219  CE1 TYR A  66      -0.550  11.095   5.666  0.00  0.00    +0.000 A 
ATOM    220  CE2 TYR A  66       0.852   9.305   6.601  0.00  0.00    +0.000 A 
ATOM    221  CZ  TYR A  66       0.722  10.619   6.077  0.00  0.00    +0.000 A 
BRANCH 221 222
ATOM    222  OH  TYR A  66       1.832  11.429   5.960  0.00  0.00    +0.000 OA
ATOM    223  HH  TYR A  66       2.185  11.322   5.072  0.00  0.00    +0.000 HD
ENDBRANCH 221 222
ENDBRANCH 215 216
ENDBRANCH  11 215
ENDBRANCH   7  11
ENDBRANCH   6   9
BRANCH   6 224
ATOM    224  CB  ARG A  67       1.030   6.904   2.396  0.00  0.00    +0.000 C 
BRANCH 224 225
ATOM    225  CG  ARG A  67       1.067   5.392   2.144  0.00  0.00    +0.000 C 
BRANCH 225 226
ATOM    226  CD  ARG A  67       2.463   4.846   2.484  0.00  0.00    +0.000 C 
BRANCH 226 227
ATOM    227  NE  ARG A  67       3.350   5.169   1.308  0.00  0.00    +0.000 N 
ATOM    228  CZ  ARG A  67       4.432   4.447   1.047  0.00  0.00    +0.000 C 
ATOM    229  NH1 ARG A  67       4.794   3.443   1.814  0.00  0.00    +0.000 N 
ATOM    230  NH2 ARG A  67       5.173   4.746   0.011  0.00  0.00    +0.000 N 
ATOM    231  HE  ARG A  67       3.128   5.929   0.722  0.00  0.00    +0.000 HD
ATOM    232 HH11 ARG A  67       4.259   3.199   2.620  0.00  0.00    +0.000 HD
ATOM    233 HH12 ARG A  67       5.614   2.918   1.588  0.00  0.00    +0.000 HD
ATOM    234 HH21 ARG A  67       4.921   5.514  -0.578  0.00  0.00    +0.000 HD
ATOM    235 HH22 ARG A  67       5.990   4.207  -0.193  0.00  0.00    +0.000 HD
ENDBRANCH 226 227
ENDBRANCH 225 226
ENDBRANCH 224 225
ENDBRANCH   6 224
ENDBRANCH   2   6
ENDBRANCH   1   4
BRANCH   1 236
ATOM    236  C   LYS A  68      -0.417   7.999  -2.592  0.00  0.00    +0.000 C 
ATOM    237  O   LYS A  68      -0.518   9.025  -3.240  0.00  0.00    +0.000 OA
ATOM    238  N   ASN A  69       0.565   7.149  -2.808  0.00  0.00    +0.000 N 
ATOM    239  H   ASN A  69       0.627   6.318  -2.282  0.00  0.00    +0.000 HD
BRANCH 238 240
ATOM    240  CA  ASN A  69       1.583   7.439  -3.867  0.00  0.00    +0.000 C 
BRANCH 240 241
ATOM    241  C   ASN A  69       1.305   6.563  -5.096  0.00  0.00    +0.000 C 
ATOM    242  O   ASN A  69       0.537   5.626  -5.010  0.00  0.00    +0.000 OA
ATOM    243  N   PRO A  70       1.932   6.886  -6.206  0.00  0.00    +0.000 N 
ATOM    244  CA  PRO A  70       1.716   6.088  -7.434  0.00  0.00    +0.000 C 
ATOM    245  CB  PRO A  70       2.362   6.929  -8.535  0.00  0.00    +0.000 C 
ATOM    246  CG  PRO A  70       3.375   7.782  -7.838  0.00  0.00    +0.000 C 
ATOM    247  CD  PRO A  70       2.882   7.992  -6.427  0.00  0.00    +0.000 C 
BRANCH 244 248
ATOM    248  C   PRO A  70       2.388   4.711  -7.297  0.00  0.00    +0.000 C 
ATOM    249  O   PRO A  70       1.767   3.695  -7.544  0.00  0.00    +0.000 OA
ATOM    250  N   GLN A  71       3.648   4.663  -6.910  0.00  0.00    +0.000 N 
ATOM    251  H   GLN A  71       4.139   5.484  -6.725  0.00  0.00    +0.000 HD
BRANCH 250 252
ATOM    252  CA  GLN A  71       4.338   3.343  -6.771  0.00  0.00    +0.000 C 
BRANCH 252 253
ATOM    253  C   GLN A  71       3.894   2.584  -5.494  0.00  0.00    +0.000 C 
ATOM    254  O   GLN A  71       4.116   1.392  -5.391  0.00  0.00    +0.000 OA
ATOM    255  N   HIS A  72       3.287   3.245  -4.513  0.00  0.00    +0.000 N 
ATOM    256  H   HIS A  72       3.099   4.205  -4.601  0.00  0.00    +0.000 HD
BRANCH 255 257
ATOM    257  CA  HIS A  72       2.874   2.501  -3.262  0.00  0.00    +0.000 C 
BRANCH 257 258
ATOM    258  C   HIS A  72       1.670   1.576  -3.533  0.00  0.00    +0.000 C 
ATOM    259  O   HIS A  72       1.566   0.520  -2.936  0.00  0.00    +0.000 OA
ATOM    260  N   LYS A  73       0.784   1.927  -4.443  0.00  0.00    +0.000 N 
ATOM    261  H   LYS A  73       0.894   2.758  -4.958  0.00  0.00    +0.000 HD
BRANCH 260 262
ATOM    262  CA  LYS A  73      -0.375   1.004  -4.743  0.00  0.00    +0.000 C 
BRANCH 262 263
ATOM    263  C   LYS A  73       0.105  -0.166  -5.635  0.00  0.00    +0.000 C 
ATOM    264  O   LYS A  73      -0.515  -1.212  -5.673  0.00  0.00    +0.000 OA
ATOM    265  N   ILE A  74       1.222  -0.008  -6.327  0.00  0.00    +0.000 N 
ATOM    266  H   ILE A  74       1.715   0.829  -6.246  0.00  0.00    +0.000 HD
BRANCH 265 267
ATOM    267  CA  ILE A  74       1.742  -1.132  -7.179  0.00  0.00    +0.000 C 
BRANCH 267 268
ATOM    268  C   ILE A  74       2.811  -1.939  -6.404  0.00  0.00    +0.000 C 
ATOM    269  O   ILE A  74       2.948  -3.128  -6.621  0.00  0.00    +0.000 OA
ATOM    270  N   GLU A  75       3.573  -1.323  -5.516  0.00  0.00    +0.000 N 
ATOM    271  H   GLU A  75       3.472  -0.361  -5.348  0.00  0.00    +0.000 HD
BRANCH 270 272
ATOM    272  CA  GLU A  75       4.619  -2.115  -4.769  0.00  0.00    +0.000 C 
BRANCH 272 273
ATOM    273  C   GLU A  75       3.973  -3.008  -3.697  0.00  0.00    +0.000 C 
ATOM    274  O   GLU A  75       4.374  -4.141  -3.539  0.00  0.00    +0.000 OA
ATOM    275  N   TYR A  76       3.000  -2.521  -2.944  0.00  0.00    +0.000 N 
ATOM    276  H   TYR A  76       2.695  -1.597  -3.058  0.00  0.00    +0.000 HD
BRANCH 275 277
ATOM    277  CA  TYR A  76       2.374  -3.372  -1.887  0.00  0.00    +0.000 C 
BRANCH 277 278
ATOM    278  C   TYR A  76       0.853  -3.493  -2.112  0.00  0.00    +0.000 C 
ATOM    279  O   TYR A  76       0.276  -2.754  -2.887  0.00  0.00    +0.000 OA
ATOM    280  N   ARG A  77       0.192  -4.393  -1.408  0.00  0.00    +0.000 N 
ATOM    281  H   ARG A  77       0.659  -4.955  -0.759  0.00  0.00    +0.000 HD
BRANCH 280 282
ATOM    282  CA  ARG A  77      -1.294  -4.530  -1.545  0.00  0.00    +0.000 C 
BRANCH 282 283
ATOM    283  C   ARG A  77      -1.933  -4.318  -0.165  0.00  0.00    +0.000 C 
ATOM    284  O   ARG A  77      -1.283  -4.515   0.847  0.00  0.00    +0.000 OA
ATOM    285  N   HIS A  78      -3.177  -3.895  -0.096  0.00  0.00    +0.000 N 
ATOM    286  H   HIS A  78      -3.694  -3.706  -0.912  0.00  0.00    +0.000 HD
BRANCH 285 287
ATOM    287  CA  HIS A  78      -3.799  -3.652   1.250  0.00  0.00    +0.000 C 
BRANCH 287 288
ATOM    288  C   HIS A  78      -4.853  -4.717   1.631  0.00  0.00    +0.000 C 
ATOM    289  O   HIS A  78      -5.243  -4.796   2.782  0.00  0.00    +0.000 OA
ATOM    290  N   ASN A  79      -5.322  -5.539   0.708  0.00  0.00    +0.000 N 
ATOM    291  H   ASN A  79      -5.019  -5.491  -0.216  0.00  0.00    +0.000 HD
BRANCH 290 292
ATOM    292  CA  ASN A  79      -6.336  -6.571   1.076  0.00  0.00    +0.000 C 
BRANCH 292 293
ATOM    293  C   ASN A  79      -5.859  -7.956   0.606  0.00  0.00    +0.000 C 
ATOM    294  O   ASN A  79      -5.558  -8.150  -0.555  0.00  0.00    +0.000 OA
ATOM    295  N   THR A  80      -5.778  -8.914   1.503  0.00  0.00    +0.000 N 
ATOM    296  H   THR A  80      -6.019  -8.731   2.428  0.00  0.00    +0.000 HD
BRANCH 295 297
ATOM    297  CA  THR A  80      -5.309 -10.283   1.115  0.00  0.00    +0.000 C 
BRANCH 297 298
ATOM    298  C   THR A  80      -6.504 -11.245   0.989  0.00  0.00    +0.000 C 
ATOM    299  O   THR A  80      -6.516 -12.308   1.585  0.00  0.00    +0.000 OA
ATOM    300  N   LEU A  81      -7.506 -10.883   0.218  0.00  0.00    +0.000 N 
ATOM    301  H   LEU A  81      -7.473 -10.018  -0.253  0.00  0.00    +0.000 HD
BRANCH 300 302
ATOM    302  CA  LEU A  81      -8.694 -11.795   0.063  0.00  0.00    +0.000 C 
BRANCH 302 303
ATOM    303  C   LEU A  81      -8.450 -12.811  -1.068  0.00  0.00    +0.000 C 
ATOM    304  O   LEU A  81      -7.715 -12.531  -1.995  0.00  0.00    +0.000 OA
ATOM    305  N   PRO A  82      -9.076 -13.969  -0.958  0.00  0.00    +0.000 N 
ATOM    306  CA  PRO A  82      -8.910 -15.021  -1.995  0.00  0.00    +0.000 C 
ATOM    307  CB  PRO A  82      -9.516 -16.264  -1.348  0.00  0.00    +0.000 C 
ATOM    308  CG  PRO A  82     -10.487 -15.746  -0.337  0.00  0.00    +0.000 C 
ATOM    309  CD  PRO A  82      -9.979 -14.404   0.122  0.00  0.00    +0.000 C 
BRANCH 306 310
ATOM    310  C   PRO A  82      -9.676 -14.649  -3.275  0.00  0.00    +0.000 C 
ATOM    311  O   PRO A  82     -10.874 -14.442  -3.245  0.00  0.00    +0.000 OA
ATOM    312  N   VAL A  83      -8.997 -14.567  -4.403  0.00  0.00    +0.000 N 
ATOM    313  H   VAL A  83      -8.029 -14.740  -4.416  0.00  0.00    +0.000 HD
BRANCH 312 314
ATOM    314  CA  VAL A  83      -9.697 -14.212  -5.675  0.00  0.00    +0.000 C 
BRANCH 314 315
ATOM    315  C   VAL A  83      -9.190 -15.108  -6.816  0.00  0.00    +0.000 C 
ATOM    316  O   VAL A  83      -8.851 -14.632  -7.882  0.00  0.00    +0.000 OA
ATOM    317  N   ARG A  84      -9.146 -16.410  -6.602  0.00  0.00    +0.000 N 
ATOM    318  H   ARG A  84      -9.442 -16.768  -5.736  0.00  0.00    +0.000 HD
BRANCH 317 319
ATOM    319  CA  ARG A  84      -8.668 -17.351  -7.682  0.00  0.00    +0.000 C 
BRANCH 319 320
ATOM    320  C   ARG A  84      -8.705 -18.820  -7.207  0.00  0.00    +0.000 C 
ATOM    321  O   ARG A  84      -9.145 -19.688  -7.938  0.00  0.00    +0.000 OA
ATOM    322  N   ASN A  85      -8.258 -19.114  -5.999  0.00  0.00    +0.000 N 
ATOM    323  H   ASN A  85      -7.909 -18.412  -5.409  0.00  0.00    +0.000 HD
BRANCH 322 324
ATOM    324  CA  ASN A  85      -8.292 -20.530  -5.516  0.00  0.00    +0.000 C 
BRANCH 324 325
ATOM    325  C   ASN A  85      -9.353 -20.681  -4.417  0.00  0.00    +0.000 C 
ATOM    326  O   ASN A  85      -9.038 -20.659  -3.242  0.00  0.00    +0.000 OA
ATOM    327  N   VAL A  86     -10.609 -20.837  -4.785  0.00  0.00    +0.000 N 
ATOM    328  H   VAL A  86     -10.849 -20.856  -5.740  0.00  0.00    +0.000 HD
BRANCH 327 329
ATOM    329  CA  VAL A  86     -11.681 -20.990  -3.751  0.00  0.00    +0.000 C 
BRANCH 329 330
ATOM    330  C   VAL A  86     -12.554 -22.216  -4.078  0.00  0.00    +0.000 C 
ATOM    331  O   VAL A  86     -13.755 -22.197  -3.891  0.00  0.00    +0.000 OA
ATOM    332  N   LEU A  87     -11.959 -23.290  -4.568  0.00  0.00    +0.000 N 
ATOM    333  H   LEU A  87     -10.985 -23.290  -4.709  0.00  0.00    +0.000 HD
BRANCH 332 334
ATOM    334  CA  LEU A  87     -12.761 -24.523  -4.908  0.00  0.00    +0.000 C 
BRANCH 334 335
ATOM    335  C   LEU A  87     -11.841 -25.619  -5.466  0.00  0.00    +0.000 C 
ATOM    336  O   LEU A  87     -11.866 -26.751  -5.024  0.00  0.00    +0.000 OA
ATOM    337  N   ASP A  88     -11.026 -25.280  -6.437  0.00  0.00    +0.000 N 
ATOM    338  H   ASP A  88     -11.028 -24.360  -6.771  0.00  0.00    +0.000 HD
BRANCH 337 339
ATOM    339  CA  ASP A  88     -10.088 -26.278  -7.044  0.00  0.00    +0.000 C 
BRANCH 339 340
ATOM    340  C   ASP A  88     -10.851 -27.531  -7.510  0.00  0.00    +0.000 C 
ATOM    341  O   ASP A  88     -11.110 -28.427  -6.729  0.00  0.00    +0.000 OA
ATOM    342  N   GLU A  89     -11.213 -27.603  -8.776  0.00  0.00    +0.000 N 
ATOM    343  H   GLU A  89     -10.998 -26.873  -9.398  0.00  0.00    +0.000 HD
BRANCH 342 344
ATOM    344  CA  GLU A  89     -11.955 -28.799  -9.275  0.00  0.00    +0.000 C 
BRANCH 344 345
ATOM    345  C   GLU A  89     -11.229 -29.408 -10.478  0.00  0.00    +0.000 C 
ATOM    346  O   GLU A  89     -11.622 -30.483 -10.899  0.00  0.00    +0.000 OA
ATOM    347  OXT GLU A  89     -10.294 -28.788 -10.956  0.00  0.00    +0.000 OA
ENDBRANCH 344 345
BRANCH 344 348
ATOM    348  CB  GLU A  89     -13.328 -28.269  -9.689  0.00  0.00    +0.000 C 
BRANCH 348 349
ATOM    349  CG  GLU A  89     -14.103 -27.831  -8.444  0.00  0.00    +0.000 C 
BRANCH 349 350
ATOM    350  CD  GLU A  89     -14.857 -29.030  -7.865  0.00  0.00    +0.000 C 
ATOM    351  OE1 GLU A  89     -14.243 -29.798  -7.143  0.00  0.00    +0.000 OA
ATOM    352  OE2 GLU A  89     -16.036 -29.158  -8.152  0.00  0.00    +0.000 OA
ENDBRANCH 349 350
ENDBRANCH 348 349
ENDBRANCH 344 348
ENDBRANCH 342 344
ENDBRANCH 339 340
BRANCH 339 353
ATOM    353  CB  ASP A  88      -9.095 -26.635  -5.933  0.00  0.00    +0.000 C 
BRANCH 353 354
ATOM    354  CG  ASP A  88      -7.755 -27.032  -6.554  0.00  0.00    +0.000 C 
ATOM    355  OD1 ASP A  88      -7.680 -28.114  -7.112  0.00  0.00    +0.000 OA
ATOM    356  OD2 ASP A  88      -6.825 -26.248  -6.460  0.00  0.00    +0.000 OA
ENDBRANCH 353 354
ENDBRANCH 339 353
ENDBRANCH 337 339
ENDBRANCH 334 335
BRANCH 334 357
ATOM    357  CB  LEU A  87     -13.774 -24.085  -5.980  0.00  0.00    +0.000 C 
BRANCH 357 358
ATOM    358  CG  LEU A  87     -15.186 -24.084  -5.388  0.00  0.00    +0.000 C 
ATOM    359  CD1 LEU A  87     -16.010 -22.968  -6.034  0.00  0.00    +0.000 C 
ATOM    360  CD2 LEU A  87     -15.854 -25.433  -5.662  0.00  0.00    +0.000 C 
ENDBRANCH 357 358
ENDBRANCH 334 357
ENDBRANCH 332 334
ENDBRANCH 329 330
BRANCH 329 361
ATOM    361  CB  VAL A  86     -12.506 -19.699  -3.827  0.00  0.00    +0.000 C 
ATOM    362  CG1 VAL A  86     -13.601 -19.724  -2.759  0.00  0.00    +0.000 C 
ATOM    363  CG2 VAL A  86     -11.598 -18.488  -3.583  0.00  0.00    +0.000 C 
ENDBRANCH 329 361
ENDBRANCH 327 329
ENDBRANCH 324 325
BRANCH 324 364
ATOM    364  CB  ASN A  85      -6.893 -20.806  -4.957  0.00  0.00    +0.000 C 
BRANCH 364 365
ATOM    365  CG  ASN A  85      -6.597 -22.308  -5.038  0.00  0.00    +0.000 C 
ATOM    366  OD1 ASN A  85      -6.756 -23.019  -4.065  0.00  0.00    +0.000 OA
ATOM    367  ND2 ASN A  85      -6.171 -22.831  -6.162  0.00  0.00    +0.000 N 
ATOM    368 HD21 ASN A  85      -6.039 -22.266  -6.955  0.00  0.00    +0.000 HD
ATOM    369 HD22 ASN A  85      -5.983 -23.791  -6.212  0.00  0.00    +0.000 HD
ENDBRANCH 364 365
ENDBRANCH 324 364
ENDBRANCH 322 324
ENDBRANCH 319 320
BRANCH 319 370
ATOM    370  CB  ARG A  84      -7.224 -16.936  -8.044  0.00  0.00    +0.000 C 
BRANCH 370 371
ATOM    371  CG  ARG A  84      -6.348 -16.818  -6.789  0.00  0.00    +0.000 C 
BRANCH 371 372
ATOM    372  CD  ARG A  84      -5.230 -15.805  -7.043  0.00  0.00    +0.000 C 
BRANCH 372 373
ATOM    373  NE  ARG A  84      -4.195 -16.556  -7.818  0.00  0.00    +0.000 N 
ATOM    374  CZ  ARG A  84      -3.417 -17.454  -7.234  0.00  0.00    +0.000 C 
ATOM    375  NH1 ARG A  84      -3.523 -17.724  -5.952  0.00  0.00    +0.000 N 
ATOM    376  NH2 ARG A  84      -2.520 -18.091  -7.942  0.00  0.00    +0.000 N 
ATOM    377  HE  ARG A  84      -4.093 -16.377  -8.778  0.00  0.00    +0.000 HD
ATOM    378 HH11 ARG A  84      -4.200 -17.252  -5.389  0.00  0.00    +0.000 HD
ATOM    379 HH12 ARG A  84      -2.922 -18.407  -5.537  0.00  0.00    +0.000 HD
ATOM    380 HH21 ARG A  84      -2.426 -17.898  -8.919  0.00  0.00    +0.000 HD
ATOM    381 HH22 ARG A  84      -1.929 -18.770  -7.508  0.00  0.00    +0.000 HD
ENDBRANCH 372 373
ENDBRANCH 371 372
ENDBRANCH 370 371
ENDBRANCH 319 370
ENDBRANCH 317 319
ENDBRANCH 314 315
BRANCH 314 382
ATOM    382  CB  VAL A  83      -9.345 -12.743  -5.934  0.00  0.00    +0.000 C 
ATOM    383  CG1 VAL A  83     -10.042 -12.264  -7.208  0.00  0.00    +0.000 C 
ATOM    384  CG2 VAL A  83      -9.811 -11.887  -4.752  0.00  0.00    +0.000 C 
ENDBRANCH 314 382
ENDBRANCH 312 314
ENDBRANCH 306 310
ENDBRANCH 302 303
BRANCH 302 385
ATOM    385  CB  LEU A  81      -9.893 -10.897  -0.276  0.00  0.00    +0.000 C 
BRANCH 385 386
ATOM    386  CG  LEU A  81     -10.600 -10.478   1.012  0.00  0.00    +0.000 C 
ATOM    387  CD1 LEU A  81      -9.669  -9.591   1.841  0.00  0.00    +0.000 C 
ATOM    388  CD2 LEU A  81     -11.866  -9.695   0.659  0.00  0.00    +0.000 C 
ENDBRANCH 385 386
ENDBRANCH 302 385
ENDBRANCH 300 302
ENDBRANCH 297 298
BRANCH 297 389
ATOM    389  CB  THR A  80      -4.370 -10.736   2.241  0.00  0.00    +0.000 C 
ATOM    390  CG2 THR A  80      -3.228 -11.564   1.655  0.00  0.00    +0.000 C 
BRANCH 389 391
ATOM    391  OG1 THR A  80      -3.837  -9.596   2.901  0.00  0.00    +0.000 OA
ATOM    392  HG1 THR A  80      -3.421  -9.890   3.714  0.00  0.00    +0.000 HD
ENDBRANCH 389 391
ENDBRANCH 297 389
ENDBRANCH 295 297
ENDBRANCH 292 293
BRANCH 292 393
ATOM    393  CB  ASN A  79      -7.625  -6.145   0.360  0.00  0.00    +0.000 C 
BRANCH 393 394
ATOM    394  CG  ASN A  79      -7.412  -6.141  -1.159  0.00  0.00    +0.000 C 
ATOM    395  OD1 ASN A  79      -7.640  -7.139  -1.811  0.00  0.00    +0.000 OA
ATOM    396  ND2 ASN A  79      -6.976  -5.060  -1.759  0.00  0.00    +0.000 N 
ATOM    397 HD21 ASN A  79      -6.779  -4.249  -1.241  0.00  0.00    +0.000 HD
ATOM    398 HD22 ASN A  79      -6.850  -5.060  -2.730  0.00  0.00    +0.000 HD
ENDBRANCH 393 394
ENDBRANCH 292 393
ENDBRANCH 290 292
ENDBRANCH 287 288
BRANCH 287 399
ATOM    399  CB  HIS A  78      -4.426  -2.255   1.142  0.00  0.00    +0.000 C 
BRANCH 399 400
ATOM    400  CG  HIS A  78      -3.320  -1.263   0.896  0.00  0.00    +0.000 A 
ATOM    401  ND1 HIS A  78      -2.857  -0.978  -0.381  0.00  0.00    +0.000 N 
ATOM    402  CD2 HIS A  78      -2.521  -0.545   1.752  0.00  0.00    +0.000 A 
ATOM    403  CE1 HIS A  78      -1.817  -0.133  -0.256  0.00  0.00    +0.000 A 
ATOM    404  NE2 HIS A  78      -1.578   0.162   1.024  0.00  0.00    +0.000 NA
ATOM    405  HD1 HIS A  78      -3.222  -1.329  -1.221  0.00  0.00    +0.000 HD
ENDBRANCH 399 400
ENDBRANCH 287 399
ENDBRANCH 285 287
ENDBRANCH 282 283
BRANCH 282 406
ATOM    406  CB  ARG A  77      -1.553  -5.957  -2.054  0.00  0.00    +0.000 C 
BRANCH 406 407
ATOM    407  CG  ARG A  77      -1.006  -6.995  -1.061  0.00  0.00    +0.000 C 
BRANCH 407 408
ATOM    408  CD  ARG A  77      -1.703  -8.346  -1.289  0.00  0.00    +0.000 C 
BRANCH 408 409
ATOM    409  NE  ARG A  77      -1.055  -9.320  -0.337  0.00  0.00    +0.000 N 
ATOM    410  CZ  ARG A  77      -1.044 -10.620  -0.589  0.00  0.00    +0.000 C 
ATOM    411  NH1 ARG A  77      -1.654 -11.124  -1.637  0.00  0.00    +0.000 N 
ATOM    412  NH2 ARG A  77      -0.433 -11.432   0.236  0.00  0.00    +0.000 N 
ATOM    413  HE  ARG A  77      -0.621  -8.987   0.484  0.00  0.00    +0.000 HD
ATOM    414 HH11 ARG A  77      -2.145 -10.532  -2.272  0.00  0.00    +0.000 HD
ATOM    415 HH12 ARG A  77      -1.626 -12.110  -1.800  0.00  0.00    +0.000 HD
ATOM    416 HH21 ARG A  77       0.022 -11.069   1.049  0.00  0.00    +0.000 HD
ATOM    417 HH22 ARG A  77      -0.420 -12.415   0.052  0.00  0.00    +0.000 HD
ENDBRANCH 408 409
ENDBRANCH 407 408
ENDBRANCH 406 407
ENDBRANCH 282 406
ENDBRANCH 280 282
ENDBRANCH 277 278
BRANCH 277 418
ATOM    418  CB  TYR A  76       2.652  -2.631  -0.576  0.00  0.00    +0.000 C 
BRANCH 418 419
ATOM    419  CG  TYR A  76       4.141  -2.558  -0.325  0.00  0.00    +0.000 A 
ATOM    420  CD1 TYR A  76       4.831  -3.681   0.205  0.00  0.00    +0.000 A 
ATOM    421  CD2 TYR A  76       4.849  -1.358  -0.607  0.00  0.00    +0.000 A 
ATOM    422  CE1 TYR A  76       6.229  -3.605   0.453  0.00  0.00    +0.000 A 
ATOM    423  CE2 TYR A  76       6.247  -1.282  -0.361  0.00  0.00    +0.000 A 
ATOM    424  CZ  TYR A  76       6.937  -2.406   0.170  0.00  0.00    +0.000 A 
BRANCH 424 425
ATOM    425  OH  TYR A  76       8.294  -2.332   0.412  0.00  0.00    +0.000 OA
ATOM    426  HH  TYR A  76       8.434  -1.725   1.142  0.00  0.00    +0.000 HD
ENDBRANCH 424 425
ENDBRANCH 418 419
ENDBRANCH 277 418
ENDBRANCH 275 277
ENDBRANCH 272 273
BRANCH 272 427
ATOM    427  CB  GLU A  75       5.590  -1.108  -4.116  0.00  0.00    +0.000 C 
BRANCH 427 428
ATOM    428  CG  GLU A  75       6.892  -1.056  -4.924  0.00  0.00    +0.000 C 
BRANCH 428 429
ATOM    429  CD  GLU A  75       7.595  -2.413  -4.850  0.00  0.00    +0.000 C 
ATOM    430  OE1 GLU A  75       7.656  -2.969  -3.765  0.00  0.00    +0.000 OA
ATOM    431  OE2 GLU A  75       8.062  -2.873  -5.879  0.00  0.00    +0.000 OA
ENDBRANCH 428 429
ENDBRANCH 427 428
ENDBRANCH 272 427
ENDBRANCH 270 272
ENDBRANCH 267 268
BRANCH 267 432
ATOM    432  CB  ILE A  74       2.273  -0.531  -8.534  0.00  0.00    +0.000 C 
ATOM    433  CG2 ILE A  74       2.879   0.870  -8.373  0.00  0.00    +0.000 C 
BRANCH 432 434
ATOM    434  CG1 ILE A  74       3.317  -1.474  -9.194  0.00  0.00    +0.000 C 
ATOM    435  CD1 ILE A  74       4.722  -1.263  -8.589  0.00  0.00    +0.000 C 
ENDBRANCH 432 434
ENDBRANCH 267 432
ENDBRANCH 265 267
ENDBRANCH 262 263
BRANCH 262 436
ATOM    436  CB  LYS A  73      -1.435   1.839  -5.487  0.00  0.00    +0.000 C 
BRANCH 436 437
ATOM    437  CG  LYS A  73      -2.470   2.361  -4.489  0.00  0.00    +0.000 C 
BRANCH 437 438
ATOM    438  CD  LYS A  73      -1.998   3.696  -3.909  0.00  0.00    +0.000 C 
BRANCH 438 439
ATOM    439  CE  LYS A  73      -2.466   3.813  -2.456  0.00  0.00    +0.000 C 
BRANCH 439 440
ATOM    440  NZ  LYS A  73      -3.932   4.056  -2.542  0.00  0.00    +0.000 N 
ATOM    441  HZ1 LYS A  73      -4.110   4.915  -3.100  0.00  0.00    +0.000 HD
ATOM    442  HZ2 LYS A  73      -4.321   4.177  -1.584  0.00  0.00    +0.000 HD
ATOM    443  HZ3 LYS A  73      -4.392   3.246  -3.004  0.00  0.00    +0.000 HD
ENDBRANCH 439 440
ENDBRANCH 438 439
ENDBRANCH 437 438
ENDBRANCH 436 437
ENDBRANCH 262 436
ENDBRANCH 260 262
ENDBRANCH 257 258
BRANCH 257 444
ATOM    444  CB  HIS A  72       2.517   3.555  -2.193  0.00  0.00    +0.000 C 
BRANCH 444 445
ATOM    445  CG  HIS A  72       2.137   2.848  -0.913  0.00  0.00    +0.000 A 
ATOM    446  ND1 HIS A  72       3.037   2.059  -0.204  0.00  0.00    +0.000 N 
ATOM    447  CD2 HIS A  72       0.940   2.734  -0.251  0.00  0.00    +0.000 A 
ATOM    448  CE1 HIS A  72       2.361   1.502   0.821  0.00  0.00    +0.000 A 
ATOM    449  NE2 HIS A  72       1.086   1.881   0.826  0.00  0.00    +0.000 NA
ATOM    450  HD1 HIS A  72       3.985   1.929  -0.412  0.00  0.00    +0.000 HD
ENDBRANCH 444 445
ENDBRANCH 257 444
ENDBRANCH 255 257
ENDBRANCH 252 253
BRANCH 252 451
ATOM    451  CB  GLN A  71       5.860   3.634  -6.763  0.00  0.00    +0.000 C 
BRANCH 451 452
ATOM    452  CG  GLN A  71       6.296   4.361  -5.473  0.00  0.00    +0.000 C 
BRANCH 452 453
ATOM    453  CD  GLN A  71       6.362   3.379  -4.298  0.00  0.00    +0.000 C 
ATOM    454  OE1 GLN A  71       5.826   3.653  -3.243  0.00  0.00    +0.000 OA
ATOM    455  NE2 GLN A  71       6.993   2.243  -4.422  0.00  0.00    +0.000 N 
ATOM    456 HE21 GLN A  71       7.450   2.009  -5.255  0.00  0.00    +0.000 HD
ATOM    457 HE22 GLN A  71       6.972   1.609  -3.691  0.00  0.00    +0.000 HD
ENDBRANCH 452 453
ENDBRANCH 451 452
ENDBRANCH 252 451
ENDBRANCH 250 252
ENDBRANCH 244 248
ENDBRANCH 240 241
BRANCH 240 458
ATOM    458  CB  ASN A  69       2.940   7.083  -3.249  0.00  0.00    +0.000 C 
BRANCH 458 459
ATOM    459  CG  ASN A  69       3.520   8.313  -2.540  0.00  0.00    +0.000 C 
ATOM    460  OD1 ASN A  69       3.033   8.708  -1.499  0.00  0.00    +0.000 OA
ATOM    461  ND2 ASN A  69       4.546   8.943  -3.057  0.00  0.00    +0.000 N 
ATOM    462 HD21 ASN A  69       4.949   8.632  -3.898  0.00  0.00    +0.000 HD
ATOM    463 HD22 ASN A  69       4.913   9.730  -2.604  0.00  0.00    +0.000 HD
ENDBRANCH 458 459
ENDBRANCH 240 458
ENDBRANCH 238 240
ENDBRANCH   1 236
BRANCH   1 464
ATOM    464  CB  LYS A  68      -2.689   8.537  -1.646  0.00  0.00    +0.000 C 
BRANCH 464 465
ATOM    465  CG  LYS A  68      -3.694   7.860  -2.582  0.00  0.00    +0.000 C 
BRANCH 465 466
ATOM    466  CD  LYS A  68      -4.414   8.923  -3.415  0.00  0.00    +0.000 C 
BRANCH 466 467
ATOM    467  CE  LYS A  68      -3.666   9.136  -4.735  0.00  0.00    +0.000 C 
BRANCH 467 468
ATOM    468  NZ  LYS A  68      -3.651  10.612  -4.933  0.00  0.00    +0.000 N 
ATOM    469  HZ1 LYS A  68      -3.124  10.840  -5.800  0.00  0.00    +0.000 HD
ATOM    470  HZ2 LYS A  68      -3.190  11.066  -4.117  0.00  0.00    +0.000 HD
ATOM    471  HZ3 LYS A  68      -4.626  10.961  -5.020  0.00  0.00    +0.000 HD
ENDBRANCH 467 468
ENDBRANCH 466 467
ENDBRANCH 465 466
ENDBRANCH 464 465
ENDBRANCH   1 464
TORSDOF 185
