REMARK  Name = /Users/acegid/Desktop/Smoking_Research/Docking/Docking_All_PDB/All_PDB/2L87_H.pdb
REMARK  124 active torsions:
REMARK  status: ('A' for Active; 'I' for Inactive)
REMARK    1  A    between atoms: N_1  and  CA_5
REMARK    2  A    between atoms: CA_5  and  CB_7
REMARK    3  A    between atoms: CA_5  and  C_18
REMARK    4  A    between atoms: CB_7  and  CG_10
REMARK    5  A    between atoms: CG_10  and  SD_13
REMARK    6  A    between atoms: SD_13  and  CE_14
REMARK    7  A    between atoms: N_20  and  CA_22
REMARK    8  A    between atoms: CA_22  and  CB_24
REMARK    9  A    between atoms: CA_22  and  C_30
REMARK   10  A    between atoms: CB_24  and  CG_27
REMARK   11  A    between atoms: N_32  and  CA_34
REMARK   12  A    between atoms: CA_34  and  CB_36
REMARK   13  A    between atoms: CA_34  and  C_51
REMARK   14  A    between atoms: CB_36  and  CG_39
REMARK   15  A    between atoms: CZ_44  and  OH_45
REMARK   16  A    between atoms: N_53  and  CA_55
REMARK   17  A    between atoms: CA_55  and  CB_57
REMARK   18  A    between atoms: CA_55  and  C_68
REMARK   19  A    between atoms: CB_57  and  CG_60
REMARK   20  A    between atoms: CG_60  and  CD_63
REMARK   21  A    between atoms: N_70  and  CA_72
REMARK   22  A    between atoms: CA_72  and  CB_74
REMARK   23  A    between atoms: CA_72  and  C_84
REMARK   24  A    between atoms: CB_74  and  CG1_76
REMARK   25  A    between atoms: CB_74  and  CG2_80
REMARK   26  A    between atoms: CA_88  and  C_95
REMARK   27  A    between atoms: CB_90  and  OG_93
REMARK   28  A    between atoms: N_97  and  CA_98
REMARK   29  A    between atoms: CA_98  and  C_99
REMARK   30  A    between atoms: CA_98  and  CB_101
REMARK   31  A    between atoms: CB_101  and  OG_102
REMARK   32  A    between atoms: CA_109  and  C_110
REMARK   33  A    between atoms: N_122  and  CA_123
REMARK   34  A    between atoms: CA_123  and  C_124
REMARK   35  A    between atoms: CA_123  and  CB_126
REMARK   36  A    between atoms: CB_126  and  CG1_127
REMARK   37  A    between atoms: CB_126  and  CG2_128
REMARK   38  A    between atoms: CG1_127  and  CD1_129
REMARK   39  A    between atoms: N_141  and  CA_143
REMARK   40  A    between atoms: CA_143  and  CB_145
REMARK   41  A    between atoms: CA_143  and  C_160
REMARK   42  A    between atoms: CB_145  and  CG_148
REMARK   43  A    between atoms: CZ_157  and  OH_158
REMARK   44  A    between atoms: N_162  and  CA_163
REMARK   45  A    between atoms: CA_163  and  C_164
REMARK   46  A    between atoms: CA_163  and  CB_166
REMARK   47  A    between atoms: CB_166  and  CG_167
REMARK   48  A    between atoms: N_174  and  CA_175
REMARK   49  A    between atoms: CA_175  and  C_176
REMARK   50  A    between atoms: CA_175  and  CB_178
REMARK   51  A    between atoms: CB_178  and  CG1_179
REMARK   52  A    between atoms: CB_178  and  CG2_180
REMARK   53  A    between atoms: CG1_179  and  CD1_181
REMARK   54  A    between atoms: N_193  and  CA_194
REMARK   55  A    between atoms: CA_194  and  C_195
REMARK   56  A    between atoms: CA_194  and  CB_197
REMARK   57  A    between atoms: CB_197  and  CG_198
REMARK   58  A    between atoms: N_207  and  CA_209
REMARK   59  A    between atoms: CA_209  and  CB_211
REMARK   60  A    between atoms: CA_209  and  C_226
REMARK   61  A    between atoms: CB_211  and  CG_214
REMARK   62  A    between atoms: CZ_223  and  OH_224
REMARK   63  A    between atoms: N_228  and  CA_229
REMARK   64  A    between atoms: CA_229  and  C_230
REMARK   65  A    between atoms: CA_229  and  CB_232
REMARK   66  A    between atoms: CB_232  and  CG_233
REMARK   67  A    between atoms: CZ_238  and  OH_239
REMARK   68  A    between atoms: N_249  and  CA_250
REMARK   69  A    between atoms: CA_250  and  C_251
REMARK   70  A    between atoms: CA_250  and  CB_253
REMARK   71  A    between atoms: CB_253  and  OG1_254
REMARK   72  A    between atoms: CB_253  and  CG2_255
REMARK   73  A    between atoms: N_263  and  CA_264
REMARK   74  A    between atoms: CA_264  and  C_265
REMARK   75  A    between atoms: CA_264  and  CB_267
REMARK   76  A    between atoms: CB_267  and  OG_268
REMARK   77  A    between atoms: N_274  and  CA_275
REMARK   78  A    between atoms: CA_275  and  C_276
REMARK   79  A    between atoms: CA_275  and  CB_278
REMARK   80  A    between atoms: CB_278  and  CG_279
REMARK   81  A    between atoms: CG_279  and  CD_280
REMARK   82  A    between atoms: CA_290  and  C_291
REMARK   83  A    between atoms: N_303  and  CA_304
REMARK   84  A    between atoms: CA_304  and  C_305
REMARK   85  A    between atoms: CA_304  and  CB_307
REMARK   86  A    between atoms: N_313  and  CA_314
REMARK   87  A    between atoms: CA_314  and  C_315
REMARK   88  A    between atoms: CA_314  and  CB_317
REMARK   89  A    between atoms: CB_317  and  CG_319
REMARK   90  A    between atoms: CG_319  and  CD_321
REMARK   91  A    between atoms: N_330  and  CA_331
REMARK   92  A    between atoms: CA_331  and  C_332
REMARK   93  A    between atoms: CA_331  and  CB_334
REMARK   94  A    between atoms: CB_334  and  CG_335
REMARK   95  A    between atoms: CG_335  and  CD_336
REMARK   96  A    between atoms: CD_336  and  CE_337
REMARK   97  A    between atoms: CE_337  and  NZ_338
REMARK   98  A    between atoms: N_352  and  CA_353
REMARK   99  A    between atoms: CA_353  and  C_354
REMARK  100  A    between atoms: CA_353  and  CB_356
REMARK  101  A    between atoms: CB_356  and  CG1_357
REMARK  102  A    between atoms: CB_356  and  CG2_358
REMARK  103  A    between atoms: CG1_357  and  CD1_359
REMARK  104  A    between atoms: N_371  and  CA_373
REMARK  105  A    between atoms: CA_373  and  CB_375
REMARK  106  A    between atoms: CA_373  and  C_383
REMARK  107  A    between atoms: CB_375  and  CG_378
REMARK  108  A    between atoms: N_385  and  CA_387
REMARK  109  A    between atoms: CA_387  and  CB_389
REMARK  110  A    between atoms: CA_387  and  C_399
REMARK  111  A    between atoms: CB_389  and  CG1_391
REMARK  112  A    between atoms: CB_389  and  CG2_395
REMARK  113  A    between atoms: N_401  and  CA_403
REMARK  114  A    between atoms: CA_403  and  CB_405
REMARK  115  A    between atoms: CA_403  and  C_421
REMARK  116  A    between atoms: CB_405  and  CG_408
REMARK  117  A    between atoms: CG_408  and  CD_411
REMARK  118  A    between atoms: CD_411  and  CE_414
REMARK  119  A    between atoms: CE_414  and  NZ_417
REMARK  120  A    between atoms: N_423  and  CA_425
REMARK  121  A    between atoms: CA_425  and  CB_427
REMARK  122  A    between atoms: CA_425  and  C_438
REMARK  123  A    between atoms: CB_427  and  CG_430
REMARK  124  A    between atoms: CG_430  and  CD_433
REMARK                            x       y       z     vdW  Elec       q    Type
REMARK                         _______ _______ _______ _____ _____    ______ ____
ROOT
ATOM      1  CA  TYR A  14       0.960  -4.135  -0.491  0.00  0.00    +0.000 C 
ENDROOT
BRANCH   1   2
ATOM      2  C   TYR A  14       2.053  -3.568  -1.389  0.00  0.00    +0.000 C 
ATOM      3  O   TYR A  14       2.889  -4.312  -1.902  0.00  0.00    +0.000 OA
ATOM      4  N   TYR A  15       2.079  -2.244  -1.541  0.00  0.00    +0.000 N 
ATOM      5  H   TYR A  15       1.415  -1.693  -1.083  0.00  0.00    +0.000 HD
BRANCH   4   6
ATOM      6  CA  TYR A  15       3.111  -1.599  -2.334  0.00  0.00    +0.000 C 
BRANCH   6   7
ATOM      7  C   TYR A  15       4.456  -1.909  -1.693  0.00  0.00    +0.000 C 
ATOM      8  O   TYR A  15       5.489  -1.973  -2.358  0.00  0.00    +0.000 OA
ATOM      9  N   THR A  16       4.400  -2.122  -0.383  0.00  0.00    +0.000 N 
ATOM     10  H   THR A  16       3.533  -2.066   0.066  0.00  0.00    +0.000 HD
BRANCH   9  11
ATOM     11  CA  THR A  16       5.563  -2.461   0.413  0.00  0.00    +0.000 C 
BRANCH  11  12
ATOM     12  C   THR A  16       5.770  -3.966   0.412  0.00  0.00    +0.000 C 
ATOM     13  O   THR A  16       6.898  -4.456   0.471  0.00  0.00    +0.000 OA
ATOM     14  N   SER A  17       4.661  -4.693   0.357  0.00  0.00    +0.000 N 
ATOM     15  H   SER A  17       3.785  -4.230   0.323  0.00  0.00    +0.000 HD
BRANCH  14  16
ATOM     16  CA  SER A  17       4.703  -6.149   0.360  0.00  0.00    +0.000 C 
BRANCH  16  17
ATOM     17  C   SER A  17       5.277  -6.706  -0.938  0.00  0.00    +0.000 C 
ATOM     18  O   SER A  17       5.589  -7.894  -1.025  0.00  0.00    +0.000 OA
ATOM     19  N   GLU A  18       5.419  -5.851  -1.939  0.00  0.00    +0.000 N 
ATOM     20  H   GLU A  18       5.159  -4.918  -1.812  0.00  0.00    +0.000 HD
BRANCH  19  21
ATOM     21  CA  GLU A  18       5.962  -6.277  -3.223  0.00  0.00    +0.000 C 
BRANCH  21  22
ATOM     22  C   GLU A  18       7.490  -6.261  -3.190  0.00  0.00    +0.000 C 
ATOM     23  O   GLU A  18       8.130  -7.287  -3.418  0.00  0.00    +0.000 OA
ATOM     24  N   PRO A  19       8.100  -5.095  -2.905  0.00  0.00    +0.000 N 
ATOM     25  CA  PRO A  19       9.556  -4.955  -2.846  0.00  0.00    +0.000 C 
ATOM     26  CB  PRO A  19       9.781  -3.437  -2.769  0.00  0.00    +0.000 C 
ATOM     27  CG  PRO A  19       8.460  -2.824  -3.081  0.00  0.00    +0.000 C 
ATOM     28  CD  PRO A  19       7.436  -3.821  -2.632  0.00  0.00    +0.000 C 
BRANCH  25  29
ATOM     29  C   PRO A  19      10.175  -5.632  -1.622  0.00  0.00    +0.000 C 
ATOM     30  O   PRO A  19      11.054  -5.064  -0.974  0.00  0.00    +0.000 OA
ATOM     31  N   ALA A  20       9.724  -6.843  -1.310  0.00  0.00    +0.000 N 
ATOM     32  H   ALA A  20       9.028  -7.252  -1.857  0.00  0.00    +0.000 HD
BRANCH  31  33
ATOM     33  CA  ALA A  20      10.252  -7.575  -0.164  0.00  0.00    +0.000 C 
ATOM     34  CB  ALA A  20       9.598  -8.946  -0.063  0.00  0.00    +0.000 C 
BRANCH  33  35
ATOM     35  C   ALA A  20      11.763  -7.709  -0.259  0.00  0.00    +0.000 C 
ATOM     36  O   ALA A  20      12.466  -7.751   0.752  0.00  0.00    +0.000 OA
ATOM     37  N   GLN A  21      12.252  -7.762  -1.486  0.00  0.00    +0.000 N 
ATOM     38  H   GLN A  21      11.630  -7.713  -2.239  0.00  0.00    +0.000 HD
BRANCH  37  39
ATOM     39  CA  GLN A  21      13.680  -7.877  -1.746  0.00  0.00    +0.000 C 
BRANCH  39  40
ATOM     40  C   GLN A  21      14.328  -6.498  -1.797  0.00  0.00    +0.000 C 
ATOM     41  O   GLN A  21      15.469  -6.319  -1.372  0.00  0.00    +0.000 OA
ATOM     42  N   LYS A  22      13.588  -5.524  -2.322  0.00  0.00    +0.000 N 
ATOM     43  H   LYS A  22      12.686  -5.732  -2.642  0.00  0.00    +0.000 HD
BRANCH  42  44
ATOM     44  CA  LYS A  22      14.084  -4.157  -2.430  0.00  0.00    +0.000 C 
BRANCH  44  45
ATOM     45  C   LYS A  22      14.259  -3.530  -1.051  0.00  0.00    +0.000 C 
ATOM     46  O   LYS A  22      15.232  -2.819  -0.801  0.00  0.00    +0.000 OA
ATOM     47  N   ILE A  23      13.310  -3.800  -0.161  0.00  0.00    +0.000 N 
ATOM     48  H   ILE A  23      12.558  -4.372  -0.422  0.00  0.00    +0.000 HD
BRANCH  47  49
ATOM     49  CA  ILE A  23      13.357  -3.260   1.192  0.00  0.00    +0.000 C 
BRANCH  49  50
ATOM     50  C   ILE A  23      13.943  -4.277   2.168  0.00  0.00    +0.000 C 
ATOM     51  O   ILE A  23      13.608  -4.280   3.353  0.00  0.00    +0.000 OA
ATOM     52  N   ASN A  24      14.693  -3.225   2.689  0.00  0.00    +0.000 N 
ATOM     53  H   ASN A  24      15.663  -3.911   2.522  0.00  0.00    +0.000 HD
BRANCH  52  54
ATOM     54  CA  ASN A  24      15.279  -2.273   3.713  0.00  0.00    +0.000 C 
BRANCH  54  55
ATOM     55  C   ASN A  24      16.172  -2.411   4.999  0.00  0.00    +0.000 C 
ATOM     56  O   ASN A  24      16.081  -3.352   5.786  0.00  0.00    +0.000 OA
ATOM     57  N   VAL A  25      16.976  -1.320   5.246  0.00  0.00    +0.000 N 
ATOM     58  H   VAL A  25      17.731  -1.518   4.341  0.00  0.00    +0.000 HD
BRANCH  57  59
ATOM     59  CA  VAL A  25      17.618  -0.466   6.316  0.00  0.00    +0.000 C 
BRANCH  59  60
ATOM     60  C   VAL A  25      18.647  -0.713   7.441  0.00  0.00    +0.000 C 
ATOM     61  O   VAL A  25      18.811  -1.766   8.084  0.00  0.00    +0.000 OA
ATOM     62  N   LYS A  26      19.302   0.473   7.670  0.00  0.00    +0.000 N 
ATOM     63  H   LYS A  26      19.628   0.930   6.617  0.00  0.00    +0.000 HD
BRANCH  62  64
ATOM     64  CA  LYS A  26      20.469   1.136   8.281  0.00  0.00    +0.000 C 
BRANCH  64  65
ATOM     65  C   LYS A  26      21.158   1.013   9.671  0.00  0.00    +0.000 C 
ATOM     66  O   LYS A  26      21.444  -0.061  10.211  0.00  0.00    +0.000 OA
ATOM     67  N   GLN A  27      21.937   2.103   9.861  0.00  0.00    +0.000 N 
ATOM     68  H   GLN A  27      22.852   1.970   9.104  0.00  0.00    +0.000 HD
BRANCH  67  69
ATOM     69  CA  GLN A  27      22.401   2.895  11.010  0.00  0.00    +0.000 C 
BRANCH  69  70
ATOM     70  C   GLN A  27      23.418   2.379  12.033  0.00  0.00    +0.000 C 
ATOM     71  O   GLN A  27      23.820   1.192  11.989  0.00  0.00    +0.000 OA
ATOM     72  OXT GLN A  27      24.078   3.259  12.637  0.00  0.00    +0.000 OA
ENDBRANCH  69  70
BRANCH  69  73
ATOM     73  CB  GLN A  27      21.688   4.213  11.391  0.00  0.00    +0.000 C 
BRANCH  73  74
ATOM     74  CG  GLN A  27      20.155   4.250  11.427  0.00  0.00    +0.000 C 
BRANCH  74  75
ATOM     75  CD  GLN A  27      19.511   4.976  12.616  0.00  0.00    +0.000 C 
ATOM     76  OE1 GLN A  27      18.418   5.538  12.465  0.00  0.00    +0.000 OA
ATOM     77  NE2 GLN A  27      19.732   4.350  13.776  0.00  0.00    +0.000 N 
ATOM     78 HE21 GLN A  27      20.337   4.935  14.620  0.00  0.00    +0.000 HD
ATOM     79 HE22 GLN A  27      19.063   3.514  14.296  0.00  0.00    +0.000 HD
ENDBRANCH  74  75
ENDBRANCH  73  74
ENDBRANCH  69  73
ENDBRANCH  67  69
ENDBRANCH  64  65
BRANCH  64  80
ATOM     80  CB  LYS A  26      19.722   2.066   9.267  0.00  0.00    +0.000 C 
BRANCH  80  81
ATOM     81  CG  LYS A  26      18.629   2.945   8.635  0.00  0.00    +0.000 C 
BRANCH  81  82
ATOM     82  CD  LYS A  26      17.906   3.891   9.606  0.00  0.00    +0.000 C 
BRANCH  82  83
ATOM     83  CE  LYS A  26      16.796   4.630   8.851  0.00  0.00    +0.000 C 
BRANCH  83  84
ATOM     84  NZ  LYS A  26      16.268   5.830   9.526  0.00  0.00    +0.000 N 
ATOM     85  HZ1 LYS A  26      15.898   5.740  10.663  0.00  0.00    +0.000 HD
ATOM     86  HZ2 LYS A  26      15.225   6.167   9.031  0.00  0.00    +0.000 HD
ATOM     87  HZ3 LYS A  26      16.856   6.875   9.474  0.00  0.00    +0.000 HD
ENDBRANCH  83  84
ENDBRANCH  82  83
ENDBRANCH  81  82
ENDBRANCH  80  81
ENDBRANCH  64  80
ENDBRANCH  62  64
ENDBRANCH  59  60
BRANCH  59  88
ATOM     88  CB  VAL A  25      16.705   0.700   6.684  0.00  0.00    +0.000 C 
ATOM     89  CG1 VAL A  25      15.387   0.335   7.371  0.00  0.00    +0.000 C 
ATOM     90  CG2 VAL A  25      16.623   1.763   5.582  0.00  0.00    +0.000 C 
ENDBRANCH  59  88
ENDBRANCH  57  59
ENDBRANCH  54  55
BRANCH  54  91
ATOM     91  CB  ASN A  24      14.538  -0.949   4.003  0.00  0.00    +0.000 C 
BRANCH  91  92
ATOM     92  CG  ASN A  24      13.507  -0.073   3.260  0.00  0.00    +0.000 C 
ATOM     93  OD1 ASN A  24      13.020   0.843   3.959  0.00  0.00    +0.000 OA
ATOM     94  ND2 ASN A  24      13.319  -0.193   1.929  0.00  0.00    +0.000 N 
ATOM     95 HD21 ASN A  24      14.258  -0.045   1.202  0.00  0.00    +0.000 HD
ATOM     96 HD22 ASN A  24      12.725   0.779   1.555  0.00  0.00    +0.000 HD
ENDBRANCH  91  92
ENDBRANCH  54  91
ENDBRANCH  52  54
ENDBRANCH  49  50
BRANCH  49  97
ATOM     97  CB  ILE A  23      11.956  -2.842   1.683  0.00  0.00    +0.000 C 
ATOM     98  CG2 ILE A  23      12.060  -2.063   2.988  0.00  0.00    +0.000 C 
BRANCH  97  99
ATOM     99  CG1 ILE A  23      11.241  -2.007   0.617  0.00  0.00    +0.000 C 
ATOM    100  CD1 ILE A  23       9.740  -2.195   0.609  0.00  0.00    +0.000 C 
ENDBRANCH  97  99
ENDBRANCH  49  97
ENDBRANCH  47  49
ENDBRANCH  44  45
BRANCH  44 101
ATOM    101  CB  LYS A  22      13.126  -3.310  -3.269  0.00  0.00    +0.000 C 
BRANCH 101 102
ATOM    102  CG  LYS A  22      12.633  -4.011  -4.524  0.00  0.00    +0.000 C 
BRANCH 102 103
ATOM    103  CD  LYS A  22      12.205  -3.014  -5.589  0.00  0.00    +0.000 C 
BRANCH 103 104
ATOM    104  CE  LYS A  22      10.959  -3.482  -6.322  0.00  0.00    +0.000 C 
BRANCH 104 105
ATOM    105  NZ  LYS A  22      10.043  -2.352  -6.639  0.00  0.00    +0.000 N 
ATOM    106  HZ1 LYS A  22      10.195  -1.569  -5.971  0.00  0.00    +0.000 HD
ATOM    107  HZ2 LYS A  22       9.053  -2.665  -6.571  0.00  0.00    +0.000 HD
ATOM    108  HZ3 LYS A  22      10.220  -2.008  -7.604  0.00  0.00    +0.000 HD
ENDBRANCH 104 105
ENDBRANCH 103 104
ENDBRANCH 102 103
ENDBRANCH 101 102
ENDBRANCH  44 101
ENDBRANCH  42  44
ENDBRANCH  39  40
BRANCH  39 109
ATOM    109  CB  GLN A  21      13.923  -8.620  -3.061  0.00  0.00    +0.000 C 
BRANCH 109 110
ATOM    110  CG  GLN A  21      13.249  -9.981  -3.123  0.00  0.00    +0.000 C 
BRANCH 110 111
ATOM    111  CD  GLN A  21      12.589 -10.247  -4.462  0.00  0.00    +0.000 C 
ATOM    112  OE1 GLN A  21      11.648  -9.555  -4.851  0.00  0.00    +0.000 OA
ATOM    113  NE2 GLN A  21      13.082 -11.252  -5.175  0.00  0.00    +0.000 N 
ATOM    114 HE21 GLN A  21      13.831 -11.761  -4.802  0.00  0.00    +0.000 HD
ATOM    115 HE22 GLN A  21      12.673 -11.446  -6.045  0.00  0.00    +0.000 HD
ENDBRANCH 110 111
ENDBRANCH 109 110
ENDBRANCH  39 109
ENDBRANCH  37  39
ENDBRANCH  33  35
ENDBRANCH  31  33
ENDBRANCH  25  29
ENDBRANCH  21  22
BRANCH  21 116
ATOM    116  CB  GLU A  18       5.441  -5.388  -4.356  0.00  0.00    +0.000 C 
BRANCH 116 117
ATOM    117  CG  GLU A  18       4.700  -6.156  -5.440  0.00  0.00    +0.000 C 
BRANCH 117 118
ATOM    118  CD  GLU A  18       5.347  -6.011  -6.805  0.00  0.00    +0.000 C 
ATOM    119  OE1 GLU A  18       5.220  -4.925  -7.408  0.00  0.00    +0.000 OA
ATOM    120  OE2 GLU A  18       5.980  -6.983  -7.268  0.00  0.00    +0.000 OA
ENDBRANCH 117 118
ENDBRANCH 116 117
ENDBRANCH  21 116
ENDBRANCH  19  21
ENDBRANCH  16  17
BRANCH  16 121
ATOM    121  CB  SER A  17       3.306  -6.712   0.591  0.00  0.00    +0.000 C 
BRANCH 121 122
ATOM    122  OG  SER A  17       2.965  -6.695   1.966  0.00  0.00    +0.000 OA
ATOM    123  HG  SER A  17       3.314  -7.480   2.392  0.00  0.00    +0.000 HD
ENDBRANCH 121 122
ENDBRANCH  16 121
ENDBRANCH  14  16
ENDBRANCH  11  12
BRANCH  11 124
ATOM    124  CB  THR A  16       5.359  -1.952   1.842  0.00  0.00    +0.000 C 
ATOM    125  CG2 THR A  16       4.474  -2.847   2.687  0.00  0.00    +0.000 C 
BRANCH 124 126
ATOM    126  OG1 THR A  16       6.598  -1.808   2.512  0.00  0.00    +0.000 OA
ATOM    127  HG1 THR A  16       7.087  -2.634   2.462  0.00  0.00    +0.000 HD
ENDBRANCH 124 126
ENDBRANCH  11 124
ENDBRANCH   9  11
ENDBRANCH   6   7
BRANCH   6 128
ATOM    128  CB  TYR A  15       2.868  -0.085  -2.393  0.00  0.00    +0.000 C 
BRANCH 128 129
ATOM    129  CG  TYR A  15       3.431   0.682  -1.214  0.00  0.00    +0.000 A 
ATOM    130  CD1 TYR A  15       3.039   0.380   0.084  0.00  0.00    +0.000 A 
ATOM    131  CD2 TYR A  15       4.354   1.703  -1.400  0.00  0.00    +0.000 A 
ATOM    132  CE1 TYR A  15       3.550   1.076   1.163  0.00  0.00    +0.000 A 
ATOM    133  CE2 TYR A  15       4.871   2.402  -0.327  0.00  0.00    +0.000 A 
ATOM    134  CZ  TYR A  15       4.466   2.084   0.953  0.00  0.00    +0.000 A 
BRANCH 134 135
ATOM    135  OH  TYR A  15       4.978   2.777   2.025  0.00  0.00    +0.000 OA
ATOM    136  HH  TYR A  15       5.154   2.168   2.745  0.00  0.00    +0.000 HD
ENDBRANCH 134 135
ENDBRANCH 128 129
ENDBRANCH   6 128
ENDBRANCH   4   6
ENDBRANCH   1   2
BRANCH   1 139
ATOM    137  C   ASN A  13       0.985  -2.311   1.087  0.00  0.00    +0.000 C 
ATOM    138  O   ASN A  13       2.192  -2.442   1.264  0.00  0.00    +0.000 OA
ATOM    139  N   TYR A  14       0.295  -3.082   0.254  0.00  0.00    +0.000 N 
ATOM    140  H   TYR A  14      -0.662  -3.634   0.696  0.00  0.00    +0.000 HD
BRANCH 137 141
ATOM    141  CA  ASN A  13       0.217  -1.225   1.813  0.00  0.00    +0.000 C 
BRANCH 141 144
ATOM    142  C   ILE A  12      -1.893  -0.903   0.640  0.00  0.00    +0.000 C 
ATOM    143  O   ILE A  12      -1.349  -0.257  -0.257  0.00  0.00    +0.000 OA
ATOM    144  N   ASN A  13      -1.223  -1.406   1.673  0.00  0.00    +0.000 N 
ATOM    145  H   ASN A  13      -1.704  -1.919   2.354  0.00  0.00    +0.000 HD
BRANCH 142 146
ATOM    146  CA  ILE A  12      -3.397  -1.175   0.602  0.00  0.00    +0.000 C 
BRANCH 146 149
ATOM    147  C   ASP A  11      -3.823  -3.110   2.017  0.00  0.00    +0.000 C 
ATOM    148  O   ASP A  11      -3.387  -3.877   1.158  0.00  0.00    +0.000 OA
ATOM    149  N   ILE A  12      -3.869  -1.787   1.842  0.00  0.00    +0.000 N 
ATOM    150  H   ILE A  12      -4.229  -1.216   2.555  0.00  0.00    +0.000 HD
BRANCH 147 151
ATOM    151  CA  ASP A  11      -4.345  -3.653   3.347  0.00  0.00    +0.000 C 
BRANCH 151 154
ATOM    152  C   TYR A  10      -4.149  -1.874   4.993  0.00  0.00    +0.000 C 
ATOM    153  O   TYR A  10      -2.938  -2.054   5.120  0.00  0.00    +0.000 OA
ATOM    154  N   ASP A  11      -4.906  -2.592   4.167  0.00  0.00    +0.000 N 
ATOM    155  H   ASP A  11      -5.862  -2.397   4.104  0.00  0.00    +0.000 HD
BRANCH 152 156
ATOM    156  CA  TYR A  10      -4.866  -0.785   5.782  0.00  0.00    +0.000 C 
BRANCH 156 159
ATOM    157  C   ILE A   9      -6.027   0.286   3.961  0.00  0.00    +0.000 C 
ATOM    158  O   ILE A   9      -4.973   0.610   3.423  0.00  0.00    +0.000 OA
ATOM    159  N   TYR A  10      -6.086  -0.382   5.094  0.00  0.00    +0.000 N 
ATOM    160  H   TYR A  10      -6.936  -0.289   5.912  0.00  0.00    +0.000 HD
BRANCH 157 161
ATOM    161  CA  ILE A   9      -7.361   0.617   3.335  0.00  0.00    +0.000 C 
BRANCH 161 164
ATOM    162  C   PRO A   8      -8.467  -1.516   3.309  0.00  0.00    +0.000 C 
ATOM    163  O   PRO A   8      -7.715  -1.966   2.444  0.00  0.00    +0.000 OA
ATOM    164  N   ILE A   9      -8.373  -0.299   3.791  0.00  0.00    +0.000 N 
ATOM    165  H   ILE A   9      -8.999  -0.011   4.477  0.00  0.00    +0.000 HD
BRANCH 162 169
ATOM    166  C   SER A   7     -10.686  -0.849   5.513  0.00  0.00    +0.000 C 
ATOM    167  O   SER A   7      -9.712  -0.884   6.258  0.00  0.00    +0.000 OA
ATOM    168  N   PRO A   8     -10.700  -1.526   4.347  0.00  0.00    +0.000 N 
ATOM    169  CA  PRO A   8      -9.580  -2.353   3.894  0.00  0.00    +0.000 C 
ATOM    170  CB  PRO A   8     -10.190  -3.249   2.810  0.00  0.00    +0.000 C 
ATOM    171  CG  PRO A   8     -11.645  -2.914   2.782  0.00  0.00    +0.000 C 
ATOM    172  CD  PRO A   8     -11.772  -1.535   3.365  0.00  0.00    +0.000 C 
BRANCH 166 173
ATOM    173  CA  SER A   7     -11.905  -0.009   5.892  0.00  0.00    +0.000 C 
BRANCH 173 176
ATOM    174  C   SER A   6     -12.989   1.654   5.767  0.00  0.00    +0.000 C 
ATOM    175  O   SER A   6     -12.246   2.638   5.791  0.00  0.00    +0.000 OA
ATOM    176  N   SER A   7     -12.475   0.699   4.763  0.00  0.00    +0.000 N 
ATOM    177  H   SER A   7     -13.212   0.285   4.274  0.00  0.00    +0.000 HD
BRANCH 174 182
ATOM    178  C   VAL A   5     -16.337   2.552   8.575  0.00  0.00    +0.000 C 
ATOM    179  O   VAL A   5     -15.429   2.477   9.409  0.00  0.00    +0.000 OA
ATOM    180  N   SER A   6     -15.797   2.004   7.324  0.00  0.00    +0.000 N 
ATOM    181  H   SER A   6     -16.577   2.238   6.455  0.00  0.00    +0.000 HD
ATOM    182  CA  SER A   6     -14.336   2.026   6.697  0.00  0.00    +0.000 C 
BRANCH 178 183
ATOM    183  CA  VAL A   5     -17.642   3.015   9.516  0.00  0.00    +0.000 C 
BRANCH 183 186
ATOM    184  C   GLN A   4     -19.577   3.658  11.476  0.00  0.00    +0.000 C 
ATOM    185  O   GLN A   4     -18.621   4.049  12.145  0.00  0.00    +0.000 OA
ATOM    186  N   VAL A   5     -19.089   3.360  10.101  0.00  0.00    +0.000 N 
ATOM    187  H   VAL A   5     -19.697   4.097   9.392  0.00  0.00    +0.000 HD
BRANCH 184 188
ATOM    188  CA  GLN A   4     -20.826   3.956  12.568  0.00  0.00    +0.000 C 
BRANCH 188 191
ATOM    189  C   TYR A   3     -22.790   4.405  14.522  0.00  0.00    +0.000 C 
ATOM    190  O   TYR A   3     -21.908   5.008  15.146  0.00  0.00    +0.000 OA
ATOM    191  N   GLN A   4     -22.291   4.188  13.134  0.00  0.00    +0.000 N 
ATOM    192  H   GLN A   4     -22.803   5.073  12.524  0.00  0.00    +0.000 HD
BRANCH 189 193
ATOM    193  CA  TYR A   3     -24.014   4.916  15.570  0.00  0.00    +0.000 C 
BRANCH 193 196
ATOM    194  C   ASP A   2     -25.904   5.746  17.327  0.00  0.00    +0.000 C 
ATOM    195  O   ASP A   2     -25.014   6.086  18.121  0.00  0.00    +0.000 OA
ATOM    196  N   TYR A   3     -25.380   5.512  16.010  0.00  0.00    +0.000 N 
ATOM    197  H   TYR A   3     -25.444   6.491  15.336  0.00  0.00    +0.000 HD
BRANCH 194 198
ATOM    198  CA  ASP A   2     -27.211   6.291  18.115  0.00  0.00    +0.000 C 
BRANCH 198 201
ATOM    199  C   MET A   1     -29.345   7.398  19.052  0.00  0.00    +0.000 C 
ATOM    200  O   MET A   1     -28.765   8.039  19.923  0.00  0.00    +0.000 OA
ATOM    201  N   ASP A   2     -28.570   6.894  18.012  0.00  0.00    +0.000 N 
ATOM    202  H   ASP A   2     -28.584   7.753  17.186  0.00  0.00    +0.000 HD
BRANCH 199 203
ATOM    203  CA  MET A   1     -30.900   7.607  19.185  0.00  0.00    +0.000 C 
BRANCH 203 204
ATOM    204  N   MET A   1     -31.464   8.741  18.432  0.00  0.00    +0.000 N 
ATOM    205  H   MET A   1     -31.840   8.473  17.326  0.00  0.00    +0.000 HD
ATOM    206  H2  MET A   1     -30.674   9.628  18.265  0.00  0.00    +0.000 HD
ATOM    207  H3  MET A   1     -32.351   9.411  18.885  0.00  0.00    +0.000 HD
ENDBRANCH 203 204
BRANCH 203 208
ATOM    208  CB  MET A   1     -31.963   6.508  19.346  0.00  0.00    +0.000 C 
BRANCH 208 209
ATOM    209  CG  MET A   1     -33.273   6.997  19.989  0.00  0.00    +0.000 C 
BRANCH 209 210
ATOM    210  SD  MET A   1     -33.700   6.203  21.567  0.00  0.00    +0.000 S 
ATOM    211  CE  MET A   1     -35.346   5.594  21.127  0.00  0.00    +0.000 C 
ENDBRANCH 209 210
ENDBRANCH 208 209
ENDBRANCH 203 208
ENDBRANCH 199 203
ENDBRANCH 198 201
BRANCH 198 212
ATOM    212  CB  ASP A   2     -27.962   4.914  18.138  0.00  0.00    +0.000 C 
BRANCH 212 213
ATOM    213  CG  ASP A   2     -29.442   4.484  18.261  0.00  0.00    +0.000 C 
ATOM    214  OD1 ASP A   2     -30.356   5.315  18.425  0.00  0.00    +0.000 OA
ATOM    215  OD2 ASP A   2     -29.692   3.252  18.195  0.00  0.00    +0.000 OA
ENDBRANCH 212 213
ENDBRANCH 198 212
ENDBRANCH 194 198
ENDBRANCH 193 196
BRANCH 193 216
ATOM    216  CB  TYR A   3     -24.961   3.662  15.432  0.00  0.00    +0.000 C 
BRANCH 216 217
ATOM    217  CG  TYR A   3     -26.520   3.688  15.520  0.00  0.00    +0.000 C 
ATOM    218  CD1 TYR A   3     -27.403   3.250  14.498  0.00  0.00    +0.000 C 
ATOM    219  CE1 TYR A   3     -28.551   4.035  14.205  0.00  0.00    +0.000 C 
ATOM    220  CZ  TYR A   3     -28.605   5.257  14.918  0.00  0.00    +0.000 C 
ATOM    221  CE2 TYR A   3     -28.360   5.058  16.288  0.00  0.00    +0.000 C 
ATOM    222  CD2 TYR A   3     -27.302   4.161  16.601  0.00  0.00    +0.000 C 
BRANCH 220 223
ATOM    223  OH  TYR A   3     -28.807   6.505  14.381  0.00  0.00    +0.000 OA
ATOM    224  HH  TYR A   3     -27.765   7.047  14.223  0.00  0.00    +0.000 HD
ENDBRANCH 220 223
ENDBRANCH 216 217
ENDBRANCH 193 216
ENDBRANCH 189 193
ENDBRANCH 188 191
BRANCH 188 225
ATOM    225  CB  GLN A   4     -21.266   2.476  12.655  0.00  0.00    +0.000 C 
BRANCH 225 226
ATOM    226  CG  GLN A   4     -22.745   2.132  12.375  0.00  0.00    +0.000 C 
BRANCH 226 227
ATOM    227  CD  GLN A   4     -23.607   1.321  13.379  0.00  0.00    +0.000 C 
ATOM    228  OE1 GLN A   4     -24.809   1.564  13.255  0.00  0.00    +0.000 OA
ATOM    229  NE2 GLN A   4     -23.340   0.031  13.667  0.00  0.00    +0.000 N 
ATOM    230 HE21 GLN A   4     -22.932  -0.894  13.040  0.00  0.00    +0.000 HD
ATOM    231 HE22 GLN A   4     -23.668  -0.368  14.740  0.00  0.00    +0.000 HD
ENDBRANCH 226 227
ENDBRANCH 225 226
ENDBRANCH 188 225
ENDBRANCH 184 188
ENDBRANCH 183 186
BRANCH 183 232
ATOM    232  CB  VAL A   5     -17.958   1.509   9.495  0.00  0.00    +0.000 C 
ATOM    233  CG1 VAL A   5     -17.585   0.704  10.755  0.00  0.00    +0.000 C 
ATOM    234  CG2 VAL A   5     -19.270   1.117   8.790  0.00  0.00    +0.000 C 
ENDBRANCH 183 232
ENDBRANCH 178 183
ENDBRANCH 174 182
ENDBRANCH 173 176
BRANCH 173 235
ATOM    235  CB  SER A   7     -12.992  -0.888   6.487  0.00  0.00    +0.000 C 
BRANCH 235 236
ATOM    236  OG  SER A   7     -13.203  -0.593   7.857  0.00  0.00    +0.000 OA
ATOM    237  HG  SER A   7     -14.145  -0.511   8.025  0.00  0.00    +0.000 HD
ENDBRANCH 235 236
ENDBRANCH 173 235
ENDBRANCH 166 173
ENDBRANCH 162 169
ENDBRANCH 161 164
BRANCH 161 238
ATOM    238  CB  ILE A   9      -7.758   2.069   3.636  0.00  0.00    +0.000 C 
ATOM    239  CG2 ILE A   9      -9.178   2.317   3.158  0.00  0.00    +0.000 C 
BRANCH 238 240
ATOM    240  CG1 ILE A   9      -7.644   2.377   5.134  0.00  0.00    +0.000 C 
ATOM    241  CD1 ILE A   9      -6.238   2.708   5.587  0.00  0.00    +0.000 C 
ENDBRANCH 238 240
ENDBRANCH 161 238
ENDBRANCH 157 161
ENDBRANCH 156 159
BRANCH 156 242
ATOM    242  CB  TYR A  10      -5.122  -1.258   7.217  0.00  0.00    +0.000 C 
BRANCH 242 243
ATOM    243  CG  TYR A  10      -6.513  -1.723   7.503  0.00  0.00    +0.000 A 
ATOM    244  CD1 TYR A  10      -7.169  -2.626   6.688  0.00  0.00    +0.000 A 
ATOM    245  CD2 TYR A  10      -7.155  -1.257   8.625  0.00  0.00    +0.000 A 
ATOM    246  CE1 TYR A  10      -8.445  -3.053   6.996  0.00  0.00    +0.000 A 
ATOM    247  CE2 TYR A  10      -8.421  -1.666   8.941  0.00  0.00    +0.000 A 
ATOM    248  CZ  TYR A  10      -9.072  -2.569   8.128  0.00  0.00    +0.000 A 
BRANCH 248 249
ATOM    249  OH  TYR A  10     -10.249  -3.141   8.550  0.00  0.00    +0.000 OA
ATOM    250  HH  TYR A  10     -10.067  -3.682   9.591  0.00  0.00    +0.000 HD
ENDBRANCH 248 249
ENDBRANCH 242 243
ENDBRANCH 156 242
ENDBRANCH 152 156
ENDBRANCH 151 154
BRANCH 151 251
ATOM    251  CB  ASP A  11      -5.396  -4.735   3.088  0.00  0.00    +0.000 C 
BRANCH 251 252
ATOM    252  CG  ASP A  11      -5.489  -5.735   4.225  0.00  0.00    +0.000 C 
ATOM    253  OD1 ASP A  11      -4.438  -6.276   4.625  0.00  0.00    +0.000 OA
ATOM    254  OD2 ASP A  11      -6.612  -5.976   4.712  0.00  0.00    +0.000 OA
ENDBRANCH 251 252
ENDBRANCH 151 251
ENDBRANCH 147 151
ENDBRANCH 146 149
BRANCH 146 255
ATOM    255  CB  ILE A  12      -4.153   0.131   0.274  0.00  0.00    +0.000 C 
ATOM    256  CG2 ILE A  12      -5.653  -0.072   0.420  0.00  0.00    +0.000 C 
BRANCH 255 257
ATOM    257  CG1 ILE A  12      -3.680   1.280   1.165  0.00  0.00    +0.000 C 
ATOM    258  CD1 ILE A  12      -2.561   2.097   0.557  0.00  0.00    +0.000 C 
ENDBRANCH 255 257
ENDBRANCH 146 255
ENDBRANCH 142 146
ENDBRANCH 141 144
BRANCH 141 259
ATOM    259  CB  ASN A  13       0.613  -1.206   3.286  0.00  0.00    +0.000 C 
BRANCH 259 260
ATOM    260  CG  ASN A  13      -0.032  -0.064   4.046  0.00  0.00    +0.000 C 
ATOM    261  OD1 ASN A  13      -0.857   0.671   3.504  0.00  0.00    +0.000 OA
ATOM    262  ND2 ASN A  13       0.343   0.091   5.311  0.00  0.00    +0.000 N 
ATOM    263 HD21 ASN A  13       1.005  -0.532   5.677  0.00  0.00    +0.000 HD
ATOM    264 HD22 ASN A  13      -0.058   0.821   5.827  0.00  0.00    +0.000 HD
ENDBRANCH 259 260
ENDBRANCH 141 259
ENDBRANCH 137 141
ENDBRANCH   1 139
BRANCH   1 265
ATOM    265  CB  TYR A  14      -0.039  -4.967  -1.307  0.00  0.00    +0.000 C 
BRANCH 265 266
ATOM    266  CG  TYR A  14      -1.074  -4.161  -2.044  0.00  0.00    +0.000 A 
ATOM    267  CD1 TYR A  14      -2.208  -4.777  -2.539  0.00  0.00    +0.000 A 
ATOM    268  CD2 TYR A  14      -0.927  -2.800  -2.241  0.00  0.00    +0.000 A 
ATOM    269  CE1 TYR A  14      -3.169  -4.063  -3.212  0.00  0.00    +0.000 A 
ATOM    270  CE2 TYR A  14      -1.884  -2.071  -2.915  0.00  0.00    +0.000 A 
ATOM    271  CZ  TYR A  14      -3.007  -2.706  -3.403  0.00  0.00    +0.000 A 
BRANCH 271 272
ATOM    272  OH  TYR A  14      -3.848  -2.035  -4.260  0.00  0.00    +0.000 OA
ATOM    273  HH  TYR A  14      -3.788  -0.868  -4.076  0.00  0.00    +0.000 HD
ENDBRANCH 271 272
ENDBRANCH 265 266
ENDBRANCH   1 265
TORSDOF 110
REMARK  Name = /Users/acegid/Desktop/Smoking_Research/Docking/Docking_All_PDB/All_PDB/2L87_H.pdb
REMARK  124 active torsions:
REMARK  status: ('A' for Active; 'I' for Inactive)
REMARK    1  A    between atoms: N_1  and  CA_5
REMARK    2  A    between atoms: CA_5  and  CB_7
REMARK    3  A    between atoms: CA_5  and  C_18
REMARK    4  A    between atoms: CB_7  and  CG_10
REMARK    5  A    between atoms: CG_10  and  SD_13
REMARK    6  A    between atoms: SD_13  and  CE_14
REMARK    7  A    between atoms: N_20  and  CA_22
REMARK    8  A    between atoms: CA_22  and  CB_24
REMARK    9  A    between atoms: CA_22  and  C_30
REMARK   10  A    between atoms: CB_24  and  CG_27
REMARK   11  A    between atoms: N_32  and  CA_34
REMARK   12  A    between atoms: CA_34  and  CB_36
REMARK   13  A    between atoms: CA_34  and  C_51
REMARK   14  A    between atoms: CB_36  and  CG_39
REMARK   15  A    between atoms: CZ_44  and  OH_45
REMARK   16  A    between atoms: N_53  and  CA_55
REMARK   17  A    between atoms: CA_55  and  CB_57
REMARK   18  A    between atoms: CA_55  and  C_68
REMARK   19  A    between atoms: CB_57  and  CG_60
REMARK   20  A    between atoms: CG_60  and  CD_63
REMARK   21  A    between atoms: N_70  and  CA_72
REMARK   22  A    between atoms: CA_72  and  CB_74
REMARK   23  A    between atoms: CA_72  and  C_84
REMARK   24  A    between atoms: CB_74  and  CG1_76
REMARK   25  A    between atoms: CB_74  and  CG2_80
REMARK   26  A    between atoms: CA_88  and  C_95
REMARK   27  A    between atoms: CB_90  and  OG_93
REMARK   28  A    between atoms: N_97  and  CA_98
REMARK   29  A    between atoms: CA_98  and  C_99
REMARK   30  A    between atoms: CA_98  and  CB_101
REMARK   31  A    between atoms: CB_101  and  OG_102
REMARK   32  A    between atoms: CA_109  and  C_110
REMARK   33  A    between atoms: N_122  and  CA_123
REMARK   34  A    between atoms: CA_123  and  C_124
REMARK   35  A    between atoms: CA_123  and  CB_126
REMARK   36  A    between atoms: CB_126  and  CG1_127
REMARK   37  A    between atoms: CB_126  and  CG2_128
REMARK   38  A    between atoms: CG1_127  and  CD1_129
REMARK   39  A    between atoms: N_141  and  CA_143
REMARK   40  A    between atoms: CA_143  and  CB_145
REMARK   41  A    between atoms: CA_143  and  C_160
REMARK   42  A    between atoms: CB_145  and  CG_148
REMARK   43  A    between atoms: CZ_157  and  OH_158
REMARK   44  A    between atoms: N_162  and  CA_163
REMARK   45  A    between atoms: CA_163  and  C_164
REMARK   46  A    between atoms: CA_163  and  CB_166
REMARK   47  A    between atoms: CB_166  and  CG_167
REMARK   48  A    between atoms: N_174  and  CA_175
REMARK   49  A    between atoms: CA_175  and  C_176
REMARK   50  A    between atoms: CA_175  and  CB_178
REMARK   51  A    between atoms: CB_178  and  CG1_179
REMARK   52  A    between atoms: CB_178  and  CG2_180
REMARK   53  A    between atoms: CG1_179  and  CD1_181
REMARK   54  A    between atoms: N_193  and  CA_194
REMARK   55  A    between atoms: CA_194  and  C_195
REMARK   56  A    between atoms: CA_194  and  CB_197
REMARK   57  A    between atoms: CB_197  and  CG_198
REMARK   58  A    between atoms: N_207  and  CA_209
REMARK   59  A    between atoms: CA_209  and  CB_211
REMARK   60  A    between atoms: CA_209  and  C_226
REMARK   61  A    between atoms: CB_211  and  CG_214
REMARK   62  A    between atoms: CZ_223  and  OH_224
REMARK   63  A    between atoms: N_228  and  CA_229
REMARK   64  A    between atoms: CA_229  and  C_230
REMARK   65  A    between atoms: CA_229  and  CB_232
REMARK   66  A    between atoms: CB_232  and  CG_233
REMARK   67  A    between atoms: CZ_238  and  OH_239
REMARK   68  A    between atoms: N_249  and  CA_250
REMARK   69  A    between atoms: CA_250  and  C_251
REMARK   70  A    between atoms: CA_250  and  CB_253
REMARK   71  A    between atoms: CB_253  and  OG1_254
REMARK   72  A    between atoms: CB_253  and  CG2_255
REMARK   73  A    between atoms: N_263  and  CA_264
REMARK   74  A    between atoms: CA_264  and  C_265
REMARK   75  A    between atoms: CA_264  and  CB_267
REMARK   76  A    between atoms: CB_267  and  OG_268
REMARK   77  A    between atoms: N_274  and  CA_275
REMARK   78  A    between atoms: CA_275  and  C_276
REMARK   79  A    between atoms: CA_275  and  CB_278
REMARK   80  A    between atoms: CB_278  and  CG_279
REMARK   81  A    between atoms: CG_279  and  CD_280
REMARK   82  A    between atoms: CA_290  and  C_291
REMARK   83  A    between atoms: N_303  and  CA_304
REMARK   84  A    between atoms: CA_304  and  C_305
REMARK   85  A    between atoms: CA_304  and  CB_307
REMARK   86  A    between atoms: N_313  and  CA_314
REMARK   87  A    between atoms: CA_314  and  C_315
REMARK   88  A    between atoms: CA_314  and  CB_317
REMARK   89  A    between atoms: CB_317  and  CG_319
REMARK   90  A    between atoms: CG_319  and  CD_321
REMARK   91  A    between atoms: N_330  and  CA_331
REMARK   92  A    between atoms: CA_331  and  C_332
REMARK   93  A    between atoms: CA_331  and  CB_334
REMARK   94  A    between atoms: CB_334  and  CG_335
REMARK   95  A    between atoms: CG_335  and  CD_336
REMARK   96  A    between atoms: CD_336  and  CE_337
REMARK   97  A    between atoms: CE_337  and  NZ_338
REMARK   98  A    between atoms: N_352  and  CA_353
REMARK   99  A    between atoms: CA_353  and  C_354
REMARK  100  A    between atoms: CA_353  and  CB_356
REMARK  101  A    between atoms: CB_356  and  CG1_357
REMARK  102  A    between atoms: CB_356  and  CG2_358
REMARK  103  A    between atoms: CG1_357  and  CD1_359
REMARK  104  A    between atoms: N_371  and  CA_373
REMARK  105  A    between atoms: CA_373  and  CB_375
REMARK  106  A    between atoms: CA_373  and  C_383
REMARK  107  A    between atoms: CB_375  and  CG_378
REMARK  108  A    between atoms: N_385  and  CA_387
REMARK  109  A    between atoms: CA_387  and  CB_389
REMARK  110  A    between atoms: CA_387  and  C_399
REMARK  111  A    between atoms: CB_389  and  CG1_391
REMARK  112  A    between atoms: CB_389  and  CG2_395
REMARK  113  A    between atoms: N_401  and  CA_403
REMARK  114  A    between atoms: CA_403  and  CB_405
REMARK  115  A    between atoms: CA_403  and  C_421
REMARK  116  A    between atoms: CB_405  and  CG_408
REMARK  117  A    between atoms: CG_408  and  CD_411
REMARK  118  A    between atoms: CD_411  and  CE_414
REMARK  119  A    between atoms: CE_414  and  NZ_417
REMARK  120  A    between atoms: N_423  and  CA_425
REMARK  121  A    between atoms: CA_425  and  CB_427
REMARK  122  A    between atoms: CA_425  and  C_438
REMARK  123  A    between atoms: CB_427  and  CG_430
REMARK  124  A    between atoms: CG_430  and  CD_433
REMARK                            x       y       z     vdW  Elec       q    Type
REMARK                         _______ _______ _______ _____ _____    ______ ____
ROOT
ATOM      1  CB  SER A   6     -14.207   0.660   7.412  0.00  0.00    +0.000 C 
ATOM      2  OG  SER A   6     -15.332  -0.175   7.138  0.00  0.00    +0.000 OA
ATOM      3  HG  SER A   6     -15.870  -0.615   8.107  0.00  0.00    +0.000 HD
ENDROOT
TORSDOF 0
