REMARK  Name = /Users/acegid/Desktop/Smoking_Research/Docking/Docking_All_PDB/All_PDB/2L8E_H.pdb
REMARK  221 active torsions:
REMARK  status: ('A' for Active; 'I' for Inactive)
REMARK    1  A    between atoms: N_1  and  CA_2
REMARK    2  A    between atoms: CA_2  and  C_3
REMARK    3  A    between atoms: N_10  and  CA_11
REMARK    4  A    between atoms: CA_11  and  C_12
REMARK    5  A    between atoms: CA_11  and  CB_14
REMARK    6  A    between atoms: CB_14  and  OG1_15
REMARK    7  A    between atoms: CB_14  and  CG2_16
REMARK    8  A    between atoms: N_24  and  CA_25
REMARK    9  A    between atoms: CA_25  and  C_26
REMARK   10  A    between atoms: CA_25  and  CB_28
REMARK   11  A    between atoms: CB_28  and  CG_29
REMARK   12  A    between atoms: CG_29  and  CD_30
REMARK   13  A    between atoms: CD_30  and  NE_31
REMARK   14  A    between atoms: N_48  and  CA_49
REMARK   15  A    between atoms: CA_49  and  C_50
REMARK   16  A    between atoms: N_55  and  CA_56
REMARK   17  A    between atoms: CA_56  and  C_57
REMARK   18  A    between atoms: CA_56  and  CB_59
REMARK   19  A    between atoms: CB_59  and  CG1_60
REMARK   20  A    between atoms: CB_59  and  CG2_61
REMARK   21  A    between atoms: N_71  and  CA_72
REMARK   22  A    between atoms: CA_72  and  C_73
REMARK   23  A    between atoms: CA_72  and  CB_75
REMARK   24  A    between atoms: CB_75  and  CG_76
REMARK   25  A    between atoms: N_83  and  CA_84
REMARK   26  A    between atoms: CA_84  and  C_85
REMARK   27  A    between atoms: CA_84  and  CB_87
REMARK   28  A    between atoms: CB_87  and  OG_88
REMARK   29  A    between atoms: CA_95  and  C_96
REMARK   30  A    between atoms: N_108  and  CA_109
REMARK   31  A    between atoms: CA_109  and  C_110
REMARK   32  A    between atoms: CA_109  and  CB_112
REMARK   33  A    between atoms: CB_112  and  OG_113
REMARK   34  A    between atoms: N_119  and  CA_120
REMARK   35  A    between atoms: CA_120  and  C_121
REMARK   36  A    between atoms: CA_120  and  CB_123
REMARK   37  A    between atoms: N_129  and  CA_130
REMARK   38  A    between atoms: CA_130  and  C_131
REMARK   39  A    between atoms: CA_130  and  CB_133
REMARK   40  A    between atoms: CB_133  and  CG_134
REMARK   41  A    between atoms: CG_134  and  CD_135
REMARK   42  A    between atoms: N_144  and  CA_145
REMARK   43  A    between atoms: CA_145  and  C_146
REMARK   44  A    between atoms: CA_145  and  CB_148
REMARK   45  A    between atoms: CB_148  and  CG_149
REMARK   46  A    between atoms: CG_149  and  CD1_150
REMARK   47  A    between atoms: CG_149  and  CD2_151
REMARK   48  A    between atoms: N_163  and  CA_164
REMARK   49  A    between atoms: CA_164  and  C_165
REMARK   50  A    between atoms: CA_164  and  CB_167
REMARK   51  A    between atoms: CB_167  and  CG_168
REMARK   52  A    between atoms: N_175  and  CA_176
REMARK   53  A    between atoms: CA_176  and  C_177
REMARK   54  A    between atoms: CA_176  and  CB_179
REMARK   55  A    between atoms: CB_179  and  CG_180
REMARK   56  A    between atoms: CG_180  and  CD_181
REMARK   57  A    between atoms: CD_181  and  CE_182
REMARK   58  A    between atoms: CE_182  and  NZ_183
REMARK   59  A    between atoms: N_197  and  CA_198
REMARK   60  A    between atoms: CA_198  and  C_199
REMARK   61  A    between atoms: CA_198  and  CB_201
REMARK   62  A    between atoms: CB_201  and  CG_202
REMARK   63  A    between atoms: CG_202  and  CD_203
REMARK   64  A    between atoms: CD_203  and  CE_204
REMARK   65  A    between atoms: CE_204  and  NZ_205
REMARK   66  A    between atoms: N_219  and  CA_220
REMARK   67  A    between atoms: CA_220  and  C_221
REMARK   68  A    between atoms: CA_220  and  CB_223
REMARK   69  A    between atoms: N_229  and  CA_230
REMARK   70  A    between atoms: CA_230  and  C_231
REMARK   71  A    between atoms: CA_230  and  CB_233
REMARK   72  A    between atoms: CB_233  and  CG_234
REMARK   73  A    between atoms: N_243  and  CA_244
REMARK   74  A    between atoms: CA_244  and  C_245
REMARK   75  A    between atoms: CA_244  and  CB_247
REMARK   76  A    between atoms: CB_247  and  CG_248
REMARK   77  A    between atoms: CG_248  and  CD1_249
REMARK   78  A    between atoms: CG_248  and  CD2_250
REMARK   79  A    between atoms: N_262  and  CA_263
REMARK   80  A    between atoms: CA_263  and  C_264
REMARK   81  A    between atoms: CA_263  and  CB_266
REMARK   82  A    between atoms: CB_266  and  CG_267
REMARK   83  A    between atoms: CG_267  and  CD1_268
REMARK   84  A    between atoms: CG_267  and  CD2_269
REMARK   85  A    between atoms: N_281  and  CA_282
REMARK   86  A    between atoms: CA_282  and  C_283
REMARK   87  A    between atoms: CA_282  and  CB_285
REMARK   88  A    between atoms: CB_285  and  CG_286
REMARK   89  A    between atoms: CG_286  and  CD_287
REMARK   90  A    between atoms: CD_287  and  CE_288
REMARK   91  A    between atoms: CE_288  and  NZ_289
REMARK   92  A    between atoms: N_303  and  CA_304
REMARK   93  A    between atoms: CA_304  and  C_305
REMARK   94  A    between atoms: CA_304  and  CB_307
REMARK   95  A    between atoms: CB_307  and  SG_308
REMARK   96  A    between atoms: N_314  and  CA_315
REMARK   97  A    between atoms: CA_315  and  C_316
REMARK   98  A    between atoms: CA_315  and  CB_318
REMARK   99  A    between atoms: CB_318  and  CG_319
REMARK  100  A    between atoms: CG_319  and  CD_320
REMARK  101  A    between atoms: N_329  and  CA_330
REMARK  102  A    between atoms: CA_330  and  C_331
REMARK  103  A    between atoms: CA_330  and  CB_333
REMARK  104  A    between atoms: CB_333  and  CG_334
REMARK  105  A    between atoms: CZ_339  and  OH_340
REMARK  106  A    between atoms: N_350  and  CA_351
REMARK  107  A    between atoms: CA_351  and  C_352
REMARK  108  A    between atoms: CA_351  and  CB_354
REMARK  109  A    between atoms: CB_354  and  SG_355
REMARK  110  A    between atoms: N_361  and  CA_362
REMARK  111  A    between atoms: CA_362  and  C_363
REMARK  112  A    between atoms: N_368  and  CA_369
REMARK  113  A    between atoms: CA_369  and  C_370
REMARK  114  A    between atoms: CA_369  and  CB_372
REMARK  115  A    between atoms: CB_372  and  CG_373
REMARK  116  A    between atoms: CG_373  and  CD_374
REMARK  117  A    between atoms: CD_374  and  CE_375
REMARK  118  A    between atoms: CE_375  and  NZ_376
REMARK  119  A    between atoms: N_390  and  CA_391
REMARK  120  A    between atoms: CA_391  and  C_392
REMARK  121  A    between atoms: CA_391  and  CB_394
REMARK  122  A    between atoms: CB_394  and  CG_395
REMARK  123  A    between atoms: CZ_400  and  OH_401
REMARK  124  A    between atoms: N_411  and  CA_412
REMARK  125  A    between atoms: CA_412  and  C_413
REMARK  126  A    between atoms: CA_412  and  CB_415
REMARK  127  A    between atoms: CA_422  and  C_423
REMARK  128  A    between atoms: N_435  and  CA_436
REMARK  129  A    between atoms: CA_436  and  C_437
REMARK  130  A    between atoms: CA_436  and  CB_439
REMARK  131  A    between atoms: N_445  and  CA_446
REMARK  132  A    between atoms: CA_446  and  C_447
REMARK  133  A    between atoms: CA_446  and  CB_449
REMARK  134  A    between atoms: CB_449  and  CG_450
REMARK  135  A    between atoms: CG_450  and  CD_451
REMARK  136  A    between atoms: N_460  and  CA_461
REMARK  137  A    between atoms: CA_461  and  C_462
REMARK  138  A    between atoms: CA_461  and  CB_464
REMARK  139  A    between atoms: CB_464  and  CG_465
REMARK  140  A    between atoms: CG_465  and  CD_466
REMARK  141  A    between atoms: N_477  and  CA_478
REMARK  142  A    between atoms: CA_478  and  C_479
REMARK  143  A    between atoms: CA_478  and  CB_481
REMARK  144  A    between atoms: CB_481  and  CG_482
REMARK  145  A    between atoms: N_497  and  CA_498
REMARK  146  A    between atoms: CA_498  and  C_499
REMARK  147  A    between atoms: CA_498  and  CB_501
REMARK  148  A    between atoms: CB_501  and  CG_502
REMARK  149  A    between atoms: CG_502  and  CD_503
REMARK  150  A    between atoms: CD_503  and  NE_504
REMARK  151  A    between atoms: N_521  and  CA_522
REMARK  152  A    between atoms: CA_522  and  C_523
REMARK  153  A    between atoms: N_528  and  CA_529
REMARK  154  A    between atoms: CA_529  and  C_530
REMARK  155  A    between atoms: CA_529  and  CB_532
REMARK  156  A    between atoms: CB_532  and  OG_533
REMARK  157  A    between atoms: N_539  and  CA_540
REMARK  158  A    between atoms: CA_540  and  C_541
REMARK  159  A    between atoms: CA_540  and  CB_543
REMARK  160  A    between atoms: CB_543  and  CG_544
REMARK  161  A    between atoms: CG_544  and  CD_545
REMARK  162  A    between atoms: CD_545  and  CE_546
REMARK  163  A    between atoms: CE_546  and  NZ_547
REMARK  164  A    between atoms: N_561  and  CA_562
REMARK  165  A    between atoms: CA_562  and  C_563
REMARK  166  A    between atoms: CA_562  and  CB_565
REMARK  167  A    between atoms: CB_565  and  CG_566
REMARK  168  A    between atoms: CG_566  and  CD_567
REMARK  169  A    between atoms: CD_567  and  NE_568
REMARK  170  A    between atoms: N_585  and  CA_586
REMARK  171  A    between atoms: CA_586  and  C_587
REMARK  172  A    between atoms: CA_586  and  CB_589
REMARK  173  A    between atoms: CB_589  and  CG_590
REMARK  174  A    between atoms: N_605  and  CA_606
REMARK  175  A    between atoms: CA_606  and  C_607
REMARK  176  A    between atoms: CA_606  and  CB_609
REMARK  177  A    between atoms: CB_609  and  SG_610
REMARK  178  A    between atoms: N_616  and  CA_617
REMARK  179  A    between atoms: CA_617  and  C_618
REMARK  180  A    between atoms: CA_617  and  CB_620
REMARK  181  A    between atoms: CB_620  and  OG_621
REMARK  182  A    between atoms: N_627  and  CA_628
REMARK  183  A    between atoms: CA_628  and  C_629
REMARK  184  A    between atoms: CA_628  and  CB_631
REMARK  185  A    between atoms: CB_631  and  CG_632
REMARK  186  A    between atoms: CG_632  and  SD_633
REMARK  187  A    between atoms: SD_633  and  CE_634
REMARK  188  A    between atoms: N_644  and  CA_645
REMARK  189  A    between atoms: CA_645  and  C_646
REMARK  190  A    between atoms: CA_645  and  CB_648
REMARK  191  A    between atoms: CB_648  and  OG1_649
REMARK  192  A    between atoms: CB_648  and  CG2_650
REMARK  193  A    between atoms: N_658  and  CA_659
REMARK  194  A    between atoms: CA_659  and  C_660
REMARK  195  A    between atoms: CA_659  and  CB_662
REMARK  196  A    between atoms: CB_662  and  SG_663
REMARK  197  A    between atoms: N_669  and  CA_670
REMARK  198  A    between atoms: CA_670  and  C_671
REMARK  199  A    between atoms: CA_670  and  CB_673
REMARK  200  A    between atoms: N_679  and  CA_680
REMARK  201  A    between atoms: CA_680  and  C_681
REMARK  202  A    between atoms: CA_680  and  CB_683
REMARK  203  A    between atoms: CB_683  and  CG_684
REMARK  204  A    between atoms: CG_684  and  CD_685
REMARK  205  A    between atoms: CD_685  and  CE_686
REMARK  206  A    between atoms: CE_686  and  NZ_687
REMARK  207  A    between atoms: N_701  and  CA_702
REMARK  208  A    between atoms: CA_702  and  C_703
REMARK  209  A    between atoms: CA_702  and  CB_705
REMARK  210  A    between atoms: CB_705  and  CG_706
REMARK  211  A    between atoms: CG_706  and  CD_707
REMARK  212  A    between atoms: CD_707  and  NE_708
REMARK  213  A    between atoms: N_725  and  CA_726
REMARK  214  A    between atoms: CA_726  and  C_727
REMARK  215  A    between atoms: CA_726  and  CB_729
REMARK  216  A    between atoms: CB_729  and  CG_730
REMARK  217  A    between atoms: CZ_735  and  OH_736
REMARK  218  A    between atoms: N_746  and  CA_747
REMARK  219  A    between atoms: CA_747  and  C_748
REMARK  220  A    between atoms: CA_747  and  CB_750
REMARK  221  A    between atoms: CB_750  and  CG_751
REMARK                            x       y       z     vdW  Elec       q    Type
REMARK                         _______ _______ _______ _____ _____    ______ ____
ROOT
ATOM      1  C   LYS A 805       2.509  -0.616  -5.897  0.00  0.00    +0.000 C 
ATOM      2  O   LYS A 805       2.851  -0.110  -4.824  0.00  0.00    +0.000 OA
ATOM      3  N   TYR A 806       1.285  -0.502  -6.407  0.00  0.00    +0.000 N 
ATOM      4  H   TYR A 806       1.046  -1.036  -7.193  0.00  0.00    +0.000 HD
ENDROOT
BRANCH   1   5
ATOM      5  CA  LYS A 805       3.489  -1.445  -6.711  0.00  0.00    +0.000 C 
BRANCH   5   8
ATOM      6  C   GLY A 804       5.042   0.175  -7.639  0.00  0.00    +0.000 C 
ATOM      7  O   GLY A 804       4.213   0.565  -8.465  0.00  0.00    +0.000 OA
ATOM      8  N   LYS A 805       4.788  -0.791  -6.771  0.00  0.00    +0.000 N 
ATOM      9  H   LYS A 805       5.471  -1.040  -6.118  0.00  0.00    +0.000 HD
BRANCH   6  10
ATOM     10  CA  GLY A 804       6.423   0.792  -7.586  0.00  0.00    +0.000 C 
BRANCH  10  13
ATOM     11  C   CYS A 803       8.118  -0.907  -7.632  0.00  0.00    +0.000 C 
ATOM     12  O   CYS A 803       7.909  -1.101  -8.827  0.00  0.00    +0.000 OA
ATOM     13  N   GLY A 804       7.407  -0.052  -6.925  0.00  0.00    +0.000 N 
ATOM     14  H   GLY A 804       7.563   0.032  -5.962  0.00  0.00    +0.000 HD
BRANCH  11  15
ATOM     15  CA  CYS A 803       9.219  -1.681  -6.908  0.00  0.00    +0.000 C 
BRANCH  15  18
ATOM     16  C   TYR A 802      10.581   0.168  -6.053  0.00  0.00    +0.000 C 
ATOM     17  O   TYR A 802      10.806   0.590  -7.185  0.00  0.00    +0.000 OA
ATOM     18  N   CYS A 803       9.859  -0.927  -5.822  0.00  0.00    +0.000 N 
ATOM     19  H   CYS A 803       9.883  -1.322  -4.932  0.00  0.00    +0.000 HD
BRANCH  16  20
ATOM     20  CA  TYR A 802      11.147   0.891  -4.823  0.00  0.00    +0.000 C 
BRANCH  20  23
ATOM     21  C   GLU A 801      10.358   3.166  -4.578  0.00  0.00    +0.000 C 
ATOM     22  O   GLU A 801      11.416   3.623  -5.012  0.00  0.00    +0.000 OA
ATOM     23  N   TYR A 802      10.178   1.868  -4.373  0.00  0.00    +0.000 N 
ATOM     24  H   TYR A 802       9.352   1.566  -3.949  0.00  0.00    +0.000 HD
BRANCH  21  25
ATOM     25  CA  GLU A 801       9.180   4.096  -4.254  0.00  0.00    +0.000 C 
BRANCH  25  28
ATOM     26  C   CYS A 800       7.439   2.394  -3.961  0.00  0.00    +0.000 C 
ATOM     27  O   CYS A 800       7.583   1.961  -5.098  0.00  0.00    +0.000 OA
ATOM     28  N   GLU A 801       8.129   3.428  -3.481  0.00  0.00    +0.000 N 
ATOM     29  H   GLU A 801       7.899   3.792  -2.597  0.00  0.00    +0.000 HD
BRANCH  26  30
ATOM     30  CA  CYS A 800       6.426   1.756  -3.025  0.00  0.00    +0.000 C 
BRANCH  30  33
ATOM     31  C   LYS A 799       4.588   3.174  -3.807  0.00  0.00    +0.000 C 
ATOM     32  O   LYS A 799       5.188   4.242  -3.724  0.00  0.00    +0.000 OA
ATOM     33  N   CYS A 800       5.078   1.998  -3.471  0.00  0.00    +0.000 N 
ATOM     34  H   CYS A 800       4.478   1.223  -3.505  0.00  0.00    +0.000 HD
BRANCH  31  35
ATOM     35  CA  LYS A 799       3.148   3.089  -4.261  0.00  0.00    +0.000 C 
BRANCH  35  38
ATOM     36  C   LEU A 798       1.111   4.074  -3.630  0.00  0.00    +0.000 C 
ATOM     37  O   LEU A 798       0.632   2.939  -3.548  0.00  0.00    +0.000 OA
ATOM     38  N   LYS A 799       2.374   4.264  -3.945  0.00  0.00    +0.000 N 
ATOM     39  H   LYS A 799       2.770   5.163  -3.978  0.00  0.00    +0.000 HD
BRANCH  36  40
ATOM     40  CA  LEU A 798       0.210   5.253  -3.374  0.00  0.00    +0.000 C 
BRANCH  40  43
ATOM     41  C   LEU A 797      -2.228   5.151  -3.394  0.00  0.00    +0.000 C 
ATOM     42  O   LEU A 797      -2.405   6.310  -3.773  0.00  0.00    +0.000 OA
ATOM     43  N   LEU A 798      -1.070   4.647  -3.067  0.00  0.00    +0.000 N 
ATOM     44  H   LEU A 798      -1.066   3.793  -2.577  0.00  0.00    +0.000 HD
BRANCH  41  45
ATOM     45  CA  LEU A 797      -3.374   4.171  -3.237  0.00  0.00    +0.000 C 
BRANCH  45  48
ATOM     46  C   ASN A 796      -5.107   4.955  -1.753  0.00  0.00    +0.000 C 
ATOM     47  O   ASN A 796      -4.525   4.504  -0.764  0.00  0.00    +0.000 OA
ATOM     48  N   LEU A 797      -4.627   4.833  -2.978  0.00  0.00    +0.000 N 
ATOM     49  H   LEU A 797      -5.127   5.189  -3.735  0.00  0.00    +0.000 HD
BRANCH  46  50
ATOM     50  CA  ASN A 796      -6.458   5.650  -1.632  0.00  0.00    +0.000 C 
BRANCH  50  53
ATOM     51  C   ALA A 795      -7.848   4.497  -3.265  0.00  0.00    +0.000 C 
ATOM     52  O   ALA A 795      -7.199   4.911  -4.224  0.00  0.00    +0.000 OA
ATOM     53  N   ASN A 796      -7.551   4.764  -2.012  0.00  0.00    +0.000 N 
ATOM     54  H   ASN A 796      -8.093   4.349  -1.313  0.00  0.00    +0.000 HD
BRANCH  51  55
ATOM     55  CA  ALA A 795      -9.065   3.611  -3.443  0.00  0.00    +0.000 C 
ATOM     56  CB  ALA A 795     -10.279   4.259  -2.810  0.00  0.00    +0.000 C 
BRANCH  55  59
ATOM     57  C   LYS A 794      -8.072   1.389  -3.413  0.00  0.00    +0.000 C 
ATOM     58  O   LYS A 794      -7.592   1.515  -4.538  0.00  0.00    +0.000 OA
ATOM     59  N   ALA A 795      -8.851   2.300  -2.852  0.00  0.00    +0.000 N 
ATOM     60  H   ALA A 795      -9.308   2.079  -2.010  0.00  0.00    +0.000 HD
BRANCH  57  61
ATOM     61  CA  LYS A 794      -7.870   0.118  -2.600  0.00  0.00    +0.000 C 
BRANCH  61  64
ATOM     62  C   LYS A 793     -10.187  -0.595  -2.924  0.00  0.00    +0.000 C 
ATOM     63  O   LYS A 793     -10.081  -0.716  -4.150  0.00  0.00    +0.000 OA
ATOM     64  N   LYS A 794      -9.163  -0.338  -2.120  0.00  0.00    +0.000 N 
ATOM     65  H   LYS A 794      -9.292  -0.445  -1.153  0.00  0.00    +0.000 HD
BRANCH  62  66
ATOM     66  CA  LYS A 793     -11.535  -0.782  -2.224  0.00  0.00    +0.000 C 
BRANCH  66  69
ATOM     67  C   ASP A 792     -10.959  -0.346   0.149  0.00  0.00    +0.000 C 
ATOM     68  O   ASP A 792     -10.583   0.808  -0.074  0.00  0.00    +0.000 OA
ATOM     69  N   LYS A 793     -11.366  -1.191  -0.818  0.00  0.00    +0.000 N 
ATOM     70  H   LYS A 793     -11.556  -2.121  -0.574  0.00  0.00    +0.000 HD
BRANCH  67  71
ATOM     71  CA  ASP A 792     -10.923  -0.917   1.567  0.00  0.00    +0.000 C 
BRANCH  71  74
ATOM     72  C   LEU A 791      -9.195  -2.604   1.093  0.00  0.00    +0.000 C 
ATOM     73  O   LEU A 791      -8.458  -1.825   0.485  0.00  0.00    +0.000 OA
ATOM     74  N   ASP A 792     -10.386  -2.277   1.583  0.00  0.00    +0.000 N 
ATOM     75  H   ASP A 792     -10.929  -2.988   1.983  0.00  0.00    +0.000 HD
BRANCH  72  76
ATOM     76  CA  LEU A 791      -8.796  -4.056   1.316  0.00  0.00    +0.000 C 
BRANCH  76  79
ATOM     77  C   GLU A 790     -10.332  -5.058   2.885  0.00  0.00    +0.000 C 
ATOM     78  O   GLU A 790      -9.722  -4.594   3.842  0.00  0.00    +0.000 OA
ATOM     79  N   LEU A 791      -9.966  -4.850   1.631  0.00  0.00    +0.000 N 
ATOM     80  H   LEU A 791     -10.499  -5.232   0.905  0.00  0.00    +0.000 HD
BRANCH  77  81
ATOM     81  CA  GLU A 790     -11.576  -5.903   3.085  0.00  0.00    +0.000 C 
BRANCH  81  84
ATOM     82  C   ALA A 789     -13.080  -4.426   1.861  0.00  0.00    +0.000 C 
ATOM     83  O   ALA A 789     -12.771  -3.444   2.537  0.00  0.00    +0.000 OA
ATOM     84  N   GLU A 790     -12.564  -5.635   2.049  0.00  0.00    +0.000 N 
ATOM     85  H   GLU A 790     -12.866  -6.372   1.482  0.00  0.00    +0.000 HD
BRANCH  82  86
ATOM     86  CA  ALA A 789     -14.072  -4.303   0.714  0.00  0.00    +0.000 C 
ATOM     87  CB  ALA A 789     -15.481  -4.624   1.188  0.00  0.00    +0.000 C 
BRANCH  86  90
ATOM     88  C   SER A 788     -12.535  -5.066  -1.024  0.00  0.00    +0.000 C 
ATOM     89  O   SER A 788     -11.688  -4.223  -0.725  0.00  0.00    +0.000 OA
ATOM     90  N   ALA A 789     -13.701  -5.181  -0.391  0.00  0.00    +0.000 N 
ATOM     91  H   ALA A 789     -14.333  -5.879  -0.678  0.00  0.00    +0.000 HD
BRANCH  88  92
ATOM     92  CA  SER A 788     -12.301  -6.035  -2.182  0.00  0.00    +0.000 C 
BRANCH  92  95
ATOM     93  C   PRO A 787     -14.502  -6.705  -2.960  0.00  0.00    +0.000 C 
ATOM     94  O   PRO A 787     -14.620  -7.571  -2.095  0.00  0.00    +0.000 OA
ATOM     95  N   SER A 788     -13.412  -5.965  -3.107  0.00  0.00    +0.000 N 
ATOM     96  H   SER A 788     -13.353  -5.360  -3.874  0.00  0.00    +0.000 HD
BRANCH  93 100
ATOM     97  C   SER A 786     -16.229  -4.137  -3.148  0.00  0.00    +0.000 C 
ATOM     98  O   SER A 786     -16.783  -4.572  -2.141  0.00  0.00    +0.000 OA
ATOM     99  N   PRO A 787     -15.746  -4.945  -4.104  0.00  0.00    +0.000 N 
ATOM    100  CA  PRO A 787     -15.629  -6.390  -3.932  0.00  0.00    +0.000 C 
ATOM    101  CB  PRO A 787     -15.288  -6.911  -5.336  0.00  0.00    +0.000 C 
ATOM    102  CG  PRO A 787     -15.490  -5.754  -6.259  0.00  0.00    +0.000 C 
ATOM    103  CD  PRO A 787     -15.300  -4.518  -5.433  0.00  0.00    +0.000 C 
BRANCH  97 104
ATOM    104  CA  SER A 786     -16.047  -2.640  -3.358  0.00  0.00    +0.000 C 
BRANCH 104 107
ATOM    105  C   ASP A 785     -17.649  -1.207  -4.448  0.00  0.00    +0.000 C 
ATOM    106  O   ASP A 785     -16.991  -1.205  -5.490  0.00  0.00    +0.000 OA
ATOM    107  N   SER A 786     -17.312  -1.936  -3.401  0.00  0.00    +0.000 N 
ATOM    108  H   SER A 786     -17.937  -2.015  -2.645  0.00  0.00    +0.000 HD
BRANCH 105 109
ATOM    109  CA  ASP A 785     -18.909  -0.362  -4.299  0.00  0.00    +0.000 C 
BRANCH 109 112
ATOM    110  C   VAL A 784     -19.450  -0.268  -1.924  0.00  0.00    +0.000 C 
ATOM    111  O   VAL A 784     -19.964  -1.386  -1.947  0.00  0.00    +0.000 OA
ATOM    112  N   ASP A 785     -18.919   0.302  -2.996  0.00  0.00    +0.000 N 
ATOM    113  H   ASP A 785     -18.522   1.197  -2.913  0.00  0.00    +0.000 HD
BRANCH 110 114
ATOM    114  CA  VAL A 784     -19.363   0.522  -0.622  0.00  0.00    +0.000 C 
BRANCH 114 117
ATOM    115  C   GLY A 783     -17.401  -0.364   0.511  0.00  0.00    +0.000 C 
ATOM    116  O   GLY A 783     -17.996  -1.398   0.816  0.00  0.00    +0.000 OA
ATOM    117  N   VAL A 784     -17.975   0.619  -0.176  0.00  0.00    +0.000 N 
ATOM    118  H   VAL A 784     -17.456   1.424  -0.387  0.00  0.00    +0.000 HD
BRANCH 115 119
ATOM    119  CA  GLY A 783     -15.952  -0.160   0.913  0.00  0.00    +0.000 C 
BRANCH 119 122
ATOM    120  C   ARG A   3     -15.637   1.742   2.365  0.00  0.00    +0.000 C 
ATOM    121  O   ARG A   3     -15.950   1.091   3.365  0.00  0.00    +0.000 OA
ATOM    122  N   GLY A 783     -15.629   1.233   1.142  0.00  0.00    +0.000 N 
ATOM    123  H   GLY A 783     -15.392   1.813   0.379  0.00  0.00    +0.000 HD
BRANCH 120 124
ATOM    124  CA  ARG A   3     -15.267   3.216   2.478  0.00  0.00    +0.000 C 
BRANCH 124 127
ATOM    125  C   THR A   2     -16.975   4.826   1.866  0.00  0.00    +0.000 C 
ATOM    126  O   THR A   2     -16.477   4.998   0.755  0.00  0.00    +0.000 OA
ATOM    127  N   ARG A   3     -16.451   4.008   2.767  0.00  0.00    +0.000 N 
ATOM    128  H   ARG A   3     -16.873   3.929   3.645  0.00  0.00    +0.000 HD
BRANCH 125 129
ATOM    129  CA  THR A   2     -18.249   5.559   2.277  0.00  0.00    +0.000 C 
BRANCH 129 132
ATOM    130  C   GLY A   1     -18.811   5.110   4.597  0.00  0.00    +0.000 C 
ATOM    131  O   GLY A   1     -19.314   4.021   4.317  0.00  0.00    +0.000 OA
ATOM    132  N   THR A   2     -18.251   5.898   3.693  0.00  0.00    +0.000 N 
ATOM    133  H   THR A   2     -17.834   6.740   3.980  0.00  0.00    +0.000 HD
BRANCH 130 134
ATOM    134  CA  GLY A   1     -18.802   5.604   6.028  0.00  0.00    +0.000 C 
BRANCH 134 135
ATOM    135  N   GLY A   1     -19.456   4.646   6.949  0.00  0.00    +0.000 N 
ATOM    136  H   GLY A   1     -19.511   5.052   7.909  0.00  0.00    +0.000 HD
ATOM    137  H2  GLY A   1     -18.909   3.760   6.991  0.00  0.00    +0.000 HD
ATOM    138  H3  GLY A   1     -20.417   4.429   6.618  0.00  0.00    +0.000 HD
ENDBRANCH 134 135
ENDBRANCH 130 134
ENDBRANCH 129 132
BRANCH 129 139
ATOM    139  CB  THR A   2     -18.418   6.824   1.417  0.00  0.00    +0.000 C 
ATOM    140  CG2 THR A   2     -19.876   7.257   1.379  0.00  0.00    +0.000 C 
BRANCH 139 141
ATOM    141  OG1 THR A   2     -17.608   7.886   1.948  0.00  0.00    +0.000 OA
ATOM    142  HG1 THR A   2     -18.088   8.724   1.873  0.00  0.00    +0.000 HD
ENDBRANCH 139 141
ENDBRANCH 129 139
ENDBRANCH 125 129
ENDBRANCH 124 127
BRANCH 124 143
ATOM    143  CB  ARG A   3     -14.211   3.422   3.564  0.00  0.00    +0.000 C 
BRANCH 143 144
ATOM    144  CG  ARG A   3     -13.689   4.849   3.643  0.00  0.00    +0.000 C 
BRANCH 144 145
ATOM    145  CD  ARG A   3     -12.676   5.013   4.762  0.00  0.00    +0.000 C 
BRANCH 145 146
ATOM    146  NE  ARG A   3     -11.509   4.150   4.587  0.00  0.00    +0.000 N 
ATOM    147  CZ  ARG A   3     -10.498   4.083   5.451  0.00  0.00    +0.000 C 
ATOM    148  NH1 ARG A   3     -10.491   4.843   6.537  0.00  0.00    +0.000 N 
ATOM    149  NH2 ARG A   3      -9.489   3.258   5.216  0.00  0.00    +0.000 N 
ATOM    150  HE  ARG A   3     -11.479   3.576   3.778  0.00  0.00    +0.000 HD
ATOM    151 HH11 ARG A   3     -11.249   5.476   6.718  0.00  0.00    +0.000 HD
ATOM    152 HH12 ARG A   3      -9.728   4.787   7.190  0.00  0.00    +0.000 HD
ATOM    153 HH21 ARG A   3      -9.494   2.687   4.382  0.00  0.00    +0.000 HD
ATOM    154 HH22 ARG A   3      -8.725   3.192   5.864  0.00  0.00    +0.000 HD
ENDBRANCH 145 146
ENDBRANCH 144 145
ENDBRANCH 143 144
ENDBRANCH 124 143
ENDBRANCH 120 124
ENDBRANCH 119 122
ENDBRANCH 115 119
ENDBRANCH 114 117
BRANCH 114 155
ATOM    155  CB  VAL A 784     -20.007   1.915  -0.819  0.00  0.00    +0.000 C 
ATOM    156  CG1 VAL A 784     -21.464   1.786  -1.251  0.00  0.00    +0.000 C 
ATOM    157  CG2 VAL A 784     -19.901   2.739   0.455  0.00  0.00    +0.000 C 
ENDBRANCH 114 155
ENDBRANCH 110 114
ENDBRANCH 109 112
BRANCH 109 158
ATOM    158  CB  ASP A 785     -18.998   0.671  -5.435  0.00  0.00    +0.000 C 
BRANCH 158 159
ATOM    159  CG  ASP A 785     -17.834   1.653  -5.450  0.00  0.00    +0.000 C 
ATOM    160  OD1 ASP A 785     -17.908   2.684  -4.748  0.00  0.00    +0.000 OA
ATOM    161  OD2 ASP A 785     -16.845   1.413  -6.172  0.00  0.00    +0.000 OA
ENDBRANCH 158 159
ENDBRANCH 109 158
ENDBRANCH 105 109
ENDBRANCH 104 107
BRANCH 104 162
ATOM    162  CB  SER A 786     -15.207  -2.066  -2.225  0.00  0.00    +0.000 C 
BRANCH 162 163
ATOM    163  OG  SER A 786     -15.248  -0.652  -2.244  0.00  0.00    +0.000 OA
ATOM    164  HG  SER A 786     -15.990  -0.364  -2.786  0.00  0.00    +0.000 HD
ENDBRANCH 162 163
ENDBRANCH 104 162
ENDBRANCH  97 104
ENDBRANCH  93 100
ENDBRANCH  92  95
BRANCH  92 165
ATOM    165  CB  SER A 788     -10.995  -5.688  -2.905  0.00  0.00    +0.000 C 
BRANCH 165 166
ATOM    166  OG  SER A 788     -10.830  -6.483  -4.066  0.00  0.00    +0.000 OA
ATOM    167  HG  SER A 788     -10.548  -7.375  -3.801  0.00  0.00    +0.000 HD
ENDBRANCH 165 166
ENDBRANCH  92 165
ENDBRANCH  88  92
ENDBRANCH  86  90
ENDBRANCH  82  86
ENDBRANCH  81  84
BRANCH  81 168
ATOM    168  CB  GLU A 790     -11.185  -7.372   3.078  0.00  0.00    +0.000 C 
BRANCH 168 169
ATOM    169  CG  GLU A 790     -12.325  -8.307   3.432  0.00  0.00    +0.000 C 
BRANCH 169 170
ATOM    170  CD  GLU A 790     -11.885  -9.750   3.480  0.00  0.00    +0.000 C 
ATOM    171  OE1 GLU A 790     -11.422 -10.193   4.548  0.00  0.00    +0.000 OA
ATOM    172  OE2 GLU A 790     -11.983 -10.443   2.446  0.00  0.00    +0.000 OA
ENDBRANCH 169 170
ENDBRANCH 168 169
ENDBRANCH  81 168
ENDBRANCH  77  81
ENDBRANCH  76  79
BRANCH  76 173
ATOM    173  CB  LEU A 791      -8.079  -4.620   0.089  0.00  0.00    +0.000 C 
BRANCH 173 174
ATOM    174  CG  LEU A 791      -7.545  -6.048   0.252  0.00  0.00    +0.000 C 
ATOM    175  CD1 LEU A 791      -6.853  -6.508  -1.020  0.00  0.00    +0.000 C 
ATOM    176  CD2 LEU A 791      -6.595  -6.131   1.440  0.00  0.00    +0.000 C 
ENDBRANCH 173 174
ENDBRANCH  76 173
ENDBRANCH  72  76
ENDBRANCH  71  74
BRANCH  71 177
ATOM    177  CB  ASP A 792     -10.098  -0.017   2.495  0.00  0.00    +0.000 C 
BRANCH 177 178
ATOM    178  CG  ASP A 792     -10.849   1.228   2.923  0.00  0.00    +0.000 C 
ATOM    179  OD1 ASP A 792     -11.968   1.093   3.460  0.00  0.00    +0.000 OA
ATOM    180  OD2 ASP A 792     -10.315   2.342   2.751  0.00  0.00    +0.000 OA
ENDBRANCH 177 178
ENDBRANCH  71 177
ENDBRANCH  67  71
ENDBRANCH  66  69
BRANCH  66 181
ATOM    181  CB  LYS A 793     -12.352   0.518  -2.301  0.00  0.00    +0.000 C 
BRANCH 181 182
ATOM    182  CG  LYS A 793     -12.455   1.129  -3.692  0.00  0.00    +0.000 C 
BRANCH 182 183
ATOM    183  CD  LYS A 793     -13.393   0.353  -4.602  0.00  0.00    +0.000 C 
BRANCH 183 184
ATOM    184  CE  LYS A 793     -13.460   0.988  -5.984  0.00  0.00    +0.000 C 
BRANCH 184 185
ATOM    185  NZ  LYS A 793     -14.496   0.364  -6.845  0.00  0.00    +0.000 N 
ATOM    186  HZ1 LYS A 793     -14.363  -0.671  -6.885  0.00  0.00    +0.000 HD
ATOM    187  HZ2 LYS A 793     -14.430   0.747  -7.813  0.00  0.00    +0.000 HD
ATOM    188  HZ3 LYS A 793     -15.451   0.569  -6.470  0.00  0.00    +0.000 HD
ENDBRANCH 184 185
ENDBRANCH 183 184
ENDBRANCH 182 183
ENDBRANCH 181 182
ENDBRANCH  66 181
ENDBRANCH  62  66
ENDBRANCH  61  64
BRANCH  61 189
ATOM    189  CB  LYS A 794      -7.132  -0.942  -3.429  0.00  0.00    +0.000 C 
BRANCH 189 190
ATOM    190  CG  LYS A 794      -6.992  -2.290  -2.735  0.00  0.00    +0.000 C 
BRANCH 190 191
ATOM    191  CD  LYS A 794      -7.904  -3.341  -3.351  0.00  0.00    +0.000 C 
BRANCH 191 192
ATOM    192  CE  LYS A 794      -7.522  -3.642  -4.793  0.00  0.00    +0.000 C 
BRANCH 192 193
ATOM    193  NZ  LYS A 794      -6.168  -4.252  -4.899  0.00  0.00    +0.000 N 
ATOM    194  HZ1 LYS A 794      -5.460  -3.661  -4.409  0.00  0.00    +0.000 HD
ATOM    195  HZ2 LYS A 794      -5.890  -4.333  -5.901  0.00  0.00    +0.000 HD
ATOM    196  HZ3 LYS A 794      -6.165  -5.205  -4.472  0.00  0.00    +0.000 HD
ENDBRANCH 192 193
ENDBRANCH 191 192
ENDBRANCH 190 191
ENDBRANCH 189 190
ENDBRANCH  61 189
ENDBRANCH  57  61
ENDBRANCH  55  59
ENDBRANCH  51  55
ENDBRANCH  50  53
BRANCH  50 197
ATOM    197  CB  ASN A 796      -6.677   6.182  -0.204  0.00  0.00    +0.000 C 
BRANCH 197 198
ATOM    198  CG  ASN A 796      -7.202   5.140   0.784  0.00  0.00    +0.000 C 
ATOM    199  OD1 ASN A 796      -7.994   5.461   1.664  0.00  0.00    +0.000 OA
ATOM    200  ND2 ASN A 796      -6.752   3.898   0.668  0.00  0.00    +0.000 N 
ATOM    201 HD21 ASN A 796      -6.104   3.706  -0.041  0.00  0.00    +0.000 HD
ATOM    202 HD22 ASN A 796      -7.088   3.225   1.299  0.00  0.00    +0.000 HD
ENDBRANCH 197 198
ENDBRANCH  50 197
ENDBRANCH  46  50
ENDBRANCH  45  48
BRANCH  45 203
ATOM    203  CB  LEU A 797      -3.472   3.311  -4.494  0.00  0.00    +0.000 C 
BRANCH 203 204
ATOM    204  CG  LEU A 797      -4.651   2.345  -4.528  0.00  0.00    +0.000 C 
ATOM    205  CD1 LEU A 797      -4.482   1.332  -5.648  0.00  0.00    +0.000 C 
ATOM    206  CD2 LEU A 797      -4.823   1.647  -3.190  0.00  0.00    +0.000 C 
ENDBRANCH 203 204
ENDBRANCH  45 203
ENDBRANCH  41  45
ENDBRANCH  40  43
BRANCH  40 207
ATOM    207  CB  LEU A 798       0.713   6.117  -2.217  0.00  0.00    +0.000 C 
BRANCH 207 208
ATOM    208  CG  LEU A 798       1.365   5.354  -1.074  0.00  0.00    +0.000 C 
ATOM    209  CD1 LEU A 798       2.869   5.518  -1.143  0.00  0.00    +0.000 C 
ATOM    210  CD2 LEU A 798       0.832   5.833   0.256  0.00  0.00    +0.000 C 
ENDBRANCH 207 208
ENDBRANCH  40 207
ENDBRANCH  36  40
ENDBRANCH  35  38
BRANCH  35 211
ATOM    211  CB  LYS A 799       3.052   2.777  -5.755  0.00  0.00    +0.000 C 
BRANCH 211 212
ATOM    212  CG  LYS A 799       3.984   3.598  -6.649  0.00  0.00    +0.000 C 
BRANCH 212 213
ATOM    213  CD  LYS A 799       3.662   5.085  -6.615  0.00  0.00    +0.000 C 
BRANCH 213 214
ATOM    214  CE  LYS A 799       4.562   5.883  -7.553  0.00  0.00    +0.000 C 
BRANCH 214 215
ATOM    215  NZ  LYS A 799       6.004   5.767  -7.194  0.00  0.00    +0.000 N 
ATOM    216  HZ1 LYS A 799       6.325   4.782  -7.291  0.00  0.00    +0.000 HD
ATOM    217  HZ2 LYS A 799       6.160   6.074  -6.205  0.00  0.00    +0.000 HD
ATOM    218  HZ3 LYS A 799       6.580   6.368  -7.820  0.00  0.00    +0.000 HD
ENDBRANCH 214 215
ENDBRANCH 213 214
ENDBRANCH 212 213
ENDBRANCH 211 212
ENDBRANCH  35 211
ENDBRANCH  31  35
ENDBRANCH  30  33
BRANCH  30 219
ATOM    219  CB  CYS A 800       6.560   0.237  -3.017  0.00  0.00    +0.000 C 
BRANCH 219 220
ATOM    220  SG  CYS A 800       8.124  -0.468  -2.492  0.00  0.00    +0.000 S 
ATOM    221  HG  CYS A 800       8.329  -1.617  -2.655  0.00  0.00    +0.000 HD
ENDBRANCH 219 220
ENDBRANCH  30 219
ENDBRANCH  26  30
ENDBRANCH  25  28
BRANCH  25 222
ATOM    222  CB  GLU A 801       9.679   5.332  -3.504  0.00  0.00    +0.000 C 
BRANCH 222 223
ATOM    223  CG  GLU A 801       8.613   6.398  -3.298  0.00  0.00    +0.000 C 
BRANCH 223 224
ATOM    224  CD  GLU A 801       8.084   6.959  -4.604  0.00  0.00    +0.000 C 
ATOM    225  OE1 GLU A 801       8.853   7.636  -5.322  0.00  0.00    +0.000 OA
ATOM    226  OE2 GLU A 801       6.900   6.724  -4.925  0.00  0.00    +0.000 OA
ENDBRANCH 223 224
ENDBRANCH 222 223
ENDBRANCH  25 222
ENDBRANCH  21  25
ENDBRANCH  20  23
BRANCH  20 227
ATOM    227  CB  TYR A 802      11.513  -0.106  -3.701  0.00  0.00    +0.000 C 
BRANCH 227 228
ATOM    228  CG  TYR A 802      12.756  -0.916  -3.990  0.00  0.00    +0.000 A 
ATOM    229  CD1 TYR A 802      14.015  -0.425  -3.657  0.00  0.00    +0.000 A 
ATOM    230  CD2 TYR A 802      12.678  -2.166  -4.590  0.00  0.00    +0.000 A 
ATOM    231  CE1 TYR A 802      15.158  -1.155  -3.918  0.00  0.00    +0.000 A 
ATOM    232  CE2 TYR A 802      13.818  -2.903  -4.854  0.00  0.00    +0.000 A 
ATOM    233  CZ  TYR A 802      15.056  -2.393  -4.515  0.00  0.00    +0.000 A 
BRANCH 233 234
ATOM    234  OH  TYR A 802      16.192  -3.121  -4.773  0.00  0.00    +0.000 OA
ATOM    235  HH  TYR A 802      16.166  -3.449  -5.678  0.00  0.00    +0.000 HD
ENDBRANCH 233 234
ENDBRANCH 227 228
ENDBRANCH  20 227
ENDBRANCH  16  20
ENDBRANCH  15  18
BRANCH  15 236
ATOM    236  CB  CYS A 803       8.681  -3.003  -6.366  0.00  0.00    +0.000 C 
BRANCH 236 237
ATOM    237  SG  CYS A 803       7.813  -2.847  -4.780  0.00  0.00    +0.000 S 
ATOM    238  HG  CYS A 803       7.432  -3.850  -4.284  0.00  0.00    +0.000 HD
ENDBRANCH 236 237
ENDBRANCH  15 236
ENDBRANCH  11  15
ENDBRANCH  10  13
ENDBRANCH   6  10
ENDBRANCH   5   8
BRANCH   5 239
ATOM    239  CB  LYS A 805       3.614  -2.850  -6.119  0.00  0.00    +0.000 C 
BRANCH 239 240
ATOM    240  CG  LYS A 805       4.350  -3.820  -7.025  0.00  0.00    +0.000 C 
BRANCH 240 241
ATOM    241  CD  LYS A 805       4.312  -5.230  -6.468  0.00  0.00    +0.000 C 
BRANCH 241 242
ATOM    242  CE  LYS A 805       4.867  -6.237  -7.464  0.00  0.00    +0.000 C 
BRANCH 242 243
ATOM    243  NZ  LYS A 805       4.104  -6.237  -8.742  0.00  0.00    +0.000 N 
ATOM    244  HZ1 LYS A 805       3.083  -6.336  -8.553  0.00  0.00    +0.000 HD
ATOM    245  HZ2 LYS A 805       4.409  -7.032  -9.344  0.00  0.00    +0.000 HD
ATOM    246  HZ3 LYS A 805       4.263  -5.345  -9.260  0.00  0.00    +0.000 HD
ENDBRANCH 242 243
ENDBRANCH 241 242
ENDBRANCH 240 241
ENDBRANCH 239 240
ENDBRANCH   5 239
ENDBRANCH   1   5
BRANCH   3 247
ATOM    247  CA  TYR A 806       0.251   0.312  -5.777  0.00  0.00    +0.000 C 
BRANCH 247 248
ATOM    248  C   TYR A 806      -0.506  -0.516  -4.760  0.00  0.00    +0.000 C 
ATOM    249  O   TYR A 806      -0.831  -1.679  -5.003  0.00  0.00    +0.000 OA
ATOM    250  N   ALA A 807      -0.785   0.096  -3.630  0.00  0.00    +0.000 N 
ATOM    251  H   ALA A 807      -0.519   1.042  -3.526  0.00  0.00    +0.000 HD
BRANCH 250 252
ATOM    252  CA  ALA A 807      -1.428  -0.589  -2.529  0.00  0.00    +0.000 C 
ATOM    253  CB  ALA A 807      -0.391  -1.385  -1.743  0.00  0.00    +0.000 C 
BRANCH 252 254
ATOM    254  C   ALA A 807      -2.114   0.421  -1.639  0.00  0.00    +0.000 C 
ATOM    255  O   ALA A 807      -1.812   1.616  -1.712  0.00  0.00    +0.000 OA
ATOM    256  N   PRO A 808      -3.073  -0.017  -0.813  0.00  0.00    +0.000 N 
ATOM    257  CA  PRO A 808      -3.725   0.875   0.128  0.00  0.00    +0.000 C 
ATOM    258  CB  PRO A 808      -4.789   0.007   0.810  0.00  0.00    +0.000 C 
ATOM    259  CG  PRO A 808      -4.924  -1.204  -0.052  0.00  0.00    +0.000 C 
ATOM    260  CD  PRO A 808      -3.596  -1.388  -0.730  0.00  0.00    +0.000 C 
BRANCH 257 261
ATOM    261  C   PRO A 808      -2.713   1.400   1.128  0.00  0.00    +0.000 C 
ATOM    262  O   PRO A 808      -1.975   0.626   1.735  0.00  0.00    +0.000 OA
ATOM    263  N   ALA A 809      -2.659   2.726   1.228  0.00  0.00    +0.000 N 
ATOM    264  H   ALA A 809      -3.258   3.249   0.650  0.00  0.00    +0.000 HD
BRANCH 263 265
ATOM    265  CA  ALA A 809      -1.703   3.447   2.092  0.00  0.00    +0.000 C 
ATOM    266  CB  ALA A 809      -2.127   4.902   2.235  0.00  0.00    +0.000 C 
BRANCH 265 267
ATOM    267  C   ALA A 809      -1.524   2.809   3.473  0.00  0.00    +0.000 C 
ATOM    268  O   ALA A 809      -0.471   2.941   4.093  0.00  0.00    +0.000 OA
ATOM    269  N   GLU A 810      -2.545   2.114   3.934  0.00  0.00    +0.000 N 
ATOM    270  H   GLU A 810      -3.342   2.031   3.373  0.00  0.00    +0.000 HD
BRANCH 269 271
ATOM    271  CA  GLU A 810      -2.517   1.423   5.216  0.00  0.00    +0.000 C 
BRANCH 271 272
ATOM    272  C   GLU A 810      -1.426   0.345   5.270  0.00  0.00    +0.000 C 
ATOM    273  O   GLU A 810      -0.922   0.015   6.344  0.00  0.00    +0.000 OA
ATOM    274  N   GLN A 811      -1.057  -0.190   4.113  0.00  0.00    +0.000 N 
ATOM    275  H   GLN A 811      -1.424   0.169   3.279  0.00  0.00    +0.000 HD
BRANCH 274 276
ATOM    276  CA  GLN A 811      -0.075  -1.258   4.034  0.00  0.00    +0.000 C 
BRANCH 276 277
ATOM    277  C   GLN A 811       1.331  -0.663   3.958  0.00  0.00    +0.000 C 
ATOM    278  O   GLN A 811       2.335  -1.374   3.975  0.00  0.00    +0.000 OA
ATOM    279  N   PHE A 812       1.395   0.661   3.934  0.00  0.00    +0.000 N 
ATOM    280  H   PHE A 812       0.593   1.178   4.167  0.00  0.00    +0.000 HD
BRANCH 279 281
ATOM    281  CA  PHE A 812       2.665   1.347   3.793  0.00  0.00    +0.000 C 
BRANCH 281 282
ATOM    282  C   PHE A 812       3.225   1.641   5.170  0.00  0.00    +0.000 C 
ATOM    283  O   PHE A 812       3.429   2.791   5.563  0.00  0.00    +0.000 OA
ATOM    284  N   ARG A 813       3.491   0.551   5.877  0.00  0.00    +0.000 N 
ATOM    285  H   ARG A 813       3.303  -0.320   5.463  0.00  0.00    +0.000 HD
BRANCH 284 286
ATOM    286  CA  ARG A 813       3.998   0.586   7.240  0.00  0.00    +0.000 C 
BRANCH 286 287
ATOM    287  C   ARG A 813       5.451   1.043   7.261  0.00  0.00    +0.000 C 
ATOM    288  O   ARG A 813       6.033   1.259   8.325  0.00  0.00    +0.000 OA
ATOM    289  N   GLY A 814       6.018   1.216   6.075  0.00  0.00    +0.000 N 
ATOM    290  H   GLY A 814       5.518   0.963   5.272  0.00  0.00    +0.000 HD
BRANCH 289 291
ATOM    291  CA  GLY A 814       7.347   1.782   5.958  0.00  0.00    +0.000 C 
BRANCH 291 292
ATOM    292  C   GLY A 814       7.302   3.299   6.017  0.00  0.00    +0.000 C 
ATOM    293  O   GLY A 814       8.081   3.982   5.348  0.00  0.00    +0.000 OA
ATOM    294  N   SER A 815       6.356   3.810   6.810  0.00  0.00    +0.000 N 
ATOM    295  H   SER A 815       5.780   3.193   7.304  0.00  0.00    +0.000 HD
BRANCH 294 296
ATOM    296  CA  SER A 815       6.147   5.242   6.986  0.00  0.00    +0.000 C 
BRANCH 296 297
ATOM    297  C   SER A 815       5.895   5.927   5.646  0.00  0.00    +0.000 C 
ATOM    298  O   SER A 815       6.491   6.959   5.336  0.00  0.00    +0.000 OA
ATOM    299  N   LYS A 816       5.003   5.314   4.859  0.00  0.00    +0.000 N 
ATOM    300  H   LYS A 816       4.706   4.410   5.103  0.00  0.00    +0.000 HD
BRANCH 299 301
ATOM    301  CA  LYS A 816       4.489   5.905   3.623  0.00  0.00    +0.000 C 
BRANCH 301 302
ATOM    302  C   LYS A 816       5.625   6.286   2.676  0.00  0.00    +0.000 C 
ATOM    303  O   LYS A 816       5.766   7.442   2.272  0.00  0.00    +0.000 OA
ATOM    304  N   ARG A 817       6.419   5.294   2.323  0.00  0.00    +0.000 N 
ATOM    305  H   ARG A 817       6.250   4.399   2.677  0.00  0.00    +0.000 HD
BRANCH 304 306
ATOM    306  CA  ARG A 817       7.535   5.455   1.402  0.00  0.00    +0.000 C 
BRANCH 306 307
ATOM    307  C   ARG A 817       7.638   4.193   0.572  0.00  0.00    +0.000 C 
ATOM    308  O   ARG A 817       7.838   4.225  -0.641  0.00  0.00    +0.000 OA
ATOM    309  N   PHE A 818       7.483   3.075   1.261  0.00  0.00    +0.000 N 
ATOM    310  H   PHE A 818       7.319   3.126   2.224  0.00  0.00    +0.000 HD
BRANCH 309 311
ATOM    311  CA  PHE A 818       7.547   1.771   0.659  0.00  0.00    +0.000 C 
BRANCH 311 312
ATOM    312  C   PHE A 818       6.413   0.931   1.206  0.00  0.00    +0.000 C 
ATOM    313  O   PHE A 818       5.811   1.286   2.225  0.00  0.00    +0.000 OA
ATOM    314  N   CYS A 819       6.107  -0.151   0.525  0.00  0.00    +0.000 N 
ATOM    315  H   CYS A 819       6.594  -0.354  -0.293  0.00  0.00    +0.000 HD
BRANCH 314 316
ATOM    316  CA  CYS A 819       5.192  -1.146   1.036  0.00  0.00    +0.000 C 
BRANCH 316 317
ATOM    317  C   CYS A 819       5.850  -1.858   2.234  0.00  0.00    +0.000 C 
ATOM    318  O   CYS A 819       6.737  -1.289   2.864  0.00  0.00    +0.000 OA
ATOM    319  N   SER A 820       5.408  -3.063   2.562  0.00  0.00    +0.000 N 
ATOM    320  H   SER A 820       4.983  -3.607   1.877  0.00  0.00    +0.000 HD
BRANCH 319 321
ATOM    321  CA  SER A 820       5.640  -3.656   3.877  0.00  0.00    +0.000 C 
BRANCH 321 322
ATOM    322  C   SER A 820       7.126  -4.001   4.153  0.00  0.00    +0.000 C 
ATOM    323  O   SER A 820       8.013  -3.182   3.922  0.00  0.00    +0.000 OA
ATOM    324  N   MET A 821       7.416  -5.210   4.619  0.00  0.00    +0.000 N 
ATOM    325  H   MET A 821       6.779  -5.946   4.490  0.00  0.00    +0.000 HD
BRANCH 324 326
ATOM    326  CA  MET A 821       8.700  -5.467   5.279  0.00  0.00    +0.000 C 
BRANCH 326 327
ATOM    327  C   MET A 821       9.830  -5.633   4.284  0.00  0.00    +0.000 C 
ATOM    328  O   MET A 821      10.802  -4.884   4.334  0.00  0.00    +0.000 OA
ATOM    329  N   THR A 822       9.685  -6.590   3.379  0.00  0.00    +0.000 N 
ATOM    330  H   THR A 822       8.882  -7.158   3.418  0.00  0.00    +0.000 HD
BRANCH 329 331
ATOM    331  CA  THR A 822      10.691  -6.870   2.358  0.00  0.00    +0.000 C 
BRANCH 331 332
ATOM    332  C   THR A 822      11.227  -5.589   1.713  0.00  0.00    +0.000 C 
ATOM    333  O   THR A 822      12.437  -5.369   1.645  0.00  0.00    +0.000 OA
ATOM    334  N   CYS A 823      10.321  -4.754   1.248  0.00  0.00    +0.000 N 
ATOM    335  H   CYS A 823       9.375  -4.954   1.399  0.00  0.00    +0.000 HD
BRANCH 334 336
ATOM    336  CA  CYS A 823      10.681  -3.543   0.533  0.00  0.00    +0.000 C 
BRANCH 336 337
ATOM    337  C   CYS A 823      11.257  -2.445   1.430  0.00  0.00    +0.000 C 
ATOM    338  O   CYS A 823      12.349  -1.940   1.158  0.00  0.00    +0.000 OA
ATOM    339  N   ALA A 824      10.536  -2.067   2.490  0.00  0.00    +0.000 N 
ATOM    340  H   ALA A 824       9.706  -2.540   2.717  0.00  0.00    +0.000 HD
BRANCH 339 341
ATOM    341  CA  ALA A 824      10.988  -0.992   3.367  0.00  0.00    +0.000 C 
ATOM    342  CB  ALA A 824       9.970  -0.736   4.464  0.00  0.00    +0.000 C 
BRANCH 341 343
ATOM    343  C   ALA A 824      12.350  -1.305   3.974  0.00  0.00    +0.000 C 
ATOM    344  O   ALA A 824      13.239  -0.452   3.996  0.00  0.00    +0.000 OA
ATOM    345  N   LYS A 825      12.524  -2.534   4.455  0.00  0.00    +0.000 N 
ATOM    346  H   LYS A 825      11.776  -3.182   4.422  0.00  0.00    +0.000 HD
BRANCH 345 347
ATOM    347  CA  LYS A 825      13.790  -2.933   5.055  0.00  0.00    +0.000 C 
BRANCH 347 348
ATOM    348  C   LYS A 825      14.909  -2.953   4.017  0.00  0.00    +0.000 C 
ATOM    349  O   LYS A 825      16.071  -2.766   4.359  0.00  0.00    +0.000 OA
ATOM    350  N   ARG A 826      14.560  -3.186   2.748  0.00  0.00    +0.000 N 
ATOM    351  H   ARG A 826      13.608  -3.287   2.511  0.00  0.00    +0.000 HD
BRANCH 350 352
ATOM    352  CA  ARG A 826      15.569  -3.360   1.714  0.00  0.00    +0.000 C 
BRANCH 352 353
ATOM    353  C   ARG A 826      16.202  -2.019   1.371  0.00  0.00    +0.000 C 
ATOM    354  O   ARG A 826      17.330  -1.947   0.879  0.00  0.00    +0.000 OA
ATOM    355  N   TYR A 827      15.454  -0.958   1.644  0.00  0.00    +0.000 N 
ATOM    356  H   TYR A 827      14.580  -1.096   2.076  0.00  0.00    +0.000 HD
BRANCH 355 357
ATOM    357  CA  TYR A 827      15.947   0.393   1.428  0.00  0.00    +0.000 C 
BRANCH 357 358
ATOM    358  C   TYR A 827      16.740   0.862   2.646  0.00  0.00    +0.000 C 
ATOM    359  O   TYR A 827      17.727   1.585   2.512  0.00  0.00    +0.000 OA
ATOM    360  N   ASN A 828      16.306   0.414   3.824  0.00  0.00    +0.000 N 
ATOM    361  H   ASN A 828      15.535  -0.191   3.841  0.00  0.00    +0.000 HD
BRANCH 360 362
ATOM    362  CA  ASN A 828      16.924   0.796   5.094  0.00  0.00    +0.000 C 
BRANCH 362 363
ATOM    363  C   ASN A 828      16.791   2.294   5.332  0.00  0.00    +0.000 C 
ATOM    364  O   ASN A 828      17.791   3.025   5.151  0.00  0.00    +0.000 OA
ATOM    365  OXT ASN A 828      15.687   2.737   5.702  0.00  0.00    +0.000 OA
ENDBRANCH 362 363
BRANCH 362 366
ATOM    366  CB  ASN A 828      18.404   0.389   5.153  0.00  0.00    +0.000 C 
BRANCH 366 367
ATOM    367  CG  ASN A 828      18.605  -1.102   5.323  0.00  0.00    +0.000 C 
ATOM    368  OD1 ASN A 828      18.628  -1.615   6.444  0.00  0.00    +0.000 OA
ATOM    369  ND2 ASN A 828      18.779  -1.806   4.215  0.00  0.00    +0.000 N 
ATOM    370 HD21 ASN A 828      18.771  -1.329   3.358  0.00  0.00    +0.000 HD
ATOM    371 HD22 ASN A 828      18.898  -2.774   4.296  0.00  0.00    +0.000 HD
ENDBRANCH 366 367
ENDBRANCH 362 366
ENDBRANCH 360 362
ENDBRANCH 357 358
BRANCH 357 372
ATOM    372  CB  TYR A 827      14.793   1.347   1.116  0.00  0.00    +0.000 C 
BRANCH 372 373
ATOM    373  CG  TYR A 827      15.191   2.807   1.058  0.00  0.00    +0.000 A 
ATOM    374  CD1 TYR A 827      15.863   3.325  -0.043  0.00  0.00    +0.000 A 
ATOM    375  CD2 TYR A 827      14.878   3.671   2.103  0.00  0.00    +0.000 A 
ATOM    376  CE1 TYR A 827      16.212   4.661  -0.100  0.00  0.00    +0.000 A 
ATOM    377  CE2 TYR A 827      15.226   5.006   2.052  0.00  0.00    +0.000 A 
ATOM    378  CZ  TYR A 827      15.891   5.496   0.950  0.00  0.00    +0.000 A 
BRANCH 378 379
ATOM    379  OH  TYR A 827      16.233   6.829   0.895  0.00  0.00    +0.000 OA
ATOM    380  HH  TYR A 827      16.569   7.112   1.764  0.00  0.00    +0.000 HD
ENDBRANCH 378 379
ENDBRANCH 372 373
ENDBRANCH 357 372
ENDBRANCH 355 357
ENDBRANCH 352 353
BRANCH 352 381
ATOM    381  CB  ARG A 826      14.925  -4.000   0.483  0.00  0.00    +0.000 C 
BRANCH 381 382
ATOM    382  CG  ARG A 826      15.892  -4.454  -0.595  0.00  0.00    +0.000 C 
BRANCH 382 383
ATOM    383  CD  ARG A 826      15.145  -5.205  -1.687  0.00  0.00    +0.000 C 
BRANCH 383 384
ATOM    384  NE  ARG A 826      16.008  -5.628  -2.785  0.00  0.00    +0.000 N 
ATOM    385  CZ  ARG A 826      15.654  -6.546  -3.685  0.00  0.00    +0.000 C 
ATOM    386  NH1 ARG A 826      14.495  -7.182  -3.569  0.00  0.00    +0.000 N 
ATOM    387  NH2 ARG A 826      16.461  -6.839  -4.697  0.00  0.00    +0.000 N 
ATOM    388  HE  ARG A 826      16.888  -5.193  -2.865  0.00  0.00    +0.000 HD
ATOM    389 HH11 ARG A 826      13.888  -6.985  -2.799  0.00  0.00    +0.000 HD
ATOM    390 HH12 ARG A 826      14.217  -7.862  -4.263  0.00  0.00    +0.000 HD
ATOM    391 HH21 ARG A 826      17.350  -6.367  -4.793  0.00  0.00    +0.000 HD
ATOM    392 HH22 ARG A 826      16.195  -7.536  -5.370  0.00  0.00    +0.000 HD
ENDBRANCH 383 384
ENDBRANCH 382 383
ENDBRANCH 381 382
ENDBRANCH 352 381
ENDBRANCH 350 352
ENDBRANCH 347 348
BRANCH 347 393
ATOM    393  CB  LYS A 825      13.692  -4.315   5.707  0.00  0.00    +0.000 C 
BRANCH 393 394
ATOM    394  CG  LYS A 825      13.638  -5.463   4.711  0.00  0.00    +0.000 C 
BRANCH 394 395
ATOM    395  CD  LYS A 825      13.932  -6.793   5.375  0.00  0.00    +0.000 C 
BRANCH 395 396
ATOM    396  CE  LYS A 825      15.363  -6.849   5.888  0.00  0.00    +0.000 C 
BRANCH 396 397
ATOM    397  NZ  LYS A 825      15.713  -8.189   6.424  0.00  0.00    +0.000 N 
ATOM    398  HZ1 LYS A 825      15.549  -8.920   5.698  0.00  0.00    +0.000 HD
ATOM    399  HZ2 LYS A 825      15.133  -8.411   7.262  0.00  0.00    +0.000 HD
ATOM    400  HZ3 LYS A 825      16.720  -8.212   6.699  0.00  0.00    +0.000 HD
ENDBRANCH 396 397
ENDBRANCH 395 396
ENDBRANCH 394 395
ENDBRANCH 393 394
ENDBRANCH 347 393
ENDBRANCH 345 347
ENDBRANCH 341 343
ENDBRANCH 339 341
ENDBRANCH 336 337
BRANCH 336 401
ATOM    401  CB  CYS A 823       9.471  -3.061  -0.233  0.00  0.00    +0.000 C 
BRANCH 401 402
ATOM    402  SG  CYS A 823       9.012  -4.209  -1.554  0.00  0.00    +0.000 S 
ATOM    403  HG  CYS A 823       8.961  -5.233  -2.139  0.00  0.00    +0.000 HD
ENDBRANCH 401 402
ENDBRANCH 336 401
ENDBRANCH 334 336
ENDBRANCH 331 332
BRANCH 331 404
ATOM    404  CB  THR A 822      10.076  -7.744   1.248  0.00  0.00    +0.000 C 
ATOM    405  CG2 THR A 822      11.161  -8.390   0.404  0.00  0.00    +0.000 C 
BRANCH 404 406
ATOM    406  OG1 THR A 822       9.250  -8.765   1.827  0.00  0.00    +0.000 OA
ATOM    407  HG1 THR A 822       8.644  -9.105   1.143  0.00  0.00    +0.000 HD
ENDBRANCH 404 406
ENDBRANCH 331 404
ENDBRANCH 329 331
ENDBRANCH 326 327
BRANCH 326 408
ATOM    408  CB  MET A 821       8.609  -6.712   6.162  0.00  0.00    +0.000 C 
BRANCH 408 409
ATOM    409  CG  MET A 821       7.761  -6.522   7.409  0.00  0.00    +0.000 C 
BRANCH 409 410
ATOM    410  SD  MET A 821       8.516  -5.425   8.631  0.00  0.00    +0.000 S 
ATOM    411  CE  MET A 821       7.797  -3.842   8.180  0.00  0.00    +0.000 C 
ENDBRANCH 409 410
ENDBRANCH 408 409
ENDBRANCH 326 408
ENDBRANCH 324 326
ENDBRANCH 321 322
BRANCH 321 412
ATOM    412  CB  SER A 820       4.742  -4.885   3.988  0.00  0.00    +0.000 C 
BRANCH 412 413
ATOM    413  OG  SER A 820       4.920  -5.746   2.873  0.00  0.00    +0.000 OA
ATOM    414  HG  SER A 820       4.227  -6.413   2.869  0.00  0.00    +0.000 HD
ENDBRANCH 412 413
ENDBRANCH 321 412
ENDBRANCH 319 321
ENDBRANCH 316 317
BRANCH 316 415
ATOM    415  CB  CYS A 819       4.728  -2.068  -0.098  0.00  0.00    +0.000 C 
BRANCH 415 416
ATOM    416  SG  CYS A 819       6.026  -2.554  -1.252  0.00  0.00    +0.000 S 
ATOM    417  HG  CYS A 819       5.997  -3.641  -1.717  0.00  0.00    +0.000 HD
ENDBRANCH 415 416
ENDBRANCH 316 415
ENDBRANCH 314 316
ENDBRANCH 311 312
BRANCH 311 418
ATOM    418  CB  PHE A 818       8.893   1.111   0.986  0.00  0.00    +0.000 C 
BRANCH 418 419
ATOM    419  CG  PHE A 818      10.069   1.904   0.488  0.00  0.00    +0.000 A 
ATOM    420  CD1 PHE A 818      10.507   1.763  -0.814  0.00  0.00    +0.000 A 
ATOM    421  CD2 PHE A 818      10.717   2.805   1.314  0.00  0.00    +0.000 A 
ATOM    422  CE1 PHE A 818      11.572   2.503  -1.286  0.00  0.00    +0.000 A 
ATOM    423  CE2 PHE A 818      11.778   3.551   0.849  0.00  0.00    +0.000 A 
ATOM    424  CZ  PHE A 818      12.209   3.399  -0.452  0.00  0.00    +0.000 A 
ENDBRANCH 418 419
ENDBRANCH 311 418
ENDBRANCH 309 311
ENDBRANCH 306 307
BRANCH 306 425
ATOM    425  CB  ARG A 817       8.857   5.641   2.156  0.00  0.00    +0.000 C 
BRANCH 425 426
ATOM    426  CG  ARG A 817       9.075   7.014   2.766  0.00  0.00    +0.000 C 
BRANCH 426 427
ATOM    427  CD  ARG A 817      10.413   7.062   3.491  0.00  0.00    +0.000 C 
BRANCH 427 428
ATOM    428  NE  ARG A 817      10.749   8.400   3.976  0.00  0.00    +0.000 N 
ATOM    429  CZ  ARG A 817      10.913   8.703   5.262  0.00  0.00    +0.000 C 
ATOM    430  NH1 ARG A 817      10.709   7.777   6.192  0.00  0.00    +0.000 N 
ATOM    431  NH2 ARG A 817      11.283   9.925   5.621  0.00  0.00    +0.000 N 
ATOM    432  HE  ARG A 817      10.893   9.103   3.295  0.00  0.00    +0.000 HD
ATOM    433 HH11 ARG A 817      10.430   6.855   5.928  0.00  0.00    +0.000 HD
ATOM    434 HH12 ARG A 817      10.851   7.997   7.166  0.00  0.00    +0.000 HD
ATOM    435 HH21 ARG A 817      11.451  10.633   4.924  0.00  0.00    +0.000 HD
ATOM    436 HH22 ARG A 817      11.388  10.155   6.600  0.00  0.00    +0.000 HD
ENDBRANCH 427 428
ENDBRANCH 426 427
ENDBRANCH 425 426
ENDBRANCH 306 425
ENDBRANCH 304 306
ENDBRANCH 301 302
BRANCH 301 437
ATOM    437  CB  LYS A 816       3.634   7.134   3.932  0.00  0.00    +0.000 C 
BRANCH 437 438
ATOM    438  CG  LYS A 816       2.541   6.886   4.962  0.00  0.00    +0.000 C 
BRANCH 438 439
ATOM    439  CD  LYS A 816       1.540   5.845   4.490  0.00  0.00    +0.000 C 
BRANCH 439 440
ATOM    440  CE  LYS A 816       0.453   5.605   5.528  0.00  0.00    +0.000 C 
BRANCH 440 441
ATOM    441  NZ  LYS A 816      -0.314   6.842   5.829  0.00  0.00    +0.000 N 
ATOM    442  HZ1 LYS A 816      -1.162   6.614   6.395  0.00  0.00    +0.000 HD
ATOM    443  HZ2 LYS A 816      -0.614   7.304   4.944  0.00  0.00    +0.000 HD
ATOM    444  HZ3 LYS A 816       0.278   7.508   6.371  0.00  0.00    +0.000 HD
ENDBRANCH 440 441
ENDBRANCH 439 440
ENDBRANCH 438 439
ENDBRANCH 437 438
ENDBRANCH 301 437
ENDBRANCH 299 301
ENDBRANCH 296 297
BRANCH 296 445
ATOM    445  CB  SER A 815       7.328   5.865   7.731  0.00  0.00    +0.000 C 
BRANCH 445 446
ATOM    446  OG  SER A 815       7.590   5.155   8.935  0.00  0.00    +0.000 OA
ATOM    447  HG  SER A 815       8.515   4.871   8.939  0.00  0.00    +0.000 HD
ENDBRANCH 445 446
ENDBRANCH 296 445
ENDBRANCH 294 296
ENDBRANCH 291 292
ENDBRANCH 289 291
ENDBRANCH 286 287
BRANCH 286 448
ATOM    448  CB  ARG A 813       3.878  -0.807   7.856  0.00  0.00    +0.000 C 
BRANCH 448 449
ATOM    449  CG  ARG A 813       2.463  -1.355   7.822  0.00  0.00    +0.000 C 
BRANCH 449 450
ATOM    450  CD  ARG A 813       1.606  -0.758   8.922  0.00  0.00    +0.000 C 
BRANCH 450 451
ATOM    451  NE  ARG A 813       1.985  -1.278  10.230  0.00  0.00    +0.000 N 
ATOM    452  CZ  ARG A 813       1.172  -1.983  11.007  0.00  0.00    +0.000 C 
ATOM    453  NH1 ARG A 813      -0.113  -2.099  10.692  0.00  0.00    +0.000 N 
ATOM    454  NH2 ARG A 813       1.634  -2.540  12.117  0.00  0.00    +0.000 N 
ATOM    455  HE  ARG A 813       2.919  -1.130  10.522  0.00  0.00    +0.000 HD
ATOM    456 HH11 ARG A 813      -0.477  -1.650   9.865  0.00  0.00    +0.000 HD
ATOM    457 HH12 ARG A 813      -0.726  -2.656  11.261  0.00  0.00    +0.000 HD
ATOM    458 HH21 ARG A 813       2.609  -2.439  12.367  0.00  0.00    +0.000 HD
ATOM    459 HH22 ARG A 813       1.023  -3.069  12.711  0.00  0.00    +0.000 HD
ENDBRANCH 450 451
ENDBRANCH 449 450
ENDBRANCH 448 449
ENDBRANCH 286 448
ENDBRANCH 284 286
ENDBRANCH 281 282
BRANCH 281 460
ATOM    460  CB  PHE A 812       2.535   2.605   2.934  0.00  0.00    +0.000 C 
BRANCH 460 461
ATOM    461  CG  PHE A 812       2.356   2.283   1.480  0.00  0.00    +0.000 A 
ATOM    462  CD1 PHE A 812       1.112   1.950   0.978  0.00  0.00    +0.000 A 
ATOM    463  CD2 PHE A 812       3.442   2.290   0.622  0.00  0.00    +0.000 A 
ATOM    464  CE1 PHE A 812       0.953   1.633  -0.354  0.00  0.00    +0.000 A 
ATOM    465  CE2 PHE A 812       3.288   1.977  -0.711  0.00  0.00    +0.000 A 
ATOM    466  CZ  PHE A 812       2.043   1.646  -1.198  0.00  0.00    +0.000 A 
ENDBRANCH 460 461
ENDBRANCH 281 460
ENDBRANCH 279 281
ENDBRANCH 276 277
BRANCH 276 467
ATOM    467  CB  GLN A 811      -0.393  -2.154   2.825  0.00  0.00    +0.000 C 
BRANCH 467 468
ATOM    468  CG  GLN A 811       0.622  -3.257   2.557  0.00  0.00    +0.000 C 
BRANCH 468 469
ATOM    469  CD  GLN A 811       1.440  -3.022   1.295  0.00  0.00    +0.000 C 
ATOM    470  OE1 GLN A 811       1.856  -3.969   0.632  0.00  0.00    +0.000 OA
ATOM    471  NE2 GLN A 811       1.690  -1.764   0.957  0.00  0.00    +0.000 N 
ATOM    472 HE21 GLN A 811       1.349  -1.050   1.531  0.00  0.00    +0.000 HD
ATOM    473 HE22 GLN A 811       2.195  -1.601   0.137  0.00  0.00    +0.000 HD
ENDBRANCH 468 469
ENDBRANCH 467 468
ENDBRANCH 276 467
ENDBRANCH 274 276
ENDBRANCH 271 272
BRANCH 271 474
ATOM    474  CB  GLU A 810      -3.884   0.798   5.471  0.00  0.00    +0.000 C 
BRANCH 474 475
ATOM    475  CG  GLU A 810      -4.238   0.738   6.938  0.00  0.00    +0.000 C 
BRANCH 475 476
ATOM    476  CD  GLU A 810      -5.649   0.248   7.181  0.00  0.00    +0.000 C 
ATOM    477  OE1 GLU A 810      -5.844  -0.983   7.310  0.00  0.00    +0.000 OA
ATOM    478  OE2 GLU A 810      -6.564   1.093   7.257  0.00  0.00    +0.000 OA
ENDBRANCH 475 476
ENDBRANCH 474 475
ENDBRANCH 271 474
ENDBRANCH 269 271
ENDBRANCH 265 267
ENDBRANCH 263 265
ENDBRANCH 257 261
ENDBRANCH 252 254
ENDBRANCH 250 252
ENDBRANCH 247 248
BRANCH 247 479
ATOM    479  CB  TYR A 806      -0.741   0.860  -6.804  0.00  0.00    +0.000 C 
BRANCH 479 480
ATOM    480  CG  TYR A 806      -0.124   1.716  -7.885  0.00  0.00    +0.000 A 
ATOM    481  CD1 TYR A 806       0.001   3.090  -7.721  0.00  0.00    +0.000 A 
ATOM    482  CD2 TYR A 806       0.315   1.152  -9.075  0.00  0.00    +0.000 A 
ATOM    483  CE1 TYR A 806       0.547   3.880  -8.714  0.00  0.00    +0.000 A 
ATOM    484  CE2 TYR A 806       0.859   1.934 -10.075  0.00  0.00    +0.000 A 
ATOM    485  CZ  TYR A 806       0.973   3.297  -9.890  0.00  0.00    +0.000 A 
BRANCH 485 486
ATOM    486  OH  TYR A 806       1.506   4.078 -10.890  0.00  0.00    +0.000 OA
ATOM    487  HH  TYR A 806       1.049   3.879 -11.724  0.00  0.00    +0.000 HD
ENDBRANCH 485 486
ENDBRANCH 479 480
ENDBRANCH 247 479
ENDBRANCH   3 247
TORSDOF 205
