REMARK  Name = /Users/acegid/Desktop/Smoking_Research/Docking/Docking_All_PDB/All_PDB/2L8S_H.pdb
REMARK  265 active torsions:
REMARK  status: ('A' for Active; 'I' for Inactive)
REMARK    1  A    between atoms: N_1  and  CA_2
REMARK    2  A    between atoms: CA_2  and  C_3
REMARK    3  A    between atoms: CA_2  and  CB_5
REMARK    4  A    between atoms: CB_5  and  CG_7
REMARK    5  A    between atoms: CG_7  and  SD_9
REMARK    6  A    between atoms: SD_9  and  CE_10
REMARK    7  A    between atoms: N_20  and  CA_21
REMARK    8  A    between atoms: CA_21  and  C_22
REMARK    9  A    between atoms: N_27  and  CA_28
REMARK   10  A    between atoms: CA_28  and  C_29
REMARK   11  A    between atoms: CA_28  and  CB_31
REMARK   12  A    between atoms: CB_31  and  CG_33
REMARK   13  A    between atoms: CG_33  and  CD1_34
REMARK   14  A    between atoms: CG_33  and  CD2_35
REMARK   15  A    between atoms: CA_47  and  C_48
REMARK   16  A    between atoms: N_60  and  CA_61
REMARK   17  A    between atoms: CA_61  and  C_62
REMARK   18  A    between atoms: N_67  and  CA_68
REMARK   19  A    between atoms: CA_68  and  C_69
REMARK   20  A    between atoms: CA_68  and  CB_71
REMARK   21  A    between atoms: CB_71  and  CG_73
REMARK   22  A    between atoms: CG_73  and  CD_75
REMARK   23  A    between atoms: CD_75  and  NE_77
REMARK   24  A    between atoms: N_91  and  CA_92
REMARK   25  A    between atoms: CA_92  and  C_93
REMARK   26  A    between atoms: CA_92  and  CB_95
REMARK   27  A    between atoms: CB_95  and  CG1_96
REMARK   28  A    between atoms: CB_95  and  CG2_97
REMARK   29  A    between atoms: CA_108  and  C_109
REMARK   30  A    between atoms: N_121  and  CA_122
REMARK   31  A    between atoms: CA_122  and  C_123
REMARK   32  A    between atoms: CA_122  and  CB_125
REMARK   33  A    between atoms: CB_125  and  CG_127
REMARK   34  A    between atoms: CG_127  and  CD1_128
REMARK   35  A    between atoms: CG_127  and  CD2_129
REMARK   36  A    between atoms: N_140  and  CA_141
REMARK   37  A    between atoms: CA_141  and  C_142
REMARK   38  A    between atoms: CA_141  and  CB_144
REMARK   39  A    between atoms: CB_144  and  CG_146
REMARK   40  A    between atoms: N_164  and  CA_165
REMARK   41  A    between atoms: CA_165  and  C_166
REMARK   42  A    between atoms: CA_165  and  CB_168
REMARK   43  A    between atoms: CB_168  and  CG1_169
REMARK   44  A    between atoms: CB_168  and  CG2_170
REMARK   45  A    between atoms: N_180  and  CA_181
REMARK   46  A    between atoms: CA_181  and  C_182
REMARK   47  A    between atoms: CA_181  and  CB_184
REMARK   48  A    between atoms: CB_184  and  CG1_185
REMARK   49  A    between atoms: CB_184  and  CG2_187
REMARK   50  A    between atoms: CG1_185  and  CD1_188
REMARK   51  A    between atoms: N_199  and  CA_200
REMARK   52  A    between atoms: CA_200  and  C_201
REMARK   53  A    between atoms: CA_200  and  CB_203
REMARK   54  A    between atoms: CB_203  and  CG_205
REMARK   55  A    between atoms: CG_205  and  CD1_206
REMARK   56  A    between atoms: CG_205  and  CD2_207
REMARK   57  A    between atoms: N_218  and  CA_219
REMARK   58  A    between atoms: CA_219  and  C_220
REMARK   59  A    between atoms: CA_219  and  CB_222
REMARK   60  A    between atoms: CB_222  and  CG_224
REMARK   61  A    between atoms: CG_224  and  CD1_225
REMARK   62  A    between atoms: CG_224  and  CD2_226
REMARK   63  A    between atoms: N_237  and  CA_238
REMARK   64  A    between atoms: CA_238  and  C_239
REMARK   65  A    between atoms: CA_238  and  CB_241
REMARK   66  A    between atoms: CB_241  and  OG_243
REMARK   67  A    between atoms: N_248  and  CA_249
REMARK   68  A    between atoms: CA_249  and  C_250
REMARK   69  A    between atoms: CA_249  and  CB_252
REMARK   70  A    between atoms: N_258  and  CA_259
REMARK   71  A    between atoms: CA_259  and  C_260
REMARK   72  A    between atoms: CA_259  and  CB_262
REMARK   73  A    between atoms: CB_262  and  CG_264
REMARK   74  A    between atoms: N_278  and  CA_279
REMARK   75  A    between atoms: CA_279  and  C_280
REMARK   76  A    between atoms: CA_279  and  CB_282
REMARK   77  A    between atoms: N_288  and  CA_289
REMARK   78  A    between atoms: CA_289  and  C_290
REMARK   79  A    between atoms: N_295  and  CA_296
REMARK   80  A    between atoms: CA_296  and  C_297
REMARK   81  A    between atoms: CA_296  and  CB_299
REMARK   82  A    between atoms: CB_299  and  CG_301
REMARK   83  A    between atoms: CG_301  and  CD1_302
REMARK   84  A    between atoms: CG_301  and  CD2_303
REMARK   85  A    between atoms: N_314  and  CA_315
REMARK   86  A    between atoms: CA_315  and  C_316
REMARK   87  A    between atoms: CA_315  and  CB_318
REMARK   88  A    between atoms: CB_318  and  CG_320
REMARK   89  A    between atoms: CG_320  and  CD1_321
REMARK   90  A    between atoms: CG_320  and  CD2_322
REMARK   91  A    between atoms: N_333  and  CA_334
REMARK   92  A    between atoms: CA_334  and  C_335
REMARK   93  A    between atoms: CA_334  and  CB_337
REMARK   94  A    between atoms: CB_337  and  CG_339
REMARK   95  A    between atoms: CG_339  and  CD1_340
REMARK   96  A    between atoms: CG_339  and  CD2_341
REMARK   97  A    between atoms: N_352  and  CA_353
REMARK   98  A    between atoms: CA_353  and  C_354
REMARK   99  A    between atoms: CA_353  and  CB_356
REMARK  100  A    between atoms: CB_356  and  CG_358
REMARK  101  A    between atoms: CG_358  and  CD1_359
REMARK  102  A    between atoms: CG_358  and  CD2_360
REMARK  103  A    between atoms: N_371  and  CA_372
REMARK  104  A    between atoms: CA_372  and  C_373
REMARK  105  A    between atoms: CA_372  and  CB_375
REMARK  106  A    between atoms: CB_375  and  CG_377
REMARK  107  A    between atoms: CG_377  and  SD_379
REMARK  108  A    between atoms: SD_379  and  CE_380
REMARK  109  A    between atoms: N_388  and  CA_389
REMARK  110  A    between atoms: CA_389  and  C_390
REMARK  111  A    between atoms: CA_389  and  CB_392
REMARK  112  A    between atoms: CB_392  and  CG_394
REMARK  113  A    between atoms: CG_394  and  CD1_395
REMARK  114  A    between atoms: CG_394  and  CD2_396
REMARK  115  A    between atoms: N_407  and  CA_408
REMARK  116  A    between atoms: CA_408  and  C_409
REMARK  117  A    between atoms: CA_408  and  CB_411
REMARK  118  A    between atoms: CB_411  and  CG_413
REMARK  119  A    between atoms: CG_413  and  CD1_414
REMARK  120  A    between atoms: CG_413  and  CD2_415
REMARK  121  A    between atoms: N_426  and  CA_427
REMARK  122  A    between atoms: CA_427  and  C_428
REMARK  123  A    between atoms: CA_427  and  CB_430
REMARK  124  A    between atoms: CB_430  and  CG1_431
REMARK  125  A    between atoms: CB_430  and  CG2_433
REMARK  126  A    between atoms: CG1_431  and  CD1_434
REMARK  127  A    between atoms: N_445  and  CA_446
REMARK  128  A    between atoms: CA_446  and  C_447
REMARK  129  A    between atoms: CA_446  and  CB_449
REMARK  130  A    between atoms: CB_449  and  CG_451
REMARK  131  A    between atoms: CG_451  and  CD1_452
REMARK  132  A    between atoms: CG_451  and  CD2_453
REMARK  133  A    between atoms: N_464  and  CA_465
REMARK  134  A    between atoms: CA_465  and  C_466
REMARK  135  A    between atoms: CA_465  and  CB_468
REMARK  136  A    between atoms: N_474  and  CA_475
REMARK  137  A    between atoms: CA_475  and  C_476
REMARK  138  A    between atoms: CA_475  and  CB_478
REMARK  139  A    between atoms: CB_478  and  CG_480
REMARK  140  A    between atoms: CG_480  and  CD1_481
REMARK  141  A    between atoms: CG_480  and  CD2_482
REMARK  142  A    between atoms: N_493  and  CA_494
REMARK  143  A    between atoms: CA_494  and  C_495
REMARK  144  A    between atoms: CA_494  and  CB_497
REMARK  145  A    between atoms: CB_497  and  CG_499
REMARK  146  A    between atoms: N_517  and  CA_518
REMARK  147  A    between atoms: CA_518  and  C_519
REMARK  148  A    between atoms: CA_518  and  CB_521
REMARK  149  A    between atoms: CB_521  and  CG_523
REMARK  150  A    between atoms: CG_523  and  CD_525
REMARK  151  A    between atoms: CD_525  and  CE_527
REMARK  152  A    between atoms: CE_527  and  NZ_529
REMARK  153  A    between atoms: N_539  and  CA_540
REMARK  154  A    between atoms: CA_540  and  C_541
REMARK  155  A    between atoms: CA_540  and  CB_543
REMARK  156  A    between atoms: CB_543  and  CG1_544
REMARK  157  A    between atoms: CB_543  and  CG2_546
REMARK  158  A    between atoms: CG1_544  and  CD1_547
REMARK  159  A    between atoms: N_558  and  CA_559
REMARK  160  A    between atoms: CA_559  and  C_560
REMARK  161  A    between atoms: N_565  and  CA_566
REMARK  162  A    between atoms: CA_566  and  C_567
REMARK  163  A    between atoms: CA_566  and  CB_569
REMARK  164  A    between atoms: CB_569  and  CG_571
REMARK  165  A    between atoms: N_585  and  CA_586
REMARK  166  A    between atoms: CA_586  and  C_587
REMARK  167  A    between atoms: CA_586  and  CB_589
REMARK  168  A    between atoms: CB_589  and  CG_591
REMARK  169  A    between atoms: N_605  and  CA_606
REMARK  170  A    between atoms: CA_606  and  C_607
REMARK  171  A    between atoms: CA_606  and  CB_609
REMARK  172  A    between atoms: CB_609  and  CG_611
REMARK  173  A    between atoms: CG_611  and  CD_613
REMARK  174  A    between atoms: CD_613  and  CE_615
REMARK  175  A    between atoms: CE_615  and  NZ_617
REMARK  176  A    between atoms: N_627  and  CA_628
REMARK  177  A    between atoms: CA_628  and  C_629
REMARK  178  A    between atoms: CA_628  and  CB_631
REMARK  179  A    between atoms: CB_631  and  CG_633
REMARK  180  A    between atoms: CG_633  and  CD_635
REMARK  181  A    between atoms: CD_635  and  NE_637
REMARK  182  A    between atoms: CA_652  and  C_653
REMARK  183  A    between atoms: N_665  and  CA_666
REMARK  184  A    between atoms: CA_666  and  C_667
REMARK  185  A    between atoms: CA_666  and  CB_669
REMARK  186  A    between atoms: CB_669  and  CG_671
REMARK  187  A    between atoms: CG_671  and  CD1_672
REMARK  188  A    between atoms: CG_671  and  CD2_673
REMARK  189  A    between atoms: N_684  and  CA_685
REMARK  190  A    between atoms: CA_685  and  C_686
REMARK  191  A    between atoms: CA_685  and  CB_688
REMARK  192  A    between atoms: CB_688  and  CG_690
REMARK  193  A    between atoms: CG_690  and  CD_692
REMARK  194  A    between atoms: CD_692  and  CE_694
REMARK  195  A    between atoms: CE_694  and  NZ_696
REMARK  196  A    between atoms: N_706  and  CA_707
REMARK  197  A    between atoms: CA_707  and  C_708
REMARK  198  A    between atoms: CA_707  and  CB_710
REMARK  199  A    between atoms: CB_710  and  CG_712
REMARK  200  A    between atoms: CG_712  and  CD_714
REMARK  201  A    between atoms: CD_714  and  CE_716
REMARK  202  A    between atoms: CE_716  and  NZ_718
REMARK  203  A    between atoms: N_728  and  CA_729
REMARK  204  A    between atoms: CA_729  and  C_730
REMARK  205  A    between atoms: CA_729  and  CB_732
REMARK  206  A    between atoms: CB_732  and  CG_734
REMARK  207  A    between atoms: CG_734  and  CD_736
REMARK  208  A    between atoms: CD_736  and  CE_738
REMARK  209  A    between atoms: CE_738  and  NZ_740
REMARK  210  A    between atoms: N_750  and  CA_751
REMARK  211  A    between atoms: CA_751  and  C_752
REMARK  212  A    between atoms: CA_751  and  CB_754
REMARK  213  A    between atoms: CB_754  and  CG_756
REMARK  214  A    between atoms: CG_756  and  SD_758
REMARK  215  A    between atoms: SD_758  and  CE_759
REMARK  216  A    between atoms: N_767  and  CA_768
REMARK  217  A    between atoms: CA_768  and  C_769
REMARK  218  A    between atoms: CA_768  and  CB_771
REMARK  219  A    between atoms: CB_771  and  CG_773
REMARK  220  A    between atoms: CG_773  and  CD_775
REMARK  221  A    between atoms: N_782  and  CA_783
REMARK  222  A    between atoms: CA_783  and  C_784
REMARK  223  A    between atoms: CA_783  and  CB_786
REMARK  224  A    between atoms: C_784  and  N_804
REMARK  225  A    between atoms: CB_786  and  CG_788
REMARK  226  A    between atoms: CG_788  and  CD_790
REMARK  227  A    between atoms: CD_790  and  CE_792
REMARK  228  A    between atoms: NZ_794  and  C_821
REMARK  229  A    between atoms: N_804  and  CA_806
REMARK  230  A    between atoms: CA_806  and  CB_808
REMARK  231  A    between atoms: CA_806  and  C_821
REMARK  232  A    between atoms: CB_808  and  CG_811
REMARK  233  A    between atoms: CG_811  and  CD1_813
REMARK  234  A    between atoms: CG_811  and  CD2_817
REMARK  235  A    between atoms: C_821  and  N_823
REMARK  236  A    between atoms: N_823  and  CA_825
REMARK  237  A    between atoms: CA_825  and  CB_827
REMARK  238  A    between atoms: CA_825  and  C_836
REMARK  239  A    between atoms: CB_827  and  CG_830
REMARK  240  A    between atoms: CG_830  and  CD_833
REMARK  241  A    between atoms: C_836  and  N_838
REMARK  242  A    between atoms: N_838  and  CA_840
REMARK  243  A    between atoms: CA_840  and  CB_842
REMARK  244  A    between atoms: CA_840  and  C_853
REMARK  245  A    between atoms: CB_842  and  CG_845
REMARK  246  A    between atoms: N_855  and  CA_857
REMARK  247  A    between atoms: CA_857  and  CB_859
REMARK  248  A    between atoms: CA_857  and  C_870
REMARK  249  A    between atoms: CB_859  and  CG_862
REMARK  250  A    between atoms: N_872  and  CA_874
REMARK  251  A    between atoms: CA_874  and  CB_876
REMARK  252  A    between atoms: CA_874  and  C_887
REMARK  253  A    between atoms: CB_876  and  CG_879
REMARK  254  A    between atoms: N_889  and  CA_891
REMARK  255  A    between atoms: CA_891  and  CB_893
REMARK  256  A    between atoms: CA_891  and  C_904
REMARK  257  A    between atoms: CB_893  and  CG_896
REMARK  258  A    between atoms: N_906  and  CA_908
REMARK  259  A    between atoms: CA_908  and  CB_910
REMARK  260  A    between atoms: CA_908  and  C_921
REMARK  261  A    between atoms: CB_910  and  CG_913
REMARK  262  A    between atoms: N_923  and  CA_925
REMARK  263  A    between atoms: CA_925  and  CB_927
REMARK  264  A    between atoms: CA_925  and  C_938
REMARK  265  A    between atoms: CB_927  and  CG_930
REMARK                            x       y       z     vdW  Elec       q    Type
REMARK                         _______ _______ _______ _____ _____    ______ ____
ROOT
ATOM      1  CA  TRP A  31      -4.994  -0.757   7.890  0.00  0.00    +0.000 C 
ENDROOT
BRANCH   1   4
ATOM      2  C   LEU A  30      -3.033  -2.136   8.251  0.00  0.00    +0.000 C 
ATOM      3  O   LEU A  30      -3.538  -2.687   9.227  0.00  0.00    +0.000 OA
ATOM      4  N   TRP A  31      -3.647  -1.199   7.543  0.00  0.00    +0.000 N 
ATOM      5  H   TRP A  31      -3.133  -0.769   6.827  0.00  0.00    +0.000 HD
BRANCH   2   6
ATOM      6  CA  LEU A  30      -1.610  -2.463   7.807  0.00  0.00    +0.000 C 
BRANCH   6   9
ATOM      7  C   ALA A  29      -2.408  -3.644   5.847  0.00  0.00    +0.000 C 
ATOM      8  O   ALA A  29      -3.209  -4.284   6.525  0.00  0.00    +0.000 OA
ATOM      9  N   LEU A  30      -1.589  -2.734   6.372  0.00  0.00    +0.000 N 
ATOM     10  H   LEU A  30      -0.960  -2.238   5.795  0.00  0.00    +0.000 HD
BRANCH   7  11
ATOM     11  CA  ALA A  29      -2.332  -3.854   4.341  0.00  0.00    +0.000 C 
ATOM     12  CB  ALA A  29      -1.036  -4.584   3.991  0.00  0.00    +0.000 C 
BRANCH  11  15
ATOM     13  C   LEU A  28      -3.366  -1.703   3.923  0.00  0.00    +0.000 C 
ATOM     14  O   LEU A  28      -4.259  -1.920   4.741  0.00  0.00    +0.000 OA
ATOM     15  N   ALA A  29      -2.392  -2.571   3.658  0.00  0.00    +0.000 N 
ATOM     16  H   ALA A  29      -1.737  -2.343   2.968  0.00  0.00    +0.000 HD
BRANCH  13  17
ATOM     17  CA  LEU A  28      -3.324  -0.402   3.130  0.00  0.00    +0.000 C 
BRANCH  17  20
ATOM     18  C   ILE A  27      -1.416   0.600   4.227  0.00  0.00    +0.000 C 
ATOM     19  O   ILE A  27      -2.017   0.659   5.299  0.00  0.00    +0.000 OA
ATOM     20  N   LEU A  28      -1.959   0.105   3.120  0.00  0.00    +0.000 N 
ATOM     21  H   LEU A  28      -1.418   0.051   2.304  0.00  0.00    +0.000 HD
BRANCH  18  22
ATOM     22  CA  ILE A  27       0.027   1.077   4.115  0.00  0.00    +0.000 C 
BRANCH  22  25
ATOM     23  C   LEU A  26       0.965  -1.146   3.773  0.00  0.00    +0.000 C 
ATOM     24  O   LEU A  26       0.426  -1.600   4.781  0.00  0.00    +0.000 OA
ATOM     25  N   ILE A  27       0.834   0.112   3.376  0.00  0.00    +0.000 N 
ATOM     26  H   ILE A  27       1.313   0.398   2.577  0.00  0.00    +0.000 HD
BRANCH  23  27
ATOM     27  CA  LEU A  26       1.846  -2.021   2.883  0.00  0.00    +0.000 C 
BRANCH  27  30
ATOM     28  C   LEU A  25       0.203  -2.319   1.144  0.00  0.00    +0.000 C 
ATOM     29  O   LEU A  25      -0.561  -2.858   1.941  0.00  0.00    +0.000 OA
ATOM     30  N   LEU A  26       1.402  -1.875   1.501  0.00  0.00    +0.000 N 
ATOM     31  H   LEU A  26       1.982  -1.441   0.839  0.00  0.00    +0.000 HD
BRANCH  28  32
ATOM     32  CA  LEU A  25      -0.219  -2.130  -0.310  0.00  0.00    +0.000 C 
BRANCH  32  35
ATOM     33  C   MET A  24       0.132   0.281  -0.246  0.00  0.00    +0.000 C 
ATOM     34  O   MET A  24      -0.455   0.400   0.829  0.00  0.00    +0.000 OA
ATOM     35  N   LEU A  25       0.296  -0.882  -0.867  0.00  0.00    +0.000 N 
ATOM     36  H   LEU A  25       0.692  -0.871  -1.761  0.00  0.00    +0.000 HD
BRANCH  33  37
ATOM     37  CA  MET A  24       0.682   1.498  -0.988  0.00  0.00    +0.000 C 
BRANCH  37  40
ATOM     38  C   LEU A  23       3.018   1.361  -0.394  0.00  0.00    +0.000 C 
ATOM     39  O   LEU A  23       2.764   1.627   0.779  0.00  0.00    +0.000 OA
ATOM     40  N   MET A  24       2.082   1.268  -1.329  0.00  0.00    +0.000 N 
ATOM     41  H   MET A  24       2.349   0.972  -2.224  0.00  0.00    +0.000 HD
BRANCH  38  42
ATOM     42  CA  LEU A  23       4.445   1.051  -0.839  0.00  0.00    +0.000 C 
BRANCH  42  45
ATOM     43  C   LEU A  22       3.810  -1.149  -1.644  0.00  0.00    +0.000 C 
ATOM     44  O   LEU A  22       3.191  -1.403  -0.611  0.00  0.00    +0.000 OA
ATOM     45  N   LEU A  23       4.444  -0.003  -1.850  0.00  0.00    +0.000 N 
ATOM     46  H   LEU A  23       4.955   0.122  -2.688  0.00  0.00    +0.000 HD
BRANCH  43  47
ATOM     47  CA  LEU A  22       3.905  -2.165  -2.771  0.00  0.00    +0.000 C 
BRANCH  47  50
ATOM     48  C   LEU A  21       2.345  -1.180  -4.321  0.00  0.00    +0.000 C 
ATOM     49  O   LEU A  21       1.403  -1.404  -3.562  0.00  0.00    +0.000 OA
ATOM     50  N   LEU A  22       3.596  -1.510  -4.030  0.00  0.00    +0.000 N 
ATOM     51  H   LEU A  22       4.315  -1.302  -4.662  0.00  0.00    +0.000 HD
BRANCH  48  52
ATOM     52  CA  LEU A  21       2.114  -0.487  -5.651  0.00  0.00    +0.000 C 
BRANCH  52  55
ATOM     53  C   LEU A  20       3.171   1.602  -4.982  0.00  0.00    +0.000 C 
ATOM     54  O   LEU A  20       2.496   1.682  -3.956  0.00  0.00    +0.000 OA
ATOM     55  N   LEU A  21       3.060   0.607  -5.850  0.00  0.00    +0.000 N 
ATOM     56  H   LEU A  21       3.597   0.627  -6.658  0.00  0.00    +0.000 HD
BRANCH  53  57
ATOM     57  CA  LEU A  20       4.170   2.695  -5.355  0.00  0.00    +0.000 C 
BRANCH  57  60
ATOM     58  C   GLY A  19       6.045   1.159  -5.263  0.00  0.00    +0.000 C 
ATOM     59  O   GLY A  19       5.681   0.728  -4.169  0.00  0.00    +0.000 OA
ATOM     60  N   LEU A  20       5.384   2.109  -5.918  0.00  0.00    +0.000 N 
ATOM     61  H   LEU A  20       5.715   2.420  -6.790  0.00  0.00    +0.000 HD
BRANCH  58  62
ATOM     62  CA  GLY A  19       7.301   0.612  -5.932  0.00  0.00    +0.000 C 
BRANCH  62  65
ATOM     63  C   ALA A  18       6.282  -0.115  -8.011  0.00  0.00    +0.000 C 
ATOM     64  O   ALA A  18       5.503  -0.861  -7.420  0.00  0.00    +0.000 OA
ATOM     65  N   GLY A  19       7.184   0.633  -7.384  0.00  0.00    +0.000 N 
ATOM     66  H   GLY A  19       7.791   1.203  -7.902  0.00  0.00    +0.000 HD
BRANCH  63  67
ATOM     67  CA  ALA A  18       6.259  -0.016  -9.533  0.00  0.00    +0.000 C 
ATOM     68  CB  ALA A  18       7.528  -0.652 -10.105  0.00  0.00    +0.000 C 
BRANCH  67  71
ATOM     69  C   PHE A  17       5.098   2.112  -9.664  0.00  0.00    +0.000 C 
ATOM     70  O   PHE A  17       4.135   1.674  -9.033  0.00  0.00    +0.000 OA
ATOM     71  N   ALA A  18       6.167   1.376  -9.954  0.00  0.00    +0.000 N 
ATOM     72  H   ALA A  18       6.904   1.775 -10.462  0.00  0.00    +0.000 HD
BRANCH  69  73
ATOM     73  CA  PHE A  17       5.119   3.550 -10.161  0.00  0.00    +0.000 C 
BRANCH  73  76
ATOM     74  C   ALA A  16       6.938   4.412  -8.815  0.00  0.00    +0.000 C 
ATOM     75  O   ALA A  16       6.303   4.232  -7.780  0.00  0.00    +0.000 OA
ATOM     76  N   PHE A  17       6.456   4.114 -10.017  0.00  0.00    +0.000 N 
ATOM     77  H   PHE A  17       7.001   4.270 -10.819  0.00  0.00    +0.000 HD
BRANCH  74  78
ATOM     78  CA  ALA A  16       8.346   4.979  -8.764  0.00  0.00    +0.000 C 
ATOM     79  CB  ALA A  16       8.312   6.480  -9.061  0.00  0.00    +0.000 C 
BRANCH  78  82
ATOM     80  C   SER A  15       9.166   2.977  -9.828  0.00  0.00    +0.000 C 
ATOM     81  O   SER A  15       8.466   2.255  -9.119  0.00  0.00    +0.000 OA
ATOM     82  N   ALA A  16       9.179   4.299  -9.736  0.00  0.00    +0.000 N 
ATOM     83  H   ALA A  16       9.831   4.811 -10.264  0.00  0.00    +0.000 HD
BRANCH  80  84
ATOM     84  CA  SER A  15      10.100   2.388 -10.863  0.00  0.00    +0.000 C 
BRANCH  84  87
ATOM     85  C   LEU A  14       8.684   2.459 -12.802  0.00  0.00    +0.000 C 
ATOM     86  O   LEU A  14       7.990   1.554 -12.342  0.00  0.00    +0.000 OA
ATOM     87  N   SER A  15       9.742   2.945 -12.161  0.00  0.00    +0.000 N 
ATOM     88  H   SER A  15      10.249   3.688 -12.559  0.00  0.00    +0.000 HD
BRANCH  85  89
ATOM     89  CA  LEU A  14       8.337   3.089 -14.140  0.00  0.00    +0.000 C 
BRANCH  89  92
ATOM     90  C   LEU A  13       8.136   5.344 -13.251  0.00  0.00    +0.000 C 
ATOM     91  O   LEU A  13       7.364   4.992 -12.361  0.00  0.00    +0.000 OA
ATOM     92  N   LEU A  14       8.654   4.509 -14.145  0.00  0.00    +0.000 N 
ATOM     93  H   LEU A  14       9.214   4.870 -14.855  0.00  0.00    +0.000 HD
BRANCH  90  94
ATOM     94  CA  LEU A  13       8.553   6.800 -13.400  0.00  0.00    +0.000 C 
BRANCH  94  97
ATOM     95  C   ILE A  12      10.671   6.729 -12.234  0.00  0.00    +0.000 C 
ATOM     96  O   ILE A  12      10.117   6.501 -11.159  0.00  0.00    +0.000 OA
ATOM     97  N   LEU A  13      10.008   6.889 -13.375  0.00  0.00    +0.000 N 
ATOM     98  H   LEU A  13      10.529   7.031 -14.187  0.00  0.00    +0.000 HD
BRANCH  95  99
ATOM     99  CA  ILE A  12      12.191   6.825 -12.330  0.00  0.00    +0.000 C 
BRANCH  99 102
ATOM    100  C   VAL A  11      12.612   4.833 -13.647  0.00  0.00    +0.000 C 
ATOM    101  O   VAL A  11      12.157   4.104 -12.766  0.00  0.00    +0.000 OA
ATOM    102  N   ILE A  12      12.671   6.152 -13.532  0.00  0.00    +0.000 N 
ATOM    103  H   ILE A  12      13.034   6.683 -14.274  0.00  0.00    +0.000 HD
BRANCH 100 104
ATOM    104  CA  VAL A  11      13.137   4.248 -14.952  0.00  0.00    +0.000 C 
BRANCH 104 107
ATOM    105  C   TRP A  10      11.557   5.583 -16.212  0.00  0.00    +0.000 C 
ATOM    106  O   TRP A  10      10.645   5.296 -15.441  0.00  0.00    +0.000 OA
ATOM    107  N   VAL A  11      12.794   5.130 -16.063  0.00  0.00    +0.000 N 
ATOM    108  H   VAL A  11      13.471   5.383 -16.725  0.00  0.00    +0.000 HD
BRANCH 105 109
ATOM    109  CA  TRP A  10      11.306   6.480 -17.419  0.00  0.00    +0.000 C 
BRANCH 109 112
ATOM    110  C   LEU A   9      13.146   8.012 -16.981  0.00  0.00    +0.000 C 
ATOM    111  O   LEU A   9      12.754   8.255 -15.839  0.00  0.00    +0.000 OA
ATOM    112  N   TRP A  10      12.523   7.182 -17.806  0.00  0.00    +0.000 N 
ATOM    113  H   TRP A  10      12.903   7.024 -18.695  0.00  0.00    +0.000 HD
BRANCH 110 114
ATOM    114  CA  LEU A   9      14.408   8.660 -17.537  0.00  0.00    +0.000 C 
BRANCH 114 117
ATOM    115  C   PRO A   8      15.255   6.498 -18.261  0.00  0.00    +0.000 C 
ATOM    116  O   PRO A   8      14.965   5.976 -17.188  0.00  0.00    +0.000 OA
ATOM    117  N   LEU A   9      15.028   7.781 -18.525  0.00  0.00    +0.000 N 
ATOM    118  H   LEU A   9      15.270   8.140 -19.404  0.00  0.00    +0.000 HD
BRANCH 115 122
ATOM    119  C   VAL A   7      18.109   5.421 -18.354  0.00  0.00    +0.000 C 
ATOM    120  O   VAL A   7      18.185   6.636 -18.179  0.00  0.00    +0.000 OA
ATOM    121  N   PRO A   8      17.058   4.872 -18.920  0.00  0.00    +0.000 N 
ATOM    122  CA  PRO A   8      15.890   5.680 -19.385  0.00  0.00    +0.000 C 
ATOM    123  CB  PRO A   8      14.897   4.638 -19.912  0.00  0.00    +0.000 C 
ATOM    124  CG  PRO A   8      15.696   3.405 -20.169  0.00  0.00    +0.000 C 
ATOM    125  CD  PRO A   8      16.873   3.438 -19.200  0.00  0.00    +0.000 C 
BRANCH 119 126
ATOM    126  CA  VAL A   7      19.248   4.501 -17.900  0.00  0.00    +0.000 C 
BRANCH 126 129
ATOM    127  C   ARG A   6      20.625   3.168 -19.395  0.00  0.00    +0.000 C 
ATOM    128  O   ARG A   6      20.190   2.111 -18.937  0.00  0.00    +0.000 OA
ATOM    129  N   VAL A   7      20.236   4.364 -18.964  0.00  0.00    +0.000 N 
ATOM    130  H   VAL A   7      20.593   5.167 -19.399  0.00  0.00    +0.000 HD
BRANCH 127 131
ATOM    131  CA  ARG A   6      21.646   3.162 -20.525  0.00  0.00    +0.000 C 
BRANCH 131 134
ATOM    132  C   GLY A   5      22.742   1.230 -19.537  0.00  0.00    +0.000 C 
ATOM    133  O   GLY A   5      22.628   1.686 -18.398  0.00  0.00    +0.000 OA
ATOM    134  N   ARG A   6      22.303   1.864 -20.620  0.00  0.00    +0.000 N 
ATOM    135  H   ARG A   6      22.416   1.450 -21.501  0.00  0.00    +0.000 HD
BRANCH 132 136
ATOM    136  CA  GLY A   5      23.400  -0.124 -19.776  0.00  0.00    +0.000 C 
BRANCH 136 139
ATOM    137  C   PRO A   4      24.801   0.061 -21.753  0.00  0.00    +0.000 C 
ATOM    138  O   PRO A   4      25.708   0.606 -21.124  0.00  0.00    +0.000 OA
ATOM    139  N   GLY A   5      23.658  -0.325 -21.196  0.00  0.00    +0.000 N 
ATOM    140  H   GLY A   5      22.972  -0.739 -21.759  0.00  0.00    +0.000 HD
BRANCH 137 144
ATOM    141  C   LEU A   3      23.177  -1.905 -23.494  0.00  0.00    +0.000 C 
ATOM    142  O   LEU A   3      23.758  -2.629 -22.687  0.00  0.00    +0.000 OA
ATOM    143  N   PRO A   4      23.658  -0.728 -23.827  0.00  0.00    +0.000 N 
ATOM    144  CA  PRO A   4      24.930  -0.201 -23.250  0.00  0.00    +0.000 C 
ATOM    145  CB  PRO A   4      25.179   1.102 -24.017  0.00  0.00    +0.000 C 
ATOM    146  CG  PRO A   4      23.850   1.510 -24.559  0.00  0.00    +0.000 C 
ATOM    147  CD  PRO A   4      23.054   0.224 -24.775  0.00  0.00    +0.000 C 
BRANCH 141 148
ATOM    148  CA  LEU A   3      21.862  -2.363 -24.133  0.00  0.00    +0.000 C 
BRANCH 148 151
ATOM    149  C   GLY A   2      22.607  -4.449 -25.127  0.00  0.00    +0.000 C 
ATOM    150  O   GLY A   2      23.374  -3.863 -25.890  0.00  0.00    +0.000 OA
ATOM    151  N   LEU A   3      21.839  -3.816 -24.247  0.00  0.00    +0.000 N 
ATOM    152  H   LEU A   3      21.247  -4.335 -23.663  0.00  0.00    +0.000 HD
BRANCH 149 153
ATOM    153  CA  GLY A   2      22.494  -5.969 -25.149  0.00  0.00    +0.000 C 
BRANCH 153 156
ATOM    154  C   MET A   1      22.097  -7.561 -26.937  0.00  0.00    +0.000 C 
ATOM    155  O   MET A   1      23.001  -8.296 -26.543  0.00  0.00    +0.000 OA
ATOM    156  N   GLY A   2      21.777  -6.421 -26.335  0.00  0.00    +0.000 N 
ATOM    157  H   GLY A   2      21.047  -5.875 -26.693  0.00  0.00    +0.000 HD
BRANCH 154 158
ATOM    158  CA  MET A   1      21.275  -7.924 -28.169  0.00  0.00    +0.000 C 
BRANCH 158 159
ATOM    159  N   MET A   1      22.065  -8.839 -29.040  0.00  0.00    +0.000 N 
ATOM    160  H   MET A   1      21.959  -9.817 -28.702  0.00  0.00    +0.000 HD
ATOM    161  H2  MET A   1      23.069  -8.567 -29.006  0.00  0.00    +0.000 HD
ATOM    162  H3  MET A   1      21.719  -8.772 -30.017  0.00  0.00    +0.000 HD
ENDBRANCH 158 159
BRANCH 158 163
ATOM    163  CB  MET A   1      19.980  -8.621 -27.744  0.00  0.00    +0.000 C 
BRANCH 163 164
ATOM    164  CG  MET A   1      19.294  -9.217 -28.975  0.00  0.00    +0.000 C 
BRANCH 164 165
ATOM    165  SD  MET A   1      19.810 -10.940 -29.175  0.00  0.00    +0.000 S 
ATOM    166  CE  MET A   1      18.573 -11.405 -30.411  0.00  0.00    +0.000 C 
ENDBRANCH 164 165
ENDBRANCH 163 164
ENDBRANCH 158 163
ENDBRANCH 154 158
ENDBRANCH 153 156
ENDBRANCH 149 153
ENDBRANCH 148 151
BRANCH 148 167
ATOM    167  CB  LEU A   3      20.684  -1.894 -23.275  0.00  0.00    +0.000 C 
BRANCH 167 168
ATOM    168  CG  LEU A   3      19.387  -1.990 -24.082  0.00  0.00    +0.000 C 
ATOM    169  CD1 LEU A   3      18.282  -2.579 -23.204  0.00  0.00    +0.000 C 
ATOM    170  CD2 LEU A   3      18.974  -0.593 -24.550  0.00  0.00    +0.000 C 
ENDBRANCH 167 168
ENDBRANCH 148 167
ENDBRANCH 141 148
ENDBRANCH 137 144
ENDBRANCH 136 139
ENDBRANCH 132 136
ENDBRANCH 131 134
BRANCH 131 171
ATOM    171  CB  ARG A   6      20.965   3.520 -21.850  0.00  0.00    +0.000 C 
BRANCH 171 172
ATOM    172  CG  ARG A   6      20.104   2.353 -22.343  0.00  0.00    +0.000 C 
BRANCH 172 173
ATOM    173  CD  ARG A   6      19.621   2.662 -23.762  0.00  0.00    +0.000 C 
BRANCH 173 174
ATOM    174  NE  ARG A   6      19.846   4.075 -24.061  0.00  0.00    +0.000 N 
ATOM    175  CZ  ARG A   6      18.912   4.998 -23.853  0.00  0.00    +0.000 C 
ATOM    176  NH1 ARG A   6      17.717   4.643 -23.467  0.00  0.00    +0.000 N 
ATOM    177  NH2 ARG A   6      19.192   6.260 -24.033  0.00  0.00    +0.000 N 
ATOM    178  HE  ARG A   6      20.726   4.355 -24.387  0.00  0.00    +0.000 HD
ATOM    179 HH11 ARG A   6      17.500   3.679 -23.327  0.00  0.00    +0.000 HD
ATOM    180 HH12 ARG A   6      17.017   5.339 -23.312  0.00  0.00    +0.000 HD
ATOM    181 HH21 ARG A   6      20.108   6.532 -24.329  0.00  0.00    +0.000 HD
ATOM    182 HH22 ARG A   6      18.490   6.954 -23.876  0.00  0.00    +0.000 HD
ENDBRANCH 173 174
ENDBRANCH 172 173
ENDBRANCH 171 172
ENDBRANCH 131 171
ENDBRANCH 127 131
ENDBRANCH 126 129
BRANCH 126 183
ATOM    183  CB  VAL A   7      19.913   5.100 -16.658  0.00  0.00    +0.000 C 
ATOM    184  CG1 VAL A   7      20.136   4.002 -15.618  0.00  0.00    +0.000 C 
ATOM    185  CG2 VAL A   7      21.259   5.713 -17.049  0.00  0.00    +0.000 C 
ENDBRANCH 126 183
ENDBRANCH 119 126
ENDBRANCH 115 122
ENDBRANCH 114 117
BRANCH 114 186
ATOM    186  CB  LEU A   9      14.043   9.995 -18.185  0.00  0.00    +0.000 C 
BRANCH 186 187
ATOM    187  CG  LEU A   9      15.300  10.659 -18.752  0.00  0.00    +0.000 C 
ATOM    188  CD1 LEU A   9      14.910  11.943 -19.486  0.00  0.00    +0.000 C 
ATOM    189  CD2 LEU A   9      16.271  10.997 -17.614  0.00  0.00    +0.000 C 
ENDBRANCH 186 187
ENDBRANCH 114 186
ENDBRANCH 110 114
ENDBRANCH 109 112
BRANCH 109 190
ATOM    190  CB  TRP A  10      10.792   5.650 -18.591  0.00  0.00    +0.000 C 
BRANCH 190 191
ATOM    191  CG  TRP A  10      10.117   6.559 -19.568  0.00  0.00    +0.000 A 
ATOM    192  CD1 TRP A  10      10.756   7.344 -20.466  0.00  0.00    +0.000 A 
ATOM    193  CD2 TRP A  10       8.692   6.804 -19.751  0.00  0.00    +0.000 A 
ATOM    194  NE1 TRP A  10       9.814   8.055 -21.188  0.00  0.00    +0.000 N 
ATOM    195  CE2 TRP A  10       8.528   7.756 -20.784  0.00  0.00    +0.000 A 
ATOM    196  CE3 TRP A  10       7.539   6.297 -19.126  0.00  0.00    +0.000 A 
ATOM    197  CZ2 TRP A  10       7.263   8.191 -21.184  0.00  0.00    +0.000 A 
ATOM    198  CZ3 TRP A  10       6.264   6.731 -19.526  0.00  0.00    +0.000 A 
ATOM    199  CH2 TRP A  10       6.127   7.677 -20.553  0.00  0.00    +0.000 A 
ATOM    200  HE1 TRP A  10      10.014   8.695 -21.902  0.00  0.00    +0.000 HD
ENDBRANCH 190 191
ENDBRANCH 109 190
ENDBRANCH 105 109
ENDBRANCH 104 107
BRANCH 104 201
ATOM    201  CB  VAL A  11      14.654   4.072 -14.844  0.00  0.00    +0.000 C 
ATOM    202  CG1 VAL A  11      15.221   3.551 -16.163  0.00  0.00    +0.000 C 
ATOM    203  CG2 VAL A  11      15.302   5.419 -14.512  0.00  0.00    +0.000 C 
ENDBRANCH 104 201
ENDBRANCH 100 104
ENDBRANCH  99 102
BRANCH  99 204
ATOM    204  CB  ILE A  12      12.601   8.298 -12.356  0.00  0.00    +0.000 C 
ATOM    205  CG2 ILE A  12      11.920   9.036 -11.203  0.00  0.00    +0.000 C 
BRANCH 204 206
ATOM    206  CG1 ILE A  12      14.121   8.411 -12.203  0.00  0.00    +0.000 C 
ATOM    207  CD1 ILE A  12      14.605   9.697 -12.873  0.00  0.00    +0.000 C 
ENDBRANCH 204 206
ENDBRANCH  99 204
ENDBRANCH  95  99
ENDBRANCH  94  97
BRANCH  94 208
ATOM    208  CB  LEU A  13       8.014   7.357 -14.723  0.00  0.00    +0.000 C 
BRANCH 208 209
ATOM    209  CG  LEU A  13       7.389   8.740 -14.501  0.00  0.00    +0.000 C 
ATOM    210  CD1 LEU A  13       6.125   8.611 -13.646  0.00  0.00    +0.000 C 
ATOM    211  CD2 LEU A  13       8.395   9.653 -13.791  0.00  0.00    +0.000 C 
ENDBRANCH 208 209
ENDBRANCH  94 208
ENDBRANCH  90  94
ENDBRANCH  89  92
BRANCH  89 212
ATOM    212  CB  LEU A  14       9.098   2.375 -15.260  0.00  0.00    +0.000 C 
BRANCH 212 213
ATOM    213  CG  LEU A  14       8.125   2.002 -16.381  0.00  0.00    +0.000 C 
ATOM    214  CD1 LEU A  14       7.431   3.263 -16.896  0.00  0.00    +0.000 C 
ATOM    215  CD2 LEU A  14       8.897   1.344 -17.529  0.00  0.00    +0.000 C 
ENDBRANCH 212 213
ENDBRANCH  89 212
ENDBRANCH  85  89
ENDBRANCH  84  87
BRANCH  84 216
ATOM    216  CB  SER A  15      11.550   2.721 -10.510  0.00  0.00    +0.000 C 
BRANCH 216 217
ATOM    217  OG  SER A  15      11.865   2.156  -9.244  0.00  0.00    +0.000 OA
ATOM    218  HG  SER A  15      12.323   2.821  -8.727  0.00  0.00    +0.000 HD
ENDBRANCH 216 217
ENDBRANCH  84 216
ENDBRANCH  80  84
ENDBRANCH  78  82
ENDBRANCH  74  78
ENDBRANCH  73  76
BRANCH  73 219
ATOM    219  CB  PHE A  17       4.679   3.584 -11.626  0.00  0.00    +0.000 C 
BRANCH 219 220
ATOM    220  CG  PHE A  17       3.926   4.865 -11.903  0.00  0.00    +0.000 A 
ATOM    221  CD1 PHE A  17       4.532   6.101 -11.651  0.00  0.00    +0.000 A 
ATOM    222  CD2 PHE A  17       2.623   4.814 -12.414  0.00  0.00    +0.000 A 
ATOM    223  CE1 PHE A  17       3.834   7.288 -11.910  0.00  0.00    +0.000 A 
ATOM    224  CE2 PHE A  17       1.927   6.000 -12.673  0.00  0.00    +0.000 A 
ATOM    225  CZ  PHE A  17       2.532   7.238 -12.421  0.00  0.00    +0.000 A 
ENDBRANCH 219 220
ENDBRANCH  73 219
ENDBRANCH  69  73
ENDBRANCH  67  71
ENDBRANCH  63  67
ENDBRANCH  62  65
ENDBRANCH  58  62
ENDBRANCH  57  60
BRANCH  57 226
ATOM    226  CB  LEU A  20       3.520   3.647  -6.364  0.00  0.00    +0.000 C 
BRANCH 226 227
ATOM    227  CG  LEU A  20       2.390   4.422  -5.684  0.00  0.00    +0.000 C 
ATOM    228  CD1 LEU A  20       2.808   5.882  -5.514  0.00  0.00    +0.000 C 
ATOM    229  CD2 LEU A  20       1.132   4.351  -6.553  0.00  0.00    +0.000 C 
ENDBRANCH 226 227
ENDBRANCH  57 226
ENDBRANCH  53  57
ENDBRANCH  52  55
BRANCH  52 230
ATOM    230  CB  LEU A  21       2.250  -1.502  -6.787  0.00  0.00    +0.000 C 
BRANCH 230 231
ATOM    231  CG  LEU A  21       1.125  -1.293  -7.803  0.00  0.00    +0.000 C 
ATOM    232  CD1 LEU A  21       1.116   0.166  -8.268  0.00  0.00    +0.000 C 
ATOM    233  CD2 LEU A  21       1.353  -2.208  -9.008  0.00  0.00    +0.000 C 
ENDBRANCH 230 231
ENDBRANCH  52 230
ENDBRANCH  48  52
ENDBRANCH  47  50
BRANCH  47 234
ATOM    234  CB  LEU A  22       5.314  -2.762  -2.818  0.00  0.00    +0.000 C 
BRANCH 234 235
ATOM    235  CG  LEU A  22       5.382  -4.002  -1.923  0.00  0.00    +0.000 C 
ATOM    236  CD1 LEU A  22       4.958  -5.237  -2.723  0.00  0.00    +0.000 C 
ATOM    237  CD2 LEU A  22       6.817  -4.191  -1.427  0.00  0.00    +0.000 C 
ENDBRANCH 234 235
ENDBRANCH  47 234
ENDBRANCH  43  47
ENDBRANCH  42  45
BRANCH  42 238
ATOM    238  CB  LEU A  23       5.135   2.305  -1.410  0.00  0.00    +0.000 C 
BRANCH 238 239
ATOM    239  CG  LEU A  23       5.171   3.476  -0.398  0.00  0.00    +0.000 C 
ATOM    240  CD1 LEU A  23       3.795   4.143  -0.264  0.00  0.00    +0.000 C 
ATOM    241  CD2 LEU A  23       5.635   2.986   0.980  0.00  0.00    +0.000 C 
ENDBRANCH 238 239
ENDBRANCH  42 238
ENDBRANCH  38  42
ENDBRANCH  37  40
BRANCH  37 242
ATOM    242  CB  MET A  24      -0.136   1.744  -2.257  0.00  0.00    +0.000 C 
BRANCH 242 243
ATOM    243  CG  MET A  24      -1.604   1.959  -1.886  0.00  0.00    +0.000 C 
BRANCH 243 244
ATOM    244  SD  MET A  24      -2.266   3.358  -2.823  0.00  0.00    +0.000 S 
ATOM    245  CE  MET A  24      -3.828   2.584  -3.311  0.00  0.00    +0.000 C 
ENDBRANCH 243 244
ENDBRANCH 242 243
ENDBRANCH  37 242
ENDBRANCH  33  37
ENDBRANCH  32  35
BRANCH  32 246
ATOM    246  CB  LEU A  25       0.266  -3.320  -1.139  0.00  0.00    +0.000 C 
BRANCH 246 247
ATOM    247  CG  LEU A  25      -0.927  -3.982  -1.832  0.00  0.00    +0.000 C 
ATOM    248  CD1 LEU A  25      -1.575  -2.986  -2.796  0.00  0.00    +0.000 C 
ATOM    249  CD2 LEU A  25      -0.447  -5.206  -2.614  0.00  0.00    +0.000 C 
ENDBRANCH 246 247
ENDBRANCH  32 246
ENDBRANCH  28  32
ENDBRANCH  27  30
BRANCH  27 250
ATOM    250  CB  LEU A  26       3.327  -1.610   3.002  0.00  0.00    +0.000 C 
BRANCH 250 251
ATOM    251  CG  LEU A  26       3.821  -1.650   4.469  0.00  0.00    +0.000 C 
ATOM    252  CD1 LEU A  26       3.275  -0.464   5.277  0.00  0.00    +0.000 C 
ATOM    253  CD2 LEU A  26       3.384  -2.957   5.140  0.00  0.00    +0.000 C 
ENDBRANCH 250 251
ENDBRANCH  27 250
ENDBRANCH  23  27
ENDBRANCH  22  25
BRANCH  22 254
ATOM    254  CB  ILE A  27       0.059   2.430   3.406  0.00  0.00    +0.000 C 
ATOM    255  CG2 ILE A  27      -1.092   3.299   3.914  0.00  0.00    +0.000 C 
BRANCH 254 256
ATOM    256  CG1 ILE A  27       1.395   3.122   3.698  0.00  0.00    +0.000 C 
ATOM    257  CD1 ILE A  27       1.561   4.343   2.787  0.00  0.00    +0.000 C 
ENDBRANCH 254 256
ENDBRANCH  22 254
ENDBRANCH  18  22
ENDBRANCH  17  20
BRANCH  17 258
ATOM    258  CB  LEU A  28      -3.823  -0.634   1.697  0.00  0.00    +0.000 C 
BRANCH 258 259
ATOM    259  CG  LEU A  28      -4.763   0.503   1.279  0.00  0.00    +0.000 C 
ATOM    260  CD1 LEU A  28      -6.057   0.446   2.098  0.00  0.00    +0.000 C 
ATOM    261  CD2 LEU A  28      -4.070   1.848   1.515  0.00  0.00    +0.000 C 
ENDBRANCH 258 259
ENDBRANCH  17 258
ENDBRANCH  13  17
ENDBRANCH  11  15
ENDBRANCH   7  11
ENDBRANCH   6   9
BRANCH   6 262
ATOM    262  CB  LEU A  30      -0.686  -1.280   8.129  0.00  0.00    +0.000 C 
BRANCH 262 263
ATOM    263  CG  LEU A  30       0.370  -1.687   9.166  0.00  0.00    +0.000 C 
ATOM    264  CD1 LEU A  30      -0.317  -2.173  10.443  0.00  0.00    +0.000 C 
ATOM    265  CD2 LEU A  30       1.247  -2.806   8.595  0.00  0.00    +0.000 C 
ENDBRANCH 262 263
ENDBRANCH   6 262
ENDBRANCH   2   6
ENDBRANCH   1   4
BRANCH   1 266
ATOM    266  C   TRP A  31      -5.900  -1.961   8.159  0.00  0.00    +0.000 C 
ATOM    267  O   TRP A  31      -6.615  -1.988   9.160  0.00  0.00    +0.000 OA
ATOM    268  N   LYS A  32      -5.860  -2.962   7.285  0.00  0.00    +0.000 N 
ATOM    269  H   LYS A  32      -5.275  -2.902   6.507  0.00  0.00    +0.000 HD
BRANCH 268 270
ATOM    270  CA  LYS A  32      -6.677  -4.155   7.485  0.00  0.00    +0.000 C 
BRANCH 270 271
ATOM    271  C   LYS A  32      -6.291  -4.823   8.804  0.00  0.00    +0.000 C 
ATOM    272  O   LYS A  32      -7.149  -5.236   9.584  0.00  0.00    +0.000 OA
ATOM    273  N   ILE A  33      -4.986  -4.905   9.042  0.00  0.00    +0.000 N 
ATOM    274  H   ILE A  33      -4.370  -4.544   8.372  0.00  0.00    +0.000 HD
BRANCH 273 275
ATOM    275  CA  ILE A  33      -4.477  -5.505  10.271  0.00  0.00    +0.000 C 
BRANCH 275 276
ATOM    276  C   ILE A  33      -4.611  -4.517  11.424  0.00  0.00    +0.000 C 
ATOM    277  O   ILE A  33      -4.424  -4.871  12.588  0.00  0.00    +0.000 OA
ATOM    278  N   GLY A  34      -4.945  -3.273  11.091  0.00  0.00    +0.000 N 
ATOM    279  H   GLY A  34      -5.086  -3.051  10.146  0.00  0.00    +0.000 HD
BRANCH 278 280
ATOM    280  CA  GLY A  34      -5.111  -2.235  12.101  0.00  0.00    +0.000 C 
BRANCH 280 281
ATOM    281  C   GLY A  34      -6.579  -2.065  12.458  0.00  0.00    +0.000 C 
ATOM    282  O   GLY A  34      -7.004  -2.397  13.562  0.00  0.00    +0.000 OA
ATOM    283  N   PHE A  35      -7.356  -1.553  11.515  0.00  0.00    +0.000 N 
ATOM    284  H   PHE A  35      -6.970  -1.309  10.648  0.00  0.00    +0.000 HD
BRANCH 283 285
ATOM    285  CA  PHE A  35      -8.779  -1.361  11.747  0.00  0.00    +0.000 C 
BRANCH 285 286
ATOM    286  C   PHE A  35      -9.354  -2.593  12.436  0.00  0.00    +0.000 C 
ATOM    287  O   PHE A  35     -10.051  -2.487  13.445  0.00  0.00    +0.000 OA
ATOM    288  N   PHE A  36      -9.062  -3.762  11.871  0.00  0.00    +0.000 N 
ATOM    289  H   PHE A  36      -8.512  -3.775  11.055  0.00  0.00    +0.000 HD
BRANCH 288 290
ATOM    290  CA  PHE A  36      -9.562  -5.015  12.430  0.00  0.00    +0.000 C 
BRANCH 290 291
ATOM    291  C   PHE A  36      -9.193  -5.139  13.908  0.00  0.00    +0.000 C 
ATOM    292  O   PHE A  36      -9.887  -5.808  14.674  0.00  0.00    +0.000 OA
ATOM    293  N   LYS A  37      -8.099  -4.494  14.302  0.00  0.00    +0.000 N 
ATOM    294  H   LYS A  37      -7.591  -3.974  13.644  0.00  0.00    +0.000 HD
BRANCH 293 295
ATOM    295  CA  LYS A  37      -7.657  -4.545  15.694  0.00  0.00    +0.000 C 
BRANCH 295 296
ATOM    296  C   LYS A  37      -8.336  -3.442  16.507  0.00  0.00    +0.000 C 
ATOM    297  O   LYS A  37      -7.774  -2.927  17.474  0.00  0.00    +0.000 OA
ATOM    298  N   ARG A  38      -9.555  -3.086  16.109  0.00  0.00    +0.000 N 
ATOM    299  H   ARG A  38      -9.958  -3.528  15.333  0.00  0.00    +0.000 HD
BRANCH 298 300
ATOM    300  CA  ARG A  38     -10.299  -2.045  16.811  0.00  0.00    +0.000 C 
BRANCH 300 301
ATOM    301  C   ARG A  38     -11.803  -2.200  16.581  0.00  0.00    +0.000 C 
ATOM    302  O   ARG A  38     -12.402  -1.453  15.807  0.00  0.00    +0.000 OA
ATOM    303  N   PRO A  39     -12.419  -3.147  17.242  0.00  0.00    +0.000 N 
ATOM    304  CA  PRO A  39     -13.888  -3.402  17.116  0.00  0.00    +0.000 C 
ATOM    305  CB  PRO A  39     -14.172  -4.471  18.177  0.00  0.00    +0.000 C 
ATOM    306  CG  PRO A  39     -12.858  -5.127  18.450  0.00  0.00    +0.000 C 
ATOM    307  CD  PRO A  39     -11.779  -4.079  18.182  0.00  0.00    +0.000 C 
BRANCH 304 308
ATOM    308  C   PRO A  39     -14.709  -2.143  17.383  0.00  0.00    +0.000 C 
ATOM    309  O   PRO A  39     -14.384  -1.358  18.274  0.00  0.00    +0.000 OA
ATOM    310  N   LEU A  40     -15.770  -1.949  16.603  0.00  0.00    +0.000 N 
ATOM    311  H   LEU A  40     -15.980  -2.598  15.904  0.00  0.00    +0.000 HD
BRANCH 310 312
ATOM    312  CA  LEU A  40     -16.615  -0.770  16.769  0.00  0.00    +0.000 C 
BRANCH 312 313
ATOM    313  C   LEU A  40     -17.506  -0.896  18.002  0.00  0.00    +0.000 C 
ATOM    314  O   LEU A  40     -17.909  -1.997  18.374  0.00  0.00    +0.000 OA
ATOM    315  N   LYS A  41     -17.782   0.257  18.622  0.00  0.00    +0.000 N 
ATOM    316  H   LYS A  41     -17.398   1.084  18.259  0.00  0.00    +0.000 HD
BRANCH 315 317
ATOM    317  CA  LYS A  41     -18.615   0.355  19.832  0.00  0.00    +0.000 C 
BRANCH 317 318
ATOM    318  C   LYS A  41     -19.275  -0.969  20.211  0.00  0.00    +0.000 C 
ATOM    319  O   LYS A  41     -20.325  -1.330  19.678  0.00  0.00    +0.000 OA
ATOM    320  N   LYS A  42     -18.653  -1.681  21.146  0.00  0.00    +0.000 N 
ATOM    321  H   LYS A  42     -17.823  -1.334  21.531  0.00  0.00    +0.000 HD
BRANCH 320 322
ATOM    322  CA  LYS A  42     -19.192  -2.958  21.603  0.00  0.00    +0.000 C 
BRANCH 322 323
ATOM    323  C   LYS A  42     -20.699  -2.844  21.804  0.00  0.00    +0.000 C 
ATOM    324  O   LYS A  42     -21.250  -1.744  21.813  0.00  0.00    +0.000 OA
ATOM    325  N   LYS A  43     -21.363  -3.983  21.972  0.00  0.00    +0.000 N 
ATOM    326  H   LYS A  43     -20.877  -4.833  21.962  0.00  0.00    +0.000 HD
BRANCH 325 327
ATOM    327  CA  LYS A  43     -22.808  -3.982  22.175  0.00  0.00    +0.000 C 
BRANCH 327 328
ATOM    328  C   LYS A  43     -23.142  -3.658  23.628  0.00  0.00    +0.000 C 
ATOM    329  O   LYS A  43     -22.246  -3.431  24.443  0.00  0.00    +0.000 OA
ATOM    330  N   MET A  44     -24.434  -3.637  23.943  0.00  0.00    +0.000 N 
ATOM    331  H   MET A  44     -25.101  -3.825  23.248  0.00  0.00    +0.000 HD
BRANCH 330 332
ATOM    332  CA  MET A  44     -24.880  -3.340  25.301  0.00  0.00    +0.000 C 
BRANCH 332 333
ATOM    333  C   MET A  44     -25.843  -4.413  25.795  0.00  0.00    +0.000 C 
ATOM    334  O   MET A  44     -25.523  -5.601  25.785  0.00  0.00    +0.000 OA
ATOM    335  N   GLU A  45     -27.024  -3.986  26.230  0.00  0.00    +0.000 N 
ATOM    336  H   GLU A  45     -27.224  -3.027  26.216  0.00  0.00    +0.000 HD
BRANCH 335 337
ATOM    337  CA  GLU A  45     -28.029  -4.919  26.729  0.00  0.00    +0.000 C 
BRANCH 337 338
ATOM    338  C   GLU A  45     -27.481  -5.716  27.909  0.00  0.00    +0.000 C 
ATOM    339  O   GLU A  45     -28.101  -6.679  28.362  0.00  0.00    +0.000 OA
ATOM    340  N   LYS A  46     -26.317  -5.309  28.403  0.00  0.00    +0.000 N 
ATOM    341  H   LYS A  46     -25.868  -4.536  28.001  0.00  0.00    +0.000 HD
BRANCH 340 342
ATOM    342  CA  LYS A  46     -25.698  -5.994  29.530  0.00  0.00    +0.000 C 
BRANCH 342 343
ATOM    343  C   LYS A  46     -25.028  -7.285  29.069  0.00  0.00    +0.000 C 
ATOM    344  O   LYS A  46     -23.823  -7.393  29.224  0.00  0.00    +0.000 OA
BRANCH 343 345
ATOM    345  N   LEU A  47     -24.975  -8.085  30.614  0.00  0.00    +0.000 NA
ATOM    346  H   LEU A  47     -24.788  -9.125  30.061  0.00  0.00    +0.000 HD
BRANCH 345 347
ATOM    347  CA  LEU A  47     -25.215  -8.399  32.409  0.00  0.00    +0.000 C 
BRANCH 347 348
ATOM    348  C   LEU A  47     -25.212  -9.441  33.969  0.00  0.00    +0.000 C 
ATOM    349  O   LEU A  47     -25.199 -10.617  33.581  0.00  0.00    +0.000 OA
BRANCH 348 350
ATOM    350  NZ  LYS A  46     -25.599  -8.103  34.439  0.00  0.00    +0.000 N 
ATOM    351  HZ1 LYS A  46     -26.081  -8.815  35.021  0.00  0.00    +0.000 HD
ATOM    352  HZ2 LYS A  46     -24.671  -7.882  34.857  0.00  0.00    +0.000 HD
ATOM    353  HZ3 LYS A  46     -25.467  -8.475  33.477  0.00  0.00    +0.000 HD
ENDBRANCH 348 350
BRANCH 348 354
ATOM    354  N   GLU A  48     -25.386  -9.566  35.639  0.00  0.00    +0.000 NA
ATOM    355  H   GLU A  48     -25.640  -8.852  36.579  0.00  0.00    +0.000 HD
BRANCH 354 356
ATOM    356  CA  GLU A  48     -25.127 -10.325  37.248  0.00  0.00    +0.000 C 
BRANCH 356 357
ATOM    357  C   GLU A  48     -25.327  -9.999  39.012  0.00  0.00    +0.000 C 
ATOM    358  O   GLU A  48     -24.447  -9.137  39.068  0.00  0.00    +0.000 OA
BRANCH 357 359
ATOM    359  N   HIS A  49     -25.306 -10.550  40.541  0.00  0.00    +0.000 NA
ATOM    360  H   HIS A  49     -24.163 -10.870  40.584  0.00  0.00    +0.000 HD
BRANCH 359 361
ATOM    361  CA  HIS A  49     -25.258 -10.335  42.253  0.00  0.00    +0.000 C 
BRANCH 361 362
ATOM    362  C   HIS A  49     -24.938 -11.138  43.810  0.00  0.00    +0.000 C 
ATOM    363  O   HIS A  49     -24.064 -11.986  43.655  0.00  0.00    +0.000 OA
ATOM    364  N   HIS A  50     -24.844 -10.987  45.375  0.00  0.00    +0.000 N 
ATOM    365  H   HIS A  50     -24.037 -10.118  45.431  0.00  0.00    +0.000 HD
BRANCH 364 366
ATOM    366  CA  HIS A  50     -24.994 -11.307  47.029  0.00  0.00    +0.000 C 
BRANCH 366 367
ATOM    367  C   HIS A  50     -24.211 -12.005  48.388  0.00  0.00    +0.000 C 
ATOM    368  O   HIS A  50     -23.076 -11.548  48.399  0.00  0.00    +0.000 OA
ATOM    369  N   HIS A  51     -24.453 -12.654  49.744  0.00  0.00    +0.000 N 
ATOM    370  H   HIS A  51     -24.690 -11.723  50.436  0.00  0.00    +0.000 HD
BRANCH 369 371
ATOM    371  CA  HIS A  51     -24.317 -13.961  50.720  0.00  0.00    +0.000 C 
BRANCH 371 372
ATOM    372  C   HIS A  51     -24.464 -14.710  52.243  0.00  0.00    +0.000 C 
ATOM    373  O   HIS A  51     -24.040 -15.877  52.121  0.00  0.00    +0.000 OA
ATOM    374  N   HIS A  52     -24.808 -14.539  53.697  0.00  0.00    +0.000 N 
ATOM    375  H   HIS A  52     -25.913 -14.119  53.556  0.00  0.00    +0.000 HD
BRANCH 374 376
ATOM    376  CA  HIS A  52     -24.612 -15.428  55.032  0.00  0.00    +0.000 C 
BRANCH 376 377
ATOM    377  C   HIS A  52     -24.544 -15.029  56.635  0.00  0.00    +0.000 C 
ATOM    378  O   HIS A  52     -23.969 -13.938  56.747  0.00  0.00    +0.000 OA
ATOM    379  N   HIS A  53     -24.430 -15.818  57.840  0.00  0.00    +0.000 N 
ATOM    380  H   HIS A  53     -25.453 -16.327  58.160  0.00  0.00    +0.000 HD
BRANCH 379 381
ATOM    381  CA  HIS A  53     -23.427 -15.956  58.963  0.00  0.00    +0.000 C 
BRANCH 381 382
ATOM    382  C   HIS A  53     -23.313 -16.999  60.135  0.00  0.00    +0.000 C 
ATOM    383  O   HIS A  53     -22.195 -17.037  60.635  0.00  0.00    +0.000 OA
ATOM    384  N   HIS A  54     -23.971 -18.059  60.664  0.00  0.00    +0.000 N 
ATOM    385  H   HIS A  54     -23.893 -18.958  59.887  0.00  0.00    +0.000 HD
BRANCH 384 386
ATOM    386  CA  HIS A  54     -24.596 -18.218  62.001  0.00  0.00    +0.000 C 
BRANCH 386 387
ATOM    387  C   HIS A  54     -25.894 -17.533  62.433  0.00  0.00    +0.000 C 
ATOM    388  O   HIS A  54     -26.205 -17.340  63.616  0.00  0.00    +0.000 OA
ATOM    389  OXT HIS A  54     -26.815 -17.560  61.620  0.00  0.00    +0.000 OA
ENDBRANCH 386 387
BRANCH 386 390
ATOM    390  CB  HIS A  54     -23.715 -18.813  63.111  0.00  0.00    +0.000 C 
BRANCH 390 391
ATOM    391  CG  HIS A  54     -24.207 -19.859  64.102  0.00  0.00    +0.000 C 
ATOM    392  ND1 HIS A  54     -23.358 -20.320  65.064  0.00  0.00    +0.000 NA
ATOM    393  HD1 HIS A  54     -22.608 -19.762  65.797  0.00  0.00    +0.000 HD
ATOM    394  CE1 HIS A  54     -23.706 -21.600  65.366  0.00  0.00    +0.000 C 
ATOM    395  NE2 HIS A  54     -24.965 -21.843  64.989  0.00  0.00    +0.000 NA
ATOM    396  CD2 HIS A  54     -25.325 -20.666  64.301  0.00  0.00    +0.000 C 
ENDBRANCH 390 391
ENDBRANCH 386 390
ENDBRANCH 384 386
ENDBRANCH 381 382
BRANCH 381 397
ATOM    397  CB  HIS A  53     -23.742 -15.090  60.207  0.00  0.00    +0.000 C 
BRANCH 397 398
ATOM    398  CG  HIS A  53     -24.300 -13.784  60.748  0.00  0.00    +0.000 C 
ATOM    399  ND1 HIS A  53     -24.554 -13.787  62.104  0.00  0.00    +0.000 NA
ATOM    400  HD1 HIS A  53     -24.353 -14.451  63.068  0.00  0.00    +0.000 HD
ATOM    401  CE1 HIS A  53     -24.865 -12.542  62.454  0.00  0.00    +0.000 C 
ATOM    402  NE2 HIS A  53     -24.633 -11.721  61.423  0.00  0.00    +0.000 NA
ATOM    403  CD2 HIS A  53     -24.589 -12.519  60.264  0.00  0.00    +0.000 C 
ENDBRANCH 397 398
ENDBRANCH 381 397
ENDBRANCH 379 381
ENDBRANCH 376 377
BRANCH 376 404
ATOM    404  CB  HIS A  52     -25.926 -16.260  55.148  0.00  0.00    +0.000 C 
BRANCH 404 405
ATOM    405  CG  HIS A  52     -27.416 -15.889  55.221  0.00  0.00    +0.000 C 
ATOM    406  ND1 HIS A  52     -28.102 -15.022  56.066  0.00  0.00    +0.000 NA
ATOM    407  HD1 HIS A  52     -27.866 -14.045  56.698  0.00  0.00    +0.000 HD
ATOM    408  CE1 HIS A  52     -29.417 -15.331  56.031  0.00  0.00    +0.000 C 
ATOM    409  NE2 HIS A  52     -29.649 -16.219  55.059  0.00  0.00    +0.000 NA
ATOM    410  CD2 HIS A  52     -28.407 -16.509  54.485  0.00  0.00    +0.000 C 
ENDBRANCH 404 405
ENDBRANCH 376 404
ENDBRANCH 374 376
ENDBRANCH 371 372
BRANCH 371 411
ATOM    411  CB  HIS A  51     -23.038 -13.607  51.511  0.00  0.00    +0.000 C 
BRANCH 411 412
ATOM    412  CG  HIS A  51     -23.288 -12.835  52.790  0.00  0.00    +0.000 C 
ATOM    413  ND1 HIS A  51     -23.243 -13.427  54.020  0.00  0.00    +0.000 NA
ATOM    414  HD1 HIS A  51     -22.154 -13.635  54.456  0.00  0.00    +0.000 HD
ATOM    415  CE1 HIS A  51     -24.198 -12.732  54.655  0.00  0.00    +0.000 C 
ATOM    416  NE2 HIS A  51     -24.370 -11.521  54.139  0.00  0.00    +0.000 NA
ATOM    417  CD2 HIS A  51     -23.651 -11.514  52.949  0.00  0.00    +0.000 C 
ENDBRANCH 411 412
ENDBRANCH 371 411
ENDBRANCH 369 371
ENDBRANCH 366 367
BRANCH 366 418
ATOM    418  CB  HIS A  50     -25.970 -10.271  47.676  0.00  0.00    +0.000 C 
BRANCH 418 419
ATOM    419  CG  HIS A  50     -26.688 -10.587  49.021  0.00  0.00    +0.000 A 
ATOM    420  ND1 HIS A  50     -26.906  -9.803  50.174  0.00  0.00    +0.000 N 
ATOM    421  HD1 HIS A  50     -26.626  -8.672  50.401  0.00  0.00    +0.000 HD
ATOM    422  CE1 HIS A  50     -27.696 -10.494  51.023  0.00  0.00    +0.000 A 
ATOM    423  NE2 HIS A  50     -28.009 -11.683  50.508  0.00  0.00    +0.000 NA
ATOM    424  CD2 HIS A  50     -27.300 -11.801  49.307  0.00  0.00    +0.000 A 
ENDBRANCH 418 419
ENDBRANCH 366 418
ENDBRANCH 364 366
ENDBRANCH 361 362
BRANCH 361 425
ATOM    425  CB  HIS A  49     -26.804 -10.218  42.533  0.00  0.00    +0.000 C 
BRANCH 425 426
ATOM    426  CG  HIS A  49     -27.678 -11.100  43.473  0.00  0.00    +0.000 C 
ATOM    427  ND1 HIS A  49     -28.817 -10.732  44.213  0.00  0.00    +0.000 NA
ATOM    428  HD1 HIS A  49     -29.572  -9.824  44.098  0.00  0.00    +0.000 HD
ATOM    429  CE1 HIS A  49     -29.021 -11.689  45.149  0.00  0.00    +0.000 C 
ATOM    430  NE2 HIS A  49     -28.354 -12.798  44.816  0.00  0.00    +0.000 NA
ATOM    431  CD2 HIS A  49     -27.475 -12.438  43.786  0.00  0.00    +0.000 C 
ENDBRANCH 425 426
ENDBRANCH 361 425
ENDBRANCH 359 361
ENDBRANCH 357 359
ENDBRANCH 356 357
BRANCH 356 432
ATOM    432  CB  GLU A  48     -26.212 -11.395  37.674  0.00  0.00    +0.000 C 
BRANCH 432 433
ATOM    433  CG  GLU A  48     -25.661 -12.697  38.406  0.00  0.00    +0.000 C 
BRANCH 433 434
ATOM    434  CD  GLU A  48     -25.864 -13.222  39.876  0.00  0.00    +0.000 C 
ATOM    435  OE1 GLU A  48     -26.716 -14.113  40.148  0.00  0.00    +0.000 OA
ATOM    436  OE2 GLU A  48     -24.890 -13.122  40.667  0.00  0.00    +0.000 OA
ENDBRANCH 433 434
ENDBRANCH 432 433
ENDBRANCH 356 432
ENDBRANCH 354 356
ENDBRANCH 348 354
ENDBRANCH 347 348
BRANCH 347 437
ATOM    437  CB  LEU A  47     -23.897  -7.873  32.979  0.00  0.00    +0.000 C 
BRANCH 437 438
ATOM    438  CG  LEU A  47     -23.236  -8.637  34.140  0.00  0.00    +0.000 C 
ATOM    439  CD1 LEU A  47     -22.001  -7.978  34.731  0.00  0.00    +0.000 C 
ATOM    440  CD2 LEU A  47     -23.211 -10.162  34.188  0.00  0.00    +0.000 C 
ENDBRANCH 437 438
ENDBRANCH 347 437
ENDBRANCH 345 347
ENDBRANCH 343 345
ENDBRANCH 342 343
BRANCH 342 441
ATOM    441  CB  LYS A  46     -26.753  -6.315  30.591  0.00  0.00    +0.000 C 
BRANCH 441 442
ATOM    442  CG  LYS A  46     -26.123  -6.231  31.983  0.00  0.00    +0.000 C 
BRANCH 442 443
ATOM    443  CD  LYS A  46     -27.113  -6.767  33.020  0.00  0.00    +0.000 C 
ATOM    444  CE  LYS A  46     -26.425  -6.863  34.384  0.00  0.00    +0.000 C 
ENDBRANCH 442 443
ENDBRANCH 441 442
ENDBRANCH 342 441
ENDBRANCH 340 342
ENDBRANCH 337 338
BRANCH 337 445
ATOM    445  CB  GLU A  45     -28.449  -5.880  25.615  0.00  0.00    +0.000 C 
BRANCH 445 446
ATOM    446  CG  GLU A  45     -29.869  -6.382  25.884  0.00  0.00    +0.000 C 
BRANCH 446 447
ATOM    447  CD  GLU A  45     -30.882  -5.299  25.529  0.00  0.00    +0.000 C 
ATOM    448  OE1 GLU A  45     -31.172  -4.483  26.388  0.00  0.00    +0.000 OA
ATOM    449  OE2 GLU A  45     -31.352  -5.301  24.403  0.00  0.00    +0.000 OA
ENDBRANCH 446 447
ENDBRANCH 445 446
ENDBRANCH 337 445
ENDBRANCH 335 337
ENDBRANCH 332 333
BRANCH 332 450
ATOM    450  CB  MET A  44     -25.570  -1.974  25.336  0.00  0.00    +0.000 C 
BRANCH 450 451
ATOM    451  CG  MET A  44     -24.584  -0.891  24.894  0.00  0.00    +0.000 C 
BRANCH 451 452
ATOM    452  SD  MET A  44     -25.240   0.738  25.330  0.00  0.00    +0.000 S 
ATOM    453  CE  MET A  44     -23.831   1.715  24.750  0.00  0.00    +0.000 C 
ENDBRANCH 451 452
ENDBRANCH 450 451
ENDBRANCH 332 450
ENDBRANCH 330 332
ENDBRANCH 327 328
BRANCH 327 454
ATOM    454  CB  LYS A  43     -23.397  -5.343  21.798  0.00  0.00    +0.000 C 
BRANCH 454 455
ATOM    455  CG  LYS A  43     -22.953  -6.398  22.815  0.00  0.00    +0.000 C 
BRANCH 455 456
ATOM    456  CD  LYS A  43     -23.298  -7.791  22.284  0.00  0.00    +0.000 C 
BRANCH 456 457
ATOM    457  CE  LYS A  43     -24.802  -7.878  22.022  0.00  0.00    +0.000 C 
BRANCH 457 458
ATOM    458  NZ  LYS A  43     -25.252  -9.290  22.171  0.00  0.00    +0.000 N 
ATOM    459  HZ1 LYS A  43     -24.559  -9.925  21.725  0.00  0.00    +0.000 HD
ATOM    460  HZ2 LYS A  43     -26.178  -9.409  21.711  0.00  0.00    +0.000 HD
ATOM    461  HZ3 LYS A  43     -25.333  -9.524  23.180  0.00  0.00    +0.000 HD
ENDBRANCH 457 458
ENDBRANCH 456 457
ENDBRANCH 455 456
ENDBRANCH 454 455
ENDBRANCH 327 454
ENDBRANCH 325 327
ENDBRANCH 322 323
BRANCH 322 462
ATOM    462  CB  LYS A  42     -18.529  -3.366  22.922  0.00  0.00    +0.000 C 
BRANCH 462 463
ATOM    463  CG  LYS A  42     -18.628  -2.215  23.926  0.00  0.00    +0.000 C 
BRANCH 463 464
ATOM    464  CD  LYS A  42     -18.186  -2.699  25.308  0.00  0.00    +0.000 C 
BRANCH 464 465
ATOM    465  CE  LYS A  42     -19.410  -3.167  26.099  0.00  0.00    +0.000 C 
BRANCH 465 466
ATOM    466  NZ  LYS A  42     -18.965  -3.991  27.258  0.00  0.00    +0.000 N 
ATOM    467  HZ1 LYS A  42     -19.795  -4.379  27.747  0.00  0.00    +0.000 HD
ATOM    468  HZ2 LYS A  42     -18.420  -3.396  27.917  0.00  0.00    +0.000 HD
ATOM    469  HZ3 LYS A  42     -18.367  -4.772  26.921  0.00  0.00    +0.000 HD
ENDBRANCH 465 466
ENDBRANCH 464 465
ENDBRANCH 463 464
ENDBRANCH 462 463
ENDBRANCH 322 462
ENDBRANCH 320 322
ENDBRANCH 317 318
BRANCH 317 470
ATOM    470  CB  LYS A  41     -19.702   1.412  19.619  0.00  0.00    +0.000 C 
BRANCH 470 471
ATOM    471  CG  LYS A  41     -19.184   2.789  20.048  0.00  0.00    +0.000 C 
BRANCH 471 472
ATOM    472  CD  LYS A  41     -17.950   3.157  19.220  0.00  0.00    +0.000 C 
BRANCH 472 473
ATOM    473  CE  LYS A  41     -17.549   4.602  19.522  0.00  0.00    +0.000 C 
BRANCH 473 474
ATOM    474  NZ  LYS A  41     -18.057   5.496  18.444  0.00  0.00    +0.000 N 
ATOM    475  HZ1 LYS A  41     -17.603   6.428  18.524  0.00  0.00    +0.000 HD
ATOM    476  HZ2 LYS A  41     -19.087   5.603  18.539  0.00  0.00    +0.000 HD
ATOM    477  HZ3 LYS A  41     -17.833   5.084  17.516  0.00  0.00    +0.000 HD
ENDBRANCH 473 474
ENDBRANCH 472 473
ENDBRANCH 471 472
ENDBRANCH 470 471
ENDBRANCH 317 470
ENDBRANCH 315 317
ENDBRANCH 312 313
BRANCH 312 478
ATOM    478  CB  LEU A  40     -17.488  -0.536  15.526  0.00  0.00    +0.000 C 
BRANCH 478 479
ATOM    479  CG  LEU A  40     -17.811  -1.863  14.824  0.00  0.00    +0.000 C 
ATOM    480  CD1 LEU A  40     -18.495  -2.818  15.803  0.00  0.00    +0.000 C 
ATOM    481  CD2 LEU A  40     -18.752  -1.592  13.648  0.00  0.00    +0.000 C 
ENDBRANCH 478 479
ENDBRANCH 312 478
ENDBRANCH 310 312
ENDBRANCH 304 308
ENDBRANCH 300 301
BRANCH 300 482
ATOM    482  CB  ARG A  38      -9.848  -0.667  16.324  0.00  0.00    +0.000 C 
BRANCH 482 483
ATOM    483  CG  ARG A  38     -10.475   0.416  17.202  0.00  0.00    +0.000 C 
BRANCH 483 484
ATOM    484  CD  ARG A  38      -9.879   1.779  16.842  0.00  0.00    +0.000 C 
BRANCH 484 485
ATOM    485  NE  ARG A  38     -10.939   2.715  16.485  0.00  0.00    +0.000 N 
ATOM    486  CZ  ARG A  38     -11.471   2.718  15.268  0.00  0.00    +0.000 C 
ATOM    487  NH1 ARG A  38     -11.048   1.871  14.370  0.00  0.00    +0.000 N 
ATOM    488  NH2 ARG A  38     -12.416   3.568  14.970  0.00  0.00    +0.000 N 
ATOM    489  HE  ARG A  38     -11.263   3.354  17.155  0.00  0.00    +0.000 HD
ATOM    490 HH11 ARG A  38     -10.324   1.220  14.597  0.00  0.00    +0.000 HD
ATOM    491 HH12 ARG A  38     -11.448   1.874  13.453  0.00  0.00    +0.000 HD
ATOM    492 HH21 ARG A  38     -12.739   4.217  15.659  0.00  0.00    +0.000 HD
ATOM    493 HH22 ARG A  38     -12.815   3.570  14.054  0.00  0.00    +0.000 HD
ENDBRANCH 484 485
ENDBRANCH 483 484
ENDBRANCH 482 483
ENDBRANCH 300 482
ENDBRANCH 298 300
ENDBRANCH 295 296
BRANCH 295 494
ATOM    494  CB  LYS A  37      -6.128  -4.401  15.773  0.00  0.00    +0.000 C 
BRANCH 494 495
ATOM    495  CG  LYS A  37      -5.470  -5.779  15.646  0.00  0.00    +0.000 C 
BRANCH 495 496
ATOM    496  CD  LYS A  37      -5.317  -6.407  17.033  0.00  0.00    +0.000 C 
BRANCH 496 497
ATOM    497  CE  LYS A  37      -3.978  -5.980  17.638  0.00  0.00    +0.000 C 
BRANCH 497 498
ATOM    498  NZ  LYS A  37      -3.897  -6.453  19.048  0.00  0.00    +0.000 N 
ATOM    499  HZ1 LYS A  37      -3.442  -7.387  19.075  0.00  0.00    +0.000 HD
ATOM    500  HZ2 LYS A  37      -4.856  -6.521  19.445  0.00  0.00    +0.000 HD
ATOM    501  HZ3 LYS A  37      -3.335  -5.781  19.607  0.00  0.00    +0.000 HD
ENDBRANCH 497 498
ENDBRANCH 496 497
ENDBRANCH 495 496
ENDBRANCH 494 495
ENDBRANCH 295 494
ENDBRANCH 293 295
ENDBRANCH 290 291
BRANCH 290 502
ATOM    502  CB  PHE A  36      -8.990  -6.207  11.655  0.00  0.00    +0.000 C 
BRANCH 502 503
ATOM    503  CG  PHE A  36      -9.396  -7.488  12.347  0.00  0.00    +0.000 A 
ATOM    504  CD1 PHE A  36      -8.682  -7.926  13.469  0.00  0.00    +0.000 A 
ATOM    505  CD2 PHE A  36     -10.488  -8.227  11.879  0.00  0.00    +0.000 A 
ATOM    506  CE1 PHE A  36      -9.062  -9.105  14.122  0.00  0.00    +0.000 A 
ATOM    507  CE2 PHE A  36     -10.868  -9.405  12.532  0.00  0.00    +0.000 A 
ATOM    508  CZ  PHE A  36     -10.155  -9.844  13.654  0.00  0.00    +0.000 A 
ENDBRANCH 502 503
ENDBRANCH 290 502
ENDBRANCH 288 290
ENDBRANCH 285 286
BRANCH 285 509
ATOM    509  CB  PHE A  35      -9.493  -1.133  10.414  0.00  0.00    +0.000 C 
BRANCH 509 510
ATOM    510  CG  PHE A  35     -10.906  -0.666  10.662  0.00  0.00    +0.000 A 
ATOM    511  CD1 PHE A  35     -11.143   0.635  11.120  0.00  0.00    +0.000 A 
ATOM    512  CD2 PHE A  35     -11.981  -1.530  10.422  0.00  0.00    +0.000 A 
ATOM    513  CE1 PHE A  35     -12.455   1.073  11.339  0.00  0.00    +0.000 A 
ATOM    514  CE2 PHE A  35     -13.293  -1.093  10.641  0.00  0.00    +0.000 A 
ATOM    515  CZ  PHE A  35     -13.530   0.209  11.099  0.00  0.00    +0.000 A 
ENDBRANCH 509 510
ENDBRANCH 285 509
ENDBRANCH 283 285
ENDBRANCH 280 281
ENDBRANCH 278 280
ENDBRANCH 275 276
BRANCH 275 516
ATOM    516  CB  ILE A  33      -3.005  -5.907  10.103  0.00  0.00    +0.000 C 
ATOM    517  CG2 ILE A  33      -2.554  -6.733  11.312  0.00  0.00    +0.000 C 
BRANCH 516 518
ATOM    518  CG1 ILE A  33      -2.828  -6.737   8.823  0.00  0.00    +0.000 C 
ATOM    519  CD1 ILE A  33      -3.840  -7.886   8.790  0.00  0.00    +0.000 C 
ENDBRANCH 516 518
ENDBRANCH 275 516
ENDBRANCH 273 275
ENDBRANCH 270 271
BRANCH 270 520
ATOM    520  CB  LYS A  32      -6.471  -5.139   6.330  0.00  0.00    +0.000 C 
BRANCH 520 521
ATOM    521  CG  LYS A  32      -7.490  -4.857   5.223  0.00  0.00    +0.000 C 
BRANCH 521 522
ATOM    522  CD  LYS A  32      -7.306  -3.427   4.709  0.00  0.00    +0.000 C 
BRANCH 522 523
ATOM    523  CE  LYS A  32      -7.810  -3.330   3.268  0.00  0.00    +0.000 C 
BRANCH 523 524
ATOM    524  NZ  LYS A  32      -6.716  -3.718   2.333  0.00  0.00    +0.000 N 
ATOM    525  HZ1 LYS A  32      -6.796  -4.729   2.106  0.00  0.00    +0.000 HD
ATOM    526  HZ2 LYS A  32      -5.795  -3.534   2.781  0.00  0.00    +0.000 HD
ATOM    527  HZ3 LYS A  32      -6.793  -3.163   1.458  0.00  0.00    +0.000 HD
ENDBRANCH 523 524
ENDBRANCH 522 523
ENDBRANCH 521 522
ENDBRANCH 520 521
ENDBRANCH 270 520
ENDBRANCH 268 270
ENDBRANCH   1 266
BRANCH   1 528
ATOM    528  CB  TRP A  31      -5.584   0.090   6.760  0.00  0.00    +0.000 C 
BRANCH 528 529
ATOM    529  CG  TRP A  31      -6.776   0.832   7.276  0.00  0.00    +0.000 A 
ATOM    530  CD1 TRP A  31      -8.011   0.301   7.434  0.00  0.00    +0.000 A 
ATOM    531  CD2 TRP A  31      -6.868   2.218   7.713  0.00  0.00    +0.000 A 
ATOM    532  NE1 TRP A  31      -8.855   1.274   7.939  0.00  0.00    +0.000 N 
ATOM    533  CE2 TRP A  31      -8.196   2.474   8.127  0.00  0.00    +0.000 A 
ATOM    534  CE3 TRP A  31      -5.936   3.270   7.788  0.00  0.00    +0.000 A 
ATOM    535  CZ2 TRP A  31      -8.587   3.727   8.600  0.00  0.00    +0.000 A 
ATOM    536  CZ3 TRP A  31      -6.326   4.533   8.263  0.00  0.00    +0.000 A 
ATOM    537  CH2 TRP A  31      -7.649   4.760   8.667  0.00  0.00    +0.000 A 
ATOM    538  HE1 TRP A  31      -9.805   1.148   8.144  0.00  0.00    +0.000 HD
ENDBRANCH 528 529
ENDBRANCH   1 528
TORSDOF 220
