REMARK  Name = /Users/acegid/Desktop/Smoking_Research/Docking/Docking_All_PDB/All_PDB/2M20_H.pdb
REMARK  588 active torsions:
REMARK  status: ('A' for Active; 'I' for Inactive)
REMARK    1  A    between atoms: N_1  and  CA_2
REMARK    2  A    between atoms: CA_2  and  C_3
REMARK    3  A    between atoms: CA_2  and  CB_5
REMARK    4  A    between atoms: CB_5  and  CG_6
REMARK    5  A    between atoms: CG_6  and  CD_7
REMARK    6  A    between atoms: CD_7  and  CE_8
REMARK    7  A    between atoms: CE_8  and  NZ_9
REMARK    8  A    between atoms: N_25  and  CA_26
REMARK    9  A    between atoms: CA_26  and  C_27
REMARK   10  A    between atoms: CA_26  and  CB_29
REMARK   11  A    between atoms: CB_29  and  CG1_30
REMARK   12  A    between atoms: CB_29  and  CG2_31
REMARK   13  A    between atoms: CG1_30  and  CD1_32
REMARK   14  A    between atoms: CA_45  and  C_46
REMARK   15  A    between atoms: N_58  and  CA_59
REMARK   16  A    between atoms: CA_59  and  C_60
REMARK   17  A    between atoms: CA_59  and  CB_62
REMARK   18  A    between atoms: CB_62  and  OG_63
REMARK   19  A    between atoms: N_69  and  CA_70
REMARK   20  A    between atoms: CA_70  and  C_71
REMARK   21  A    between atoms: CA_70  and  CB_73
REMARK   22  A    between atoms: CB_73  and  CG1_74
REMARK   23  A    between atoms: CB_73  and  CG2_75
REMARK   24  A    between atoms: CG1_74  and  CD1_76
REMARK   25  A    between atoms: N_88  and  CA_89
REMARK   26  A    between atoms: CA_89  and  C_90
REMARK   27  A    between atoms: CA_89  and  CB_92
REMARK   28  A    between atoms: N_98  and  CA_99
REMARK   29  A    between atoms: CA_99  and  C_100
REMARK   30  A    between atoms: CA_99  and  CB_102
REMARK   31  A    between atoms: CB_102  and  OG1_103
REMARK   32  A    between atoms: CB_102  and  CG2_104
REMARK   33  A    between atoms: N_112  and  CA_113
REMARK   34  A    between atoms: CA_113  and  C_114
REMARK   35  A    between atoms: N_119  and  CA_120
REMARK   36  A    between atoms: CA_120  and  C_121
REMARK   37  A    between atoms: CA_120  and  CB_123
REMARK   38  A    between atoms: CB_123  and  CG_124
REMARK   39  A    between atoms: CG_124  and  CD1_125
REMARK   40  A    between atoms: CG_124  and  CD2_126
REMARK   41  A    between atoms: N_138  and  CA_139
REMARK   42  A    between atoms: CA_139  and  C_140
REMARK   43  A    between atoms: CA_139  and  CB_142
REMARK   44  A    between atoms: CB_142  and  CG1_143
REMARK   45  A    between atoms: CB_142  and  CG2_144
REMARK   46  A    between atoms: N_154  and  CA_155
REMARK   47  A    between atoms: CA_155  and  C_156
REMARK   48  A    between atoms: N_161  and  CA_162
REMARK   49  A    between atoms: CA_162  and  C_163
REMARK   50  A    between atoms: CA_162  and  CB_165
REMARK   51  A    between atoms: N_171  and  CA_172
REMARK   52  A    between atoms: CA_172  and  C_173
REMARK   53  A    between atoms: CA_172  and  CB_175
REMARK   54  A    between atoms: CB_175  and  CG_176
REMARK   55  A    between atoms: CG_176  and  CD1_177
REMARK   56  A    between atoms: CG_176  and  CD2_178
REMARK   57  A    between atoms: N_190  and  CA_191
REMARK   58  A    between atoms: CA_191  and  C_192
REMARK   59  A    between atoms: CA_191  and  CB_194
REMARK   60  A    between atoms: CB_194  and  CG_195
REMARK   61  A    between atoms: CG_195  and  CD1_196
REMARK   62  A    between atoms: CG_195  and  CD2_197
REMARK   63  A    between atoms: N_209  and  CA_210
REMARK   64  A    between atoms: CA_210  and  C_211
REMARK   65  A    between atoms: CA_210  and  CB_213
REMARK   66  A    between atoms: CB_213  and  CG_214
REMARK   67  A    between atoms: CG_214  and  CD1_215
REMARK   68  A    between atoms: CG_214  and  CD2_216
REMARK   69  A    between atoms: N_228  and  CA_229
REMARK   70  A    between atoms: CA_229  and  C_230
REMARK   71  A    between atoms: CA_229  and  CB_232
REMARK   72  A    between atoms: CB_232  and  CG_233
REMARK   73  A    between atoms: CG_233  and  CD1_234
REMARK   74  A    between atoms: CG_233  and  CD2_235
REMARK   75  A    between atoms: N_247  and  CA_248
REMARK   76  A    between atoms: CA_248  and  C_249
REMARK   77  A    between atoms: CA_248  and  CB_251
REMARK   78  A    between atoms: CB_251  and  CG_252
REMARK   79  A    between atoms: CG_252  and  CD1_253
REMARK   80  A    between atoms: CG_252  and  CD2_254
REMARK   81  A    between atoms: N_266  and  CA_267
REMARK   82  A    between atoms: CA_267  and  C_268
REMARK   83  A    between atoms: CA_267  and  CB_270
REMARK   84  A    between atoms: CB_270  and  CG1_271
REMARK   85  A    between atoms: CB_270  and  CG2_272
REMARK   86  A    between atoms: N_282  and  CA_283
REMARK   87  A    between atoms: CA_283  and  C_284
REMARK   88  A    between atoms: CA_283  and  CB_286
REMARK   89  A    between atoms: CB_286  and  CG1_287
REMARK   90  A    between atoms: CB_286  and  CG2_288
REMARK   91  A    between atoms: N_298  and  CA_299
REMARK   92  A    between atoms: CA_299  and  C_300
REMARK   93  A    between atoms: CA_299  and  CB_302
REMARK   94  A    between atoms: N_308  and  CA_309
REMARK   95  A    between atoms: CA_309  and  C_310
REMARK   96  A    between atoms: CA_309  and  CB_312
REMARK   97  A    between atoms: CB_312  and  CG_313
REMARK   98  A    between atoms: CG_313  and  CD1_314
REMARK   99  A    between atoms: CG_313  and  CD2_315
REMARK  100  A    between atoms: N_327  and  CA_328
REMARK  101  A    between atoms: CA_328  and  C_329
REMARK  102  A    between atoms: N_334  and  CA_335
REMARK  103  A    between atoms: CA_335  and  C_336
REMARK  104  A    between atoms: CA_335  and  CB_338
REMARK  105  A    between atoms: CB_338  and  CG1_339
REMARK  106  A    between atoms: CB_338  and  CG2_340
REMARK  107  A    between atoms: CG1_339  and  CD1_341
REMARK  108  A    between atoms: N_353  and  CA_354
REMARK  109  A    between atoms: CA_354  and  C_355
REMARK  110  A    between atoms: N_360  and  CA_361
REMARK  111  A    between atoms: CA_361  and  C_362
REMARK  112  A    between atoms: CA_361  and  CB_364
REMARK  113  A    between atoms: CB_364  and  CG_365
REMARK  114  A    between atoms: CG_365  and  CD1_366
REMARK  115  A    between atoms: CG_365  and  CD2_367
REMARK  116  A    between atoms: N_379  and  CA_380
REMARK  117  A    between atoms: CA_380  and  C_381
REMARK  118  A    between atoms: CA_380  and  CB_383
REMARK  119  A    between atoms: CB_383  and  CG_384
REMARK  120  A    between atoms: N_399  and  CA_400
REMARK  121  A    between atoms: CA_400  and  C_401
REMARK  122  A    between atoms: CA_400  and  CB_403
REMARK  123  A    between atoms: CB_403  and  CG1_404
REMARK  124  A    between atoms: CB_403  and  CG2_405
REMARK  125  A    between atoms: CG1_404  and  CD1_406
REMARK  126  A    between atoms: N_418  and  CA_419
REMARK  127  A    between atoms: CA_419  and  C_420
REMARK  128  A    between atoms: CA_419  and  CB_422
REMARK  129  A    between atoms: CB_422  and  CG_423
REMARK  130  A    between atoms: CG_423  and  CD_424
REMARK  131  A    between atoms: CD_424  and  NE_425
REMARK  132  A    between atoms: N_442  and  CA_443
REMARK  133  A    between atoms: CA_443  and  C_444
REMARK  134  A    between atoms: CA_443  and  CB_446
REMARK  135  A    between atoms: CB_446  and  CG_447
REMARK  136  A    between atoms: CG_447  and  CD_448
REMARK  137  A    between atoms: CD_448  and  NE_449
REMARK  138  A    between atoms: N_466  and  CA_467
REMARK  139  A    between atoms: CA_467  and  C_468
REMARK  140  A    between atoms: CA_467  and  CB_470
REMARK  141  A    between atoms: CB_470  and  CG_471
REMARK  142  A    between atoms: CG_471  and  CD_472
REMARK  143  A    between atoms: CD_472  and  NE_473
REMARK  144  A    between atoms: N_490  and  CA_491
REMARK  145  A    between atoms: CA_491  and  C_492
REMARK  146  A    between atoms: CA_491  and  CB_494
REMARK  147  A    between atoms: CB_494  and  CG_495
REMARK  148  A    between atoms: N_508  and  CA_509
REMARK  149  A    between atoms: CA_509  and  C_510
REMARK  150  A    between atoms: CA_509  and  CB_512
REMARK  151  A    between atoms: CB_512  and  CG1_513
REMARK  152  A    between atoms: CB_512  and  CG2_514
REMARK  153  A    between atoms: CG1_513  and  CD1_515
REMARK  154  A    between atoms: N_527  and  CA_528
REMARK  155  A    between atoms: CA_528  and  C_529
REMARK  156  A    between atoms: CA_528  and  CB_531
REMARK  157  A    between atoms: CB_531  and  CG1_532
REMARK  158  A    between atoms: CB_531  and  CG2_533
REMARK  159  A    between atoms: N_543  and  CA_544
REMARK  160  A    between atoms: CA_544  and  C_545
REMARK  161  A    between atoms: CA_544  and  CB_547
REMARK  162  A    between atoms: CB_547  and  CG_548
REMARK  163  A    between atoms: CG_548  and  CD_549
REMARK  164  A    between atoms: CD_549  and  NE_550
REMARK  165  A    between atoms: N_567  and  CA_568
REMARK  166  A    between atoms: CA_568  and  C_569
REMARK  167  A    between atoms: CA_568  and  CB_571
REMARK  168  A    between atoms: CB_571  and  CG_572
REMARK  169  A    between atoms: CG_572  and  CD_573
REMARK  170  A    between atoms: CD_573  and  CE_574
REMARK  171  A    between atoms: CE_574  and  NZ_575
REMARK  172  A    between atoms: N_589  and  CA_590
REMARK  173  A    between atoms: CA_590  and  C_591
REMARK  174  A    between atoms: CA_590  and  CB_593
REMARK  175  A    between atoms: CB_593  and  CG_594
REMARK  176  A    between atoms: CG_594  and  CD_595
REMARK  177  A    between atoms: CD_595  and  NE_596
REMARK  178  A    between atoms: N_613  and  CA_614
REMARK  179  A    between atoms: CA_614  and  C_615
REMARK  180  A    between atoms: CA_614  and  CB_617
REMARK  181  A    between atoms: CB_617  and  OG1_618
REMARK  182  A    between atoms: CB_617  and  CG2_619
REMARK  183  A    between atoms: N_627  and  CA_628
REMARK  184  A    between atoms: CA_628  and  C_629
REMARK  185  A    between atoms: CA_628  and  CB_631
REMARK  186  A    between atoms: CB_631  and  CG_632
REMARK  187  A    between atoms: CG_632  and  CD1_633
REMARK  188  A    between atoms: CG_632  and  CD2_634
REMARK  189  A    between atoms: N_646  and  CA_647
REMARK  190  A    between atoms: CA_647  and  C_648
REMARK  191  A    between atoms: CA_647  and  CB_650
REMARK  192  A    between atoms: CB_650  and  CG_651
REMARK  193  A    between atoms: CG_651  and  CD_652
REMARK  194  A    between atoms: CD_652  and  NE_653
REMARK  195  A    between atoms: N_670  and  CA_671
REMARK  196  A    between atoms: CA_671  and  C_672
REMARK  197  A    between atoms: CA_671  and  CB_674
REMARK  198  A    between atoms: CB_674  and  CG_675
REMARK  199  A    between atoms: CG_675  and  CD_676
REMARK  200  A    between atoms: CD_676  and  NE_677
REMARK  201  A    between atoms: N_694  and  CA_695
REMARK  202  A    between atoms: CA_695  and  C_696
REMARK  203  A    between atoms: CA_695  and  CB_698
REMARK  204  A    between atoms: CB_698  and  CG_699
REMARK  205  A    between atoms: CG_699  and  CD1_700
REMARK  206  A    between atoms: CG_699  and  CD2_701
REMARK  207  A    between atoms: N_713  and  CA_714
REMARK  208  A    between atoms: CA_714  and  C_715
REMARK  209  A    between atoms: CA_714  and  CB_717
REMARK  210  A    between atoms: CB_717  and  CG_718
REMARK  211  A    between atoms: CG_718  and  CD1_719
REMARK  212  A    between atoms: CG_718  and  CD2_720
REMARK  213  A    between atoms: N_732  and  CA_733
REMARK  214  A    between atoms: CA_733  and  C_734
REMARK  215  A    between atoms: CA_733  and  CB_736
REMARK  216  A    between atoms: CB_736  and  CG_737
REMARK  217  A    between atoms: CG_737  and  CD_738
REMARK  218  A    between atoms: N_749  and  CA_750
REMARK  219  A    between atoms: CA_750  and  C_751
REMARK  220  A    between atoms: CA_750  and  CB_753
REMARK  221  A    between atoms: CB_753  and  CG_754
REMARK  222  A    between atoms: CG_754  and  CD_755
REMARK  223  A    between atoms: N_764  and  CA_765
REMARK  224  A    between atoms: CA_765  and  C_766
REMARK  225  A    between atoms: CA_765  and  CB_768
REMARK  226  A    between atoms: CB_768  and  CG_769
REMARK  227  A    between atoms: CG_769  and  CD_770
REMARK  228  A    between atoms: CD_770  and  NE_771
REMARK  229  A    between atoms: N_788  and  CA_789
REMARK  230  A    between atoms: CA_789  and  C_790
REMARK  231  A    between atoms: CA_789  and  CB_792
REMARK  232  A    between atoms: CB_792  and  CG_793
REMARK  233  A    between atoms: CG_793  and  CD_794
REMARK  234  A    between atoms: N_803  and  CA_804
REMARK  235  A    between atoms: CA_804  and  C_805
REMARK  236  A    between atoms: CA_804  and  CB_807
REMARK  237  A    between atoms: CB_807  and  CG_808
REMARK  238  A    between atoms: CG_808  and  CD1_809
REMARK  239  A    between atoms: CG_808  and  CD2_810
REMARK  240  A    between atoms: N_822  and  CA_823
REMARK  241  A    between atoms: CA_823  and  C_824
REMARK  242  A    between atoms: CA_823  and  CB_826
REMARK  243  A    between atoms: CB_826  and  CG1_827
REMARK  244  A    between atoms: CB_826  and  CG2_828
REMARK  245  A    between atoms: N_838  and  CA_839
REMARK  246  A    between atoms: CA_839  and  C_840
REMARK  247  A    between atoms: CA_839  and  CB_842
REMARK  248  A    between atoms: CB_842  and  CG_843
REMARK  249  A    between atoms: CG_843  and  CD_844
REMARK  250  A    between atoms: CA_854  and  C_855
REMARK  251  A    between atoms: N_867  and  CA_868
REMARK  252  A    between atoms: CA_868  and  C_869
REMARK  253  A    between atoms: CA_868  and  CB_871
REMARK  254  A    between atoms: CB_871  and  CG_872
REMARK  255  A    between atoms: CG_872  and  CD1_873
REMARK  256  A    between atoms: CG_872  and  CD2_874
REMARK  257  A    between atoms: N_886  and  CA_887
REMARK  258  A    between atoms: CA_887  and  C_888
REMARK  259  A    between atoms: CA_887  and  CB_890
REMARK  260  A    between atoms: CB_890  and  OG1_891
REMARK  261  A    between atoms: CB_890  and  CG2_892
REMARK  262  A    between atoms: CA_901  and  C_902
REMARK  263  A    between atoms: N_914  and  CA_915
REMARK  264  A    between atoms: CA_915  and  C_916
REMARK  265  A    between atoms: CA_915  and  CB_918
REMARK  266  A    between atoms: CB_918  and  OG_919
REMARK  267  A    between atoms: N_925  and  CA_926
REMARK  268  A    between atoms: CA_926  and  C_927
REMARK  269  A    between atoms: N_932  and  CA_933
REMARK  270  A    between atoms: CA_933  and  C_934
REMARK  271  A    between atoms: CA_933  and  CB_936
REMARK  272  A    between atoms: CB_936  and  CG_937
REMARK  273  A    between atoms: CG_937  and  CD_938
REMARK  274  A    between atoms: N_947  and  CA_948
REMARK  275  A    between atoms: CA_948  and  C_949
REMARK  276  A    between atoms: CA_948  and  CB_951
REMARK  277  A    between atoms: CB_951  and  CG_952
REMARK  278  A    between atoms: CG_952  and  CD_953
REMARK  279  A    between atoms: CD_953  and  CE_954
REMARK  280  A    between atoms: CE_954  and  NZ_955
REMARK  281  A    between atoms: N_969  and  CA_970
REMARK  282  A    between atoms: CA_970  and  C_971
REMARK  283  A    between atoms: CA_970  and  CB_973
REMARK  284  A    between atoms: CB_973  and  CG_974
REMARK  285  A    between atoms: CG_974  and  CD1_975
REMARK  286  A    between atoms: CG_974  and  CD2_976
REMARK  287  A    between atoms: N_988  and  CA_989
REMARK  288  A    between atoms: CA_989  and  C_990
REMARK  289  A    between atoms: CA_989  and  CB_992
REMARK  290  A    between atoms: CB_992  and  CG_993
REMARK  291  A    between atoms: N_1012  and  CA_1013
REMARK  292  A    between atoms: CA_1013  and  C_1014
REMARK  293  A    between atoms: CA_1013  and  CB_1016
REMARK  294  A    between atoms: CB_1016  and  OG_1017
REMARK  295  A    between atoms: N_1024  and  CA_1025
REMARK  296  A    between atoms: CA_1025  and  C_1026
REMARK  297  A    between atoms: CA_1025  and  CB_1028
REMARK  298  A    between atoms: CB_1028  and  CG_1029
REMARK  299  A    between atoms: CG_1029  and  CD_1030
REMARK  300  A    between atoms: CD_1030  and  CE_1031
REMARK  301  A    between atoms: CE_1031  and  NZ_1032
REMARK  302  A    between atoms: N_1048  and  CA_1049
REMARK  303  A    between atoms: CA_1049  and  C_1050
REMARK  304  A    between atoms: CA_1049  and  CB_1052
REMARK  305  A    between atoms: CB_1052  and  CG1_1053
REMARK  306  A    between atoms: CB_1052  and  CG2_1054
REMARK  307  A    between atoms: CG1_1053  and  CD1_1055
REMARK  308  A    between atoms: CA_1068  and  C_1069
REMARK  309  A    between atoms: N_1081  and  CA_1082
REMARK  310  A    between atoms: CA_1082  and  C_1083
REMARK  311  A    between atoms: CA_1082  and  CB_1085
REMARK  312  A    between atoms: CB_1085  and  OG_1086
REMARK  313  A    between atoms: N_1092  and  CA_1093
REMARK  314  A    between atoms: CA_1093  and  C_1094
REMARK  315  A    between atoms: CA_1093  and  CB_1096
REMARK  316  A    between atoms: CB_1096  and  CG1_1097
REMARK  317  A    between atoms: CB_1096  and  CG2_1098
REMARK  318  A    between atoms: CG1_1097  and  CD1_1099
REMARK  319  A    between atoms: N_1111  and  CA_1112
REMARK  320  A    between atoms: CA_1112  and  C_1113
REMARK  321  A    between atoms: CA_1112  and  CB_1115
REMARK  322  A    between atoms: N_1121  and  CA_1122
REMARK  323  A    between atoms: CA_1122  and  C_1123
REMARK  324  A    between atoms: CA_1122  and  CB_1125
REMARK  325  A    between atoms: CB_1125  and  OG1_1126
REMARK  326  A    between atoms: CB_1125  and  CG2_1127
REMARK  327  A    between atoms: N_1135  and  CA_1136
REMARK  328  A    between atoms: CA_1136  and  C_1137
REMARK  329  A    between atoms: N_1142  and  CA_1143
REMARK  330  A    between atoms: CA_1143  and  C_1144
REMARK  331  A    between atoms: CA_1143  and  CB_1146
REMARK  332  A    between atoms: CB_1146  and  CG_1147
REMARK  333  A    between atoms: CG_1147  and  CD1_1148
REMARK  334  A    between atoms: CG_1147  and  CD2_1149
REMARK  335  A    between atoms: N_1161  and  CA_1162
REMARK  336  A    between atoms: CA_1162  and  C_1163
REMARK  337  A    between atoms: CA_1162  and  CB_1165
REMARK  338  A    between atoms: CB_1165  and  CG1_1166
REMARK  339  A    between atoms: CB_1165  and  CG2_1167
REMARK  340  A    between atoms: N_1177  and  CA_1178
REMARK  341  A    between atoms: CA_1178  and  C_1179
REMARK  342  A    between atoms: N_1184  and  CA_1185
REMARK  343  A    between atoms: CA_1185  and  C_1186
REMARK  344  A    between atoms: CA_1185  and  CB_1188
REMARK  345  A    between atoms: N_1194  and  CA_1195
REMARK  346  A    between atoms: CA_1195  and  C_1196
REMARK  347  A    between atoms: CA_1195  and  CB_1198
REMARK  348  A    between atoms: CB_1198  and  CG_1199
REMARK  349  A    between atoms: CG_1199  and  CD1_1200
REMARK  350  A    between atoms: CG_1199  and  CD2_1201
REMARK  351  A    between atoms: N_1213  and  CA_1214
REMARK  352  A    between atoms: CA_1214  and  C_1215
REMARK  353  A    between atoms: CA_1214  and  CB_1217
REMARK  354  A    between atoms: CB_1217  and  CG_1218
REMARK  355  A    between atoms: CG_1218  and  CD1_1219
REMARK  356  A    between atoms: CG_1218  and  CD2_1220
REMARK  357  A    between atoms: N_1232  and  CA_1233
REMARK  358  A    between atoms: CA_1233  and  C_1234
REMARK  359  A    between atoms: CA_1233  and  CB_1236
REMARK  360  A    between atoms: CB_1236  and  CG_1237
REMARK  361  A    between atoms: CG_1237  and  CD1_1238
REMARK  362  A    between atoms: CG_1237  and  CD2_1239
REMARK  363  A    between atoms: N_1251  and  CA_1252
REMARK  364  A    between atoms: CA_1252  and  C_1253
REMARK  365  A    between atoms: CA_1252  and  CB_1255
REMARK  366  A    between atoms: CB_1255  and  CG_1256
REMARK  367  A    between atoms: CG_1256  and  CD1_1257
REMARK  368  A    between atoms: CG_1256  and  CD2_1258
REMARK  369  A    between atoms: N_1270  and  CA_1271
REMARK  370  A    between atoms: CA_1271  and  C_1272
REMARK  371  A    between atoms: CA_1271  and  CB_1274
REMARK  372  A    between atoms: CB_1274  and  CG_1275
REMARK  373  A    between atoms: CG_1275  and  CD1_1276
REMARK  374  A    between atoms: CG_1275  and  CD2_1277
REMARK  375  A    between atoms: N_1289  and  CA_1290
REMARK  376  A    between atoms: CA_1290  and  C_1291
REMARK  377  A    between atoms: CA_1290  and  CB_1293
REMARK  378  A    between atoms: CB_1293  and  CG1_1294
REMARK  379  A    between atoms: CB_1293  and  CG2_1295
REMARK  380  A    between atoms: N_1305  and  CA_1306
REMARK  381  A    between atoms: CA_1306  and  C_1307
REMARK  382  A    between atoms: CA_1306  and  CB_1309
REMARK  383  A    between atoms: CB_1309  and  CG1_1310
REMARK  384  A    between atoms: CB_1309  and  CG2_1311
REMARK  385  A    between atoms: N_1321  and  CA_1322
REMARK  386  A    between atoms: CA_1322  and  C_1323
REMARK  387  A    between atoms: CA_1322  and  CB_1325
REMARK  388  A    between atoms: N_1331  and  CA_1332
REMARK  389  A    between atoms: CA_1332  and  C_1333
REMARK  390  A    between atoms: CA_1332  and  CB_1335
REMARK  391  A    between atoms: CB_1335  and  CG_1336
REMARK  392  A    between atoms: CG_1336  and  CD1_1337
REMARK  393  A    between atoms: CG_1336  and  CD2_1338
REMARK  394  A    between atoms: N_1350  and  CA_1351
REMARK  395  A    between atoms: CA_1351  and  C_1352
REMARK  396  A    between atoms: N_1357  and  CA_1358
REMARK  397  A    between atoms: CA_1358  and  C_1359
REMARK  398  A    between atoms: CA_1358  and  CB_1361
REMARK  399  A    between atoms: CB_1361  and  CG1_1362
REMARK  400  A    between atoms: CB_1361  and  CG2_1363
REMARK  401  A    between atoms: CG1_1362  and  CD1_1364
REMARK  402  A    between atoms: N_1376  and  CA_1377
REMARK  403  A    between atoms: CA_1377  and  C_1378
REMARK  404  A    between atoms: N_1383  and  CA_1384
REMARK  405  A    between atoms: CA_1384  and  C_1385
REMARK  406  A    between atoms: CA_1384  and  CB_1387
REMARK  407  A    between atoms: CB_1387  and  CG_1388
REMARK  408  A    between atoms: CG_1388  and  CD1_1389
REMARK  409  A    between atoms: CG_1388  and  CD2_1390
REMARK  410  A    between atoms: N_1402  and  CA_1403
REMARK  411  A    between atoms: CA_1403  and  C_1404
REMARK  412  A    between atoms: CA_1403  and  CB_1406
REMARK  413  A    between atoms: CB_1406  and  CG_1407
REMARK  414  A    between atoms: N_1422  and  CA_1423
REMARK  415  A    between atoms: CA_1423  and  C_1424
REMARK  416  A    between atoms: CA_1423  and  CB_1426
REMARK  417  A    between atoms: CB_1426  and  CG1_1427
REMARK  418  A    between atoms: CB_1426  and  CG2_1428
REMARK  419  A    between atoms: CG1_1427  and  CD1_1429
REMARK  420  A    between atoms: N_1441  and  CA_1442
REMARK  421  A    between atoms: CA_1442  and  C_1443
REMARK  422  A    between atoms: CA_1442  and  CB_1445
REMARK  423  A    between atoms: CB_1445  and  CG_1446
REMARK  424  A    between atoms: CG_1446  and  CD_1447
REMARK  425  A    between atoms: CD_1447  and  NE_1448
REMARK  426  A    between atoms: N_1465  and  CA_1466
REMARK  427  A    between atoms: CA_1466  and  C_1467
REMARK  428  A    between atoms: CA_1466  and  CB_1469
REMARK  429  A    between atoms: CB_1469  and  CG_1470
REMARK  430  A    between atoms: CG_1470  and  CD_1471
REMARK  431  A    between atoms: CD_1471  and  NE_1472
REMARK  432  A    between atoms: N_1489  and  CA_1490
REMARK  433  A    between atoms: CA_1490  and  C_1491
REMARK  434  A    between atoms: CA_1490  and  CB_1493
REMARK  435  A    between atoms: CB_1493  and  CG_1494
REMARK  436  A    between atoms: CG_1494  and  CD_1495
REMARK  437  A    between atoms: CD_1495  and  NE_1496
REMARK  438  A    between atoms: N_1513  and  CA_1514
REMARK  439  A    between atoms: CA_1514  and  C_1515
REMARK  440  A    between atoms: CA_1514  and  CB_1517
REMARK  441  A    between atoms: CB_1517  and  CG_1518
REMARK  442  A    between atoms: N_1531  and  CA_1532
REMARK  443  A    between atoms: CA_1532  and  C_1533
REMARK  444  A    between atoms: CA_1532  and  CB_1535
REMARK  445  A    between atoms: CB_1535  and  CG1_1536
REMARK  446  A    between atoms: CB_1535  and  CG2_1537
REMARK  447  A    between atoms: CG1_1536  and  CD1_1538
REMARK  448  A    between atoms: N_1550  and  CA_1551
REMARK  449  A    between atoms: CA_1551  and  C_1552
REMARK  450  A    between atoms: CA_1551  and  CB_1554
REMARK  451  A    between atoms: CB_1554  and  CG1_1555
REMARK  452  A    between atoms: CB_1554  and  CG2_1556
REMARK  453  A    between atoms: N_1566  and  CA_1567
REMARK  454  A    between atoms: CA_1567  and  C_1568
REMARK  455  A    between atoms: CA_1567  and  CB_1570
REMARK  456  A    between atoms: CB_1570  and  CG_1571
REMARK  457  A    between atoms: CG_1571  and  CD_1572
REMARK  458  A    between atoms: CD_1572  and  NE_1573
REMARK  459  A    between atoms: N_1590  and  CA_1591
REMARK  460  A    between atoms: CA_1591  and  C_1592
REMARK  461  A    between atoms: CA_1591  and  CB_1594
REMARK  462  A    between atoms: CB_1594  and  CG_1595
REMARK  463  A    between atoms: CG_1595  and  CD_1596
REMARK  464  A    between atoms: CD_1596  and  CE_1597
REMARK  465  A    between atoms: CE_1597  and  NZ_1598
REMARK  466  A    between atoms: N_1612  and  CA_1613
REMARK  467  A    between atoms: CA_1613  and  C_1614
REMARK  468  A    between atoms: CA_1613  and  CB_1616
REMARK  469  A    between atoms: CB_1616  and  CG_1617
REMARK  470  A    between atoms: CG_1617  and  CD_1618
REMARK  471  A    between atoms: CD_1618  and  NE_1619
REMARK  472  A    between atoms: N_1636  and  CA_1637
REMARK  473  A    between atoms: CA_1637  and  C_1638
REMARK  474  A    between atoms: CA_1637  and  CB_1640
REMARK  475  A    between atoms: CB_1640  and  OG1_1641
REMARK  476  A    between atoms: CB_1640  and  CG2_1642
REMARK  477  A    between atoms: N_1650  and  CA_1651
REMARK  478  A    between atoms: CA_1651  and  C_1652
REMARK  479  A    between atoms: CA_1651  and  CB_1654
REMARK  480  A    between atoms: CB_1654  and  CG_1655
REMARK  481  A    between atoms: CG_1655  and  CD1_1656
REMARK  482  A    between atoms: CG_1655  and  CD2_1657
REMARK  483  A    between atoms: N_1669  and  CA_1670
REMARK  484  A    between atoms: CA_1670  and  C_1671
REMARK  485  A    between atoms: CA_1670  and  CB_1673
REMARK  486  A    between atoms: CB_1673  and  CG_1674
REMARK  487  A    between atoms: CG_1674  and  CD_1675
REMARK  488  A    between atoms: CD_1675  and  NE_1676
REMARK  489  A    between atoms: N_1693  and  CA_1694
REMARK  490  A    between atoms: CA_1694  and  C_1695
REMARK  491  A    between atoms: CA_1694  and  CB_1697
REMARK  492  A    between atoms: CB_1697  and  CG_1698
REMARK  493  A    between atoms: CG_1698  and  CD_1699
REMARK  494  A    between atoms: CD_1699  and  NE_1700
REMARK  495  A    between atoms: N_1717  and  CA_1718
REMARK  496  A    between atoms: CA_1718  and  C_1719
REMARK  497  A    between atoms: CA_1718  and  CB_1721
REMARK  498  A    between atoms: CB_1721  and  CG_1722
REMARK  499  A    between atoms: CG_1722  and  CD1_1723
REMARK  500  A    between atoms: CG_1722  and  CD2_1724
REMARK  501  A    between atoms: N_1736  and  CA_1737
REMARK  502  A    between atoms: CA_1737  and  C_1738
REMARK  503  A    between atoms: CA_1737  and  CB_1740
REMARK  504  A    between atoms: CB_1740  and  CG_1741
REMARK  505  A    between atoms: CG_1741  and  CD1_1742
REMARK  506  A    between atoms: CG_1741  and  CD2_1743
REMARK  507  A    between atoms: N_1755  and  CA_1756
REMARK  508  A    between atoms: CA_1756  and  C_1757
REMARK  509  A    between atoms: CA_1756  and  CB_1759
REMARK  510  A    between atoms: CB_1759  and  CG_1760
REMARK  511  A    between atoms: CG_1760  and  CD_1761
REMARK  512  A    between atoms: N_1772  and  CA_1773
REMARK  513  A    between atoms: CA_1773  and  C_1774
REMARK  514  A    between atoms: CA_1773  and  CB_1776
REMARK  515  A    between atoms: CB_1776  and  CG_1777
REMARK  516  A    between atoms: CG_1777  and  CD_1778
REMARK  517  A    between atoms: N_1787  and  CA_1788
REMARK  518  A    between atoms: CA_1788  and  C_1789
REMARK  519  A    between atoms: CA_1788  and  CB_1791
REMARK  520  A    between atoms: CB_1791  and  CG_1792
REMARK  521  A    between atoms: CG_1792  and  CD_1793
REMARK  522  A    between atoms: CD_1793  and  NE_1794
REMARK  523  A    between atoms: N_1811  and  CA_1812
REMARK  524  A    between atoms: CA_1812  and  C_1813
REMARK  525  A    between atoms: CA_1812  and  CB_1815
REMARK  526  A    between atoms: CB_1815  and  CG_1816
REMARK  527  A    between atoms: CG_1816  and  CD_1817
REMARK  528  A    between atoms: N_1826  and  CA_1827
REMARK  529  A    between atoms: CA_1827  and  C_1828
REMARK  530  A    between atoms: CA_1827  and  CB_1830
REMARK  531  A    between atoms: CB_1830  and  CG_1831
REMARK  532  A    between atoms: CG_1831  and  CD1_1832
REMARK  533  A    between atoms: CG_1831  and  CD2_1833
REMARK  534  A    between atoms: N_1845  and  CA_1846
REMARK  535  A    between atoms: CA_1846  and  C_1847
REMARK  536  A    between atoms: CA_1846  and  CB_1849
REMARK  537  A    between atoms: CB_1849  and  CG1_1850
REMARK  538  A    between atoms: CB_1849  and  CG2_1851
REMARK  539  A    between atoms: N_1861  and  CA_1862
REMARK  540  A    between atoms: CA_1862  and  C_1863
REMARK  541  A    between atoms: CA_1862  and  CB_1865
REMARK  542  A    between atoms: CB_1865  and  CG_1866
REMARK  543  A    between atoms: CG_1866  and  CD_1867
REMARK  544  A    between atoms: CA_1877  and  C_1878
REMARK  545  A    between atoms: N_1890  and  CA_1891
REMARK  546  A    between atoms: CA_1891  and  C_1892
REMARK  547  A    between atoms: CA_1891  and  CB_1894
REMARK  548  A    between atoms: CB_1894  and  CG_1895
REMARK  549  A    between atoms: CG_1895  and  CD1_1896
REMARK  550  A    between atoms: CG_1895  and  CD2_1897
REMARK  551  A    between atoms: N_1909  and  CA_1910
REMARK  552  A    between atoms: CA_1910  and  C_1911
REMARK  553  A    between atoms: CA_1910  and  CB_1913
REMARK  554  A    between atoms: CB_1913  and  OG1_1914
REMARK  555  A    between atoms: CB_1913  and  CG2_1915
REMARK  556  A    between atoms: CA_1924  and  C_1925
REMARK  557  A    between atoms: N_1937  and  CA_1938
REMARK  558  A    between atoms: CA_1938  and  C_1939
REMARK  559  A    between atoms: CA_1938  and  CB_1941
REMARK  560  A    between atoms: CB_1941  and  OG_1942
REMARK  561  A    between atoms: N_1948  and  CA_1949
REMARK  562  A    between atoms: CA_1949  and  C_1950
REMARK  563  A    between atoms: N_1955  and  CA_1956
REMARK  564  A    between atoms: CA_1956  and  C_1957
REMARK  565  A    between atoms: CA_1956  and  CB_1959
REMARK  566  A    between atoms: CB_1959  and  CG_1960
REMARK  567  A    between atoms: CG_1960  and  CD_1961
REMARK  568  A    between atoms: N_1970  and  CA_1971
REMARK  569  A    between atoms: CA_1971  and  C_1972
REMARK  570  A    between atoms: CA_1971  and  CB_1974
REMARK  571  A    between atoms: CB_1974  and  CG_1975
REMARK  572  A    between atoms: CG_1975  and  CD_1976
REMARK  573  A    between atoms: CD_1976  and  CE_1977
REMARK  574  A    between atoms: CE_1977  and  NZ_1978
REMARK  575  A    between atoms: N_1992  and  CA_1993
REMARK  576  A    between atoms: CA_1993  and  C_1994
REMARK  577  A    between atoms: CA_1993  and  CB_1996
REMARK  578  A    between atoms: CB_1996  and  CG_1997
REMARK  579  A    between atoms: CG_1997  and  CD1_1998
REMARK  580  A    between atoms: CG_1997  and  CD2_1999
REMARK  581  A    between atoms: N_2011  and  CA_2012
REMARK  582  A    between atoms: CA_2012  and  C_2013
REMARK  583  A    between atoms: CA_2012  and  CB_2015
REMARK  584  A    between atoms: CB_2015  and  CG_2016
REMARK  585  A    between atoms: N_2035  and  CA_2036
REMARK  586  A    between atoms: CA_2036  and  C_2037
REMARK  587  A    between atoms: CA_2036  and  CB_2039
REMARK  588  A    between atoms: CB_2039  and  OG_2040
REMARK                            x       y       z     vdW  Elec       q    Type
REMARK                         _______ _______ _______ _____ _____    ______ ____
ROOT
ATOM      1  CA  VAL A  33       9.040 -12.417  14.615  0.00  0.00    +0.000 C 
ENDROOT
BRANCH   1   2
ATOM      2  C   VAL A  33       8.611 -11.492  15.759  0.00  0.00    +0.000 C 
ATOM      3  O   VAL A  33       9.411 -11.171  16.641  0.00  0.00    +0.000 OA
ATOM      4  N   ARG A  34       7.345 -11.071  15.736  0.00  0.00    +0.000 N 
ATOM      5  H   ARG A  34       6.759 -11.365  15.008  0.00  0.00    +0.000 HD
BRANCH   4   6
ATOM      6  CA  ARG A  34       6.805 -10.185  16.766  0.00  0.00    +0.000 C 
BRANCH   6   7
ATOM      7  C   ARG A  34       6.157 -10.990  17.893  0.00  0.00    +0.000 C 
ATOM      8  O   ARG A  34       5.803 -12.157  17.711  0.00  0.00    +0.000 OA
ATOM      9  N   LYS A  35       6.005 -10.354  19.056  0.00  0.00    +0.000 N 
ATOM     10  H   LYS A  35       6.307  -9.425  19.133  0.00  0.00    +0.000 HD
BRANCH   9  11
ATOM     11  CA  LYS A  35       5.402 -11.002  20.221  0.00  0.00    +0.000 C 
BRANCH  11  12
ATOM     12  C   LYS A  35       3.888 -10.799  20.239  0.00  0.00    +0.000 C 
ATOM     13  O   LYS A  35       3.377  -9.816  19.700  0.00  0.00    +0.000 OA
ATOM     14  N   ARG A  36       3.179 -11.739  20.866  0.00  0.00    +0.000 N 
ATOM     15  H   ARG A  36       3.648 -12.495  21.272  0.00  0.00    +0.000 HD
BRANCH  14  16
ATOM     16  CA  ARG A  36       1.723 -11.677  20.964  0.00  0.00    +0.000 C 
BRANCH  16  17
ATOM     17  C   ARG A  36       1.280 -10.914  22.216  0.00  0.00    +0.000 C 
ATOM     18  O   ARG A  36       0.127 -11.017  22.643  0.00  0.00    +0.000 OA
ATOM     19  N   THR A  37       2.201 -10.138  22.791  0.00  0.00    +0.000 N 
ATOM     20  H   THR A  37       3.095 -10.091  22.396  0.00  0.00    +0.000 HD
BRANCH  19  21
ATOM     21  CA  THR A  37       1.914  -9.355  23.995  0.00  0.00    +0.000 C 
BRANCH  21  22
ATOM     22  C   THR A  37       1.229  -8.029  23.658  0.00  0.00    +0.000 C 
ATOM     23  O   THR A  37       0.642  -7.390  24.529  0.00  0.00    +0.000 OA
ATOM     24  N   LEU A  38       1.309  -7.628  22.389  0.00  0.00    +0.000 N 
ATOM     25  H   LEU A  38       1.755  -8.204  21.743  0.00  0.00    +0.000 HD
BRANCH  24  26
ATOM     26  CA  LEU A  38       0.705  -6.380  21.926  0.00  0.00    +0.000 C 
BRANCH  26  27
ATOM     27  C   LEU A  38      -0.730  -6.624  21.468  0.00  0.00    +0.000 C 
ATOM     28  O   LEU A  38      -1.499  -5.689  21.271  0.00  0.00    +0.000 OA
ATOM     29  N   ARG A  39      -1.049  -7.903  21.298  0.00  0.00    +0.000 N 
ATOM     30  H   ARG A  39      -0.387  -8.565  21.520  0.00  0.00    +0.000 HD
BRANCH  29  31
ATOM     31  CA  ARG A  39      -2.363  -8.365  20.882  0.00  0.00    +0.000 C 
BRANCH  31  32
ATOM     32  C   ARG A  39      -3.126  -8.781  22.122  0.00  0.00    +0.000 C 
ATOM     33  O   ARG A  39      -4.346  -8.626  22.210  0.00  0.00    +0.000 OA
ATOM     34  N   ARG A  40      -2.368  -9.317  23.087  0.00  0.00    +0.000 N 
ATOM     35  H   ARG A  40      -1.399  -9.422  22.929  0.00  0.00    +0.000 HD
BRANCH  34  36
ATOM     36  CA  ARG A  40      -2.926  -9.732  24.369  0.00  0.00    +0.000 C 
BRANCH  36  37
ATOM     37  C   ARG A  40      -3.189  -8.485  25.197  0.00  0.00    +0.000 C 
ATOM     38  O   ARG A  40      -3.995  -8.490  26.128  0.00  0.00    +0.000 OA
ATOM     39  N   LEU A  41      -2.478  -7.418  24.829  0.00  0.00    +0.000 N 
ATOM     40  H   LEU A  41      -1.833  -7.514  24.102  0.00  0.00    +0.000 HD
BRANCH  39  41
ATOM     41  CA  LEU A  41      -2.617  -6.121  25.461  0.00  0.00    +0.000 C 
BRANCH  41  42
ATOM     42  C   LEU A  41      -3.395  -5.190  24.540  0.00  0.00    +0.000 C 
ATOM     43  O   LEU A  41      -3.944  -4.181  24.986  0.00  0.00    +0.000 OA
ATOM     44  N   LEU A  42      -3.440  -5.537  23.241  0.00  0.00    +0.000 N 
ATOM     45  H   LEU A  42      -2.962  -6.357  22.940  0.00  0.00    +0.000 HD
BRANCH  44  46
ATOM     46  CA  LEU A  42      -4.170  -4.727  22.256  0.00  0.00    +0.000 C 
BRANCH  46  47
ATOM     47  C   LEU A  42      -5.660  -4.688  22.588  0.00  0.00    +0.000 C 
ATOM     48  O   LEU A  42      -6.286  -3.627  22.552  0.00  0.00    +0.000 OA
ATOM     49  N   GLN A  43      -6.215  -5.855  22.908  0.00  0.00    +0.000 N 
ATOM     50  H   GLN A  43      -5.658  -6.662  22.909  0.00  0.00    +0.000 HD
BRANCH  49  51
ATOM     51  CA  GLN A  43      -7.625  -5.969  23.256  0.00  0.00    +0.000 C 
BRANCH  51  52
ATOM     52  C   GLN A  43      -7.819  -5.837  24.766  0.00  0.00    +0.000 C 
ATOM     53  O   GLN A  43      -8.944  -5.669  25.241  0.00  0.00    +0.000 OA
ATOM     54  N   GLU A  44      -6.713  -5.912  25.514  0.00  0.00    +0.000 N 
ATOM     55  H   GLU A  44      -5.840  -6.043  25.071  0.00  0.00    +0.000 HD
BRANCH  54  56
ATOM     56  CA  GLU A  44      -6.766  -5.801  26.975  0.00  0.00    +0.000 C 
BRANCH  56  57
ATOM     57  C   GLU A  44      -6.776  -4.339  27.428  0.00  0.00    +0.000 C 
ATOM     58  O   GLU A  44      -7.540  -3.963  28.319  0.00  0.00    +0.000 OA
ATOM     59  N   ARG A  45      -5.923  -3.524  26.807  0.00  0.00    +0.000 N 
ATOM     60  H   ARG A  45      -5.346  -3.887  26.103  0.00  0.00    +0.000 HD
BRANCH  59  61
ATOM     61  CA  ARG A  45      -5.822  -2.103  27.145  0.00  0.00    +0.000 C 
BRANCH  61  62
ATOM     62  C   ARG A  45      -6.808  -1.258  26.336  0.00  0.00    +0.000 C 
ATOM     63  O   ARG A  45      -7.007  -0.077  26.629  0.00  0.00    +0.000 OA
ATOM     64  N   GLU A  46      -7.423  -1.869  25.320  0.00  0.00    +0.000 N 
ATOM     65  H   GLU A  46      -7.225  -2.812  25.143  0.00  0.00    +0.000 HD
BRANCH  64  66
ATOM     66  CA  GLU A  46      -8.386  -1.175  24.462  0.00  0.00    +0.000 C 
BRANCH  66  67
ATOM     67  C   GLU A  46      -9.619  -0.718  25.251  0.00  0.00    +0.000 C 
ATOM     68  O   GLU A  46      -9.914   0.477  25.308  0.00  0.00    +0.000 OA
ATOM     69  N   LEU A  47     -10.331  -1.674  25.857  0.00  0.00    +0.000 N 
ATOM     70  H   LEU A  47     -10.043  -2.607  25.776  0.00  0.00    +0.000 HD
BRANCH  69  71
ATOM     71  CA  LEU A  47     -11.529  -1.364  26.643  0.00  0.00    +0.000 C 
BRANCH  71  72
ATOM     72  C   LEU A  47     -11.681  -2.323  27.823  0.00  0.00    +0.000 C 
ATOM     73  O   LEU A  47     -12.792  -2.571  28.301  0.00  0.00    +0.000 OA
ATOM     74  N   VAL A  48     -10.554  -2.848  28.296  0.00  0.00    +0.000 N 
ATOM     75  H   VAL A  48      -9.706  -2.600  27.876  0.00  0.00    +0.000 HD
BRANCH  74  76
ATOM     76  CA  VAL A  48     -10.548  -3.780  29.424  0.00  0.00    +0.000 C 
BRANCH  76  77
ATOM     77  C   VAL A  48      -9.576  -3.303  30.506  0.00  0.00    +0.000 C 
ATOM     78  O   VAL A  48      -8.638  -4.015  30.879  0.00  0.00    +0.000 OA
ATOM     79  N   GLU A  49      -9.809  -2.090  31.004  0.00  0.00    +0.000 N 
ATOM     80  H   GLU A  49     -10.569  -1.573  30.661  0.00  0.00    +0.000 HD
BRANCH  79  81
ATOM     81  CA  GLU A  49      -8.965  -1.504  32.044  0.00  0.00    +0.000 C 
BRANCH  81  82
ATOM     82  C   GLU A  49      -9.563  -1.745  33.432  0.00  0.00    +0.000 C 
ATOM     83  O   GLU A  49     -10.782  -1.681  33.602  0.00  0.00    +0.000 OA
ATOM     84  N   PRO A  50      -8.710  -2.027  34.445  0.00  0.00    +0.000 N 
ATOM     85  CA  PRO A  50      -9.169  -2.276  35.822  0.00  0.00    +0.000 C 
ATOM     86  CB  PRO A  50      -7.910  -2.791  36.527  0.00  0.00    +0.000 C 
ATOM     87  CG  PRO A  50      -6.768  -2.234  35.752  0.00  0.00    +0.000 C 
ATOM     88  CD  PRO A  50      -7.238  -2.132  34.326  0.00  0.00    +0.000 C 
BRANCH  85  89
ATOM     89  C   PRO A  50      -9.691  -1.014  36.511  0.00  0.00    +0.000 C 
ATOM     90  O   PRO A  50      -9.054   0.040  36.462  0.00  0.00    +0.000 OA
ATOM     91  N   LEU A  51     -10.856  -1.135  37.149  0.00  0.00    +0.000 N 
ATOM     92  H   LEU A  51     -11.298  -2.003  37.169  0.00  0.00    +0.000 HD
BRANCH  91  93
ATOM     93  CA  LEU A  51     -11.475  -0.020  37.850  0.00  0.00    +0.000 C 
BRANCH  93  94
ATOM     94  C   LEU A  51     -12.153  -0.508  39.127  0.00  0.00    +0.000 C 
ATOM     95  O   LEU A  51     -13.343  -0.835  39.132  0.00  0.00    +0.000 OA
ATOM     96  N   THR A  52     -11.376  -0.564  40.202  0.00  0.00    +0.000 N 
ATOM     97  H   THR A  52     -10.434  -0.318  40.114  0.00  0.00    +0.000 HD
BRANCH  96  98
ATOM     98  CA  THR A  52     -11.880  -1.003  41.501  0.00  0.00    +0.000 C 
BRANCH  98  99
ATOM     99  C   THR A  52     -11.335  -0.127  42.629  0.00  0.00    +0.000 C 
ATOM    100  O   THR A  52     -10.204   0.356  42.550  0.00  0.00    +0.000 OA
ATOM    101  N   PRO A  53     -12.137   0.091  43.699  0.00  0.00    +0.000 N 
ATOM    102  CA  PRO A  53     -11.723   0.916  44.846  0.00  0.00    +0.000 C 
ATOM    103  CB  PRO A  53     -13.011   1.058  45.666  0.00  0.00    +0.000 C 
ATOM    104  CG  PRO A  53     -13.844  -0.120  45.297  0.00  0.00    +0.000 C 
ATOM    105  CD  PRO A  53     -13.509  -0.440  43.867  0.00  0.00    +0.000 C 
BRANCH 102 106
ATOM    106  C   PRO A  53     -10.623   0.258  45.681  0.00  0.00    +0.000 C 
ATOM    107  O   PRO A  53     -10.809  -0.832  46.229  0.00  0.00    +0.000 OA
ATOM    108  N   SER A  54      -9.476   0.930  45.763  0.00  0.00    +0.000 N 
ATOM    109  H   SER A  54      -9.393   1.788  45.295  0.00  0.00    +0.000 HD
BRANCH 108 110
ATOM    110  CA  SER A  54      -8.339   0.428  46.529  0.00  0.00    +0.000 C 
BRANCH 110 111
ATOM    111  C   SER A  54      -8.250   1.121  47.888  0.00  0.00    +0.000 C 
ATOM    112  O   SER A  54      -7.482   0.704  48.758  0.00  0.00    +0.000 OA
ATOM    113  N   GLY A  55      -9.044   2.179  48.061  0.00  0.00    +0.000 N 
ATOM    114  H   GLY A  55      -9.635   2.458  47.330  0.00  0.00    +0.000 HD
BRANCH 113 115
ATOM    115  CA  GLY A  55      -9.045   2.918  49.313  0.00  0.00    +0.000 C 
BRANCH 115 116
ATOM    116  C   GLY A  55     -10.021   4.077  49.300  0.00  0.00    +0.000 C 
ATOM    117  O   GLY A  55      -9.616   5.235  49.179  0.00  0.00    +0.000 OA
ATOM    118  N   GLU A  56     -11.310   3.763  49.426  0.00  0.00    +0.000 N 
ATOM    119  H   GLU A  56     -11.564   2.821  49.518  0.00  0.00    +0.000 HD
BRANCH 118 120
ATOM    120  CA  GLU A  56     -12.357   4.783  49.429  0.00  0.00    +0.000 C 
BRANCH 120 121
ATOM    121  C   GLU A  56     -13.265   4.634  50.648  0.00  0.00    +0.000 C 
ATOM    122  O   GLU A  56     -13.637   5.624  51.279  0.00  0.00    +0.000 OA
ATOM    123  N   LYS A  57     -13.618   3.387  50.972  0.00  0.00    +0.000 N 
ATOM    124  H   LYS A  57     -13.289   2.644  50.428  0.00  0.00    +0.000 HD
BRANCH 123 125
ATOM    125  CA  LYS A  57     -14.483   3.097  52.114  0.00  0.00    +0.000 C 
BRANCH 125 126
ATOM    126  C   LYS A  57     -13.677   2.999  53.410  0.00  0.00    +0.000 C 
ATOM    127  O   LYS A  57     -14.092   3.521  54.447  0.00  0.00    +0.000 OA
ATOM    128  N   LEU A  58     -12.526   2.328  53.341  0.00  0.00    +0.000 N 
ATOM    129  H   LEU A  58     -12.256   1.937  52.487  0.00  0.00    +0.000 HD
BRANCH 128 130
ATOM    130  CA  LEU A  58     -11.657   2.158  54.504  0.00  0.00    +0.000 C 
BRANCH 130 131
ATOM    131  C   LEU A  58     -10.642   3.295  54.614  0.00  0.00    +0.000 C 
ATOM    132  O   LEU A  58      -9.929   3.408  55.613  0.00  0.00    +0.000 OA
ATOM    133  N   TRP A  59     -10.588   4.136  53.581  0.00  0.00    +0.000 N 
ATOM    134  H   TRP A  59     -11.187   3.993  52.820  0.00  0.00    +0.000 HD
BRANCH 133 135
ATOM    135  CA  TRP A  59      -9.663   5.267  53.554  0.00  0.00    +0.000 C 
BRANCH 135 136
ATOM    136  C   TRP A  59     -10.396   6.560  53.208  0.00  0.00    +0.000 C 
ATOM    137  O   TRP A  59     -11.324   6.558  52.398  0.00  0.00    +0.000 OA
ATOM    138  N   SER A  60      -9.970   7.658  53.829  0.00  0.00    +0.000 N 
ATOM    139  H   SER A  60      -9.226   7.588  54.464  0.00  0.00    +0.000 HD
BRANCH 138 140
ATOM    140  CA  SER A  60     -10.580   8.964  53.594  0.00  0.00    +0.000 C 
BRANCH 140 141
ATOM    141  C   SER A  60      -9.712   9.808  52.663  0.00  0.00    +0.000 C 
ATOM    142  O   SER A  60     -10.212  10.206  51.591  0.00  0.00    +0.000 OA
ATOM    143  OXT SER A  60      -8.539  10.061  53.014  0.00  0.00    +0.000 OA
ENDBRANCH 140 141
BRANCH 140 144
ATOM    144  CB  SER A  60     -10.798   9.696  54.922  0.00  0.00    +0.000 C 
BRANCH 144 145
ATOM    145  OG  SER A  60     -11.589  10.858  54.742  0.00  0.00    +0.000 OA
ATOM    146  HG  SER A  60     -11.680  11.043  53.805  0.00  0.00    +0.000 HD
ENDBRANCH 144 145
ENDBRANCH 140 144
ENDBRANCH 138 140
ENDBRANCH 135 136
BRANCH 135 147
ATOM    147  CB  TRP A  59      -8.543   5.017  52.541  0.00  0.00    +0.000 C 
BRANCH 147 148
ATOM    148  CG  TRP A  59      -7.569   3.962  52.978  0.00  0.00    +0.000 A 
ATOM    149  CD1 TRP A  59      -7.694   2.613  52.806  0.00  0.00    +0.000 A 
ATOM    150  CD2 TRP A  59      -6.323   4.166  53.659  0.00  0.00    +0.000 A 
ATOM    151  NE1 TRP A  59      -6.604   1.967  53.337  0.00  0.00    +0.000 N 
ATOM    152  CE2 TRP A  59      -5.749   2.898  53.866  0.00  0.00    +0.000 A 
ATOM    153  CE3 TRP A  59      -5.636   5.298  54.114  0.00  0.00    +0.000 A 
ATOM    154  CZ2 TRP A  59      -4.524   2.730  54.507  0.00  0.00    +0.000 A 
ATOM    155  CZ3 TRP A  59      -4.421   5.129  54.749  0.00  0.00    +0.000 A 
ATOM    156  CH2 TRP A  59      -3.875   3.853  54.939  0.00  0.00    +0.000 A 
ATOM    157  HE1 TRP A  59      -6.462   0.997  53.337  0.00  0.00    +0.000 HD
ENDBRANCH 147 148
ENDBRANCH 135 147
ENDBRANCH 133 135
ENDBRANCH 130 131
BRANCH 130 158
ATOM    158  CB  LEU A  58     -10.929   0.811  54.430  0.00  0.00    +0.000 C 
BRANCH 158 159
ATOM    159  CG  LEU A  58     -11.818  -0.424  54.597  0.00  0.00    +0.000 C 
ATOM    160  CD1 LEU A  58     -11.252  -1.597  53.812  0.00  0.00    +0.000 C 
ATOM    161  CD2 LEU A  58     -11.958  -0.788  56.069  0.00  0.00    +0.000 C 
ENDBRANCH 158 159
ENDBRANCH 130 158
ENDBRANCH 128 130
ENDBRANCH 125 126
BRANCH 125 162
ATOM    162  CB  LYS A  57     -15.257   1.797  51.880  0.00  0.00    +0.000 C 
BRANCH 162 163
ATOM    163  CG  LYS A  57     -16.384   1.930  50.868  0.00  0.00    +0.000 C 
BRANCH 163 164
ATOM    164  CD  LYS A  57     -17.119   0.612  50.676  0.00  0.00    +0.000 C 
BRANCH 164 165
ATOM    165  CE  LYS A  57     -18.248   0.742  49.665  0.00  0.00    +0.000 C 
BRANCH 165 166
ATOM    166  NZ  LYS A  57     -17.740   0.836  48.268  0.00  0.00    +0.000 N 
ATOM    167  HZ1 LYS A  57     -17.195  -0.017  48.028  0.00  0.00    +0.000 HD
ATOM    168  HZ2 LYS A  57     -17.124   1.669  48.167  0.00  0.00    +0.000 HD
ATOM    169  HZ3 LYS A  57     -18.535   0.925  47.603  0.00  0.00    +0.000 HD
ENDBRANCH 165 166
ENDBRANCH 164 165
ENDBRANCH 163 164
ENDBRANCH 162 163
ENDBRANCH 125 162
ENDBRANCH 123 125
ENDBRANCH 120 121
BRANCH 120 170
ATOM    170  CB  GLU A  56     -13.188   4.702  48.145  0.00  0.00    +0.000 C 
BRANCH 170 171
ATOM    171  CG  GLU A  56     -12.464   5.226  46.914  0.00  0.00    +0.000 C 
BRANCH 171 172
ATOM    172  CD  GLU A  56     -13.308   5.134  45.659  0.00  0.00    +0.000 C 
ATOM    173  OE1 GLU A  56     -14.039   6.102  45.360  0.00  0.00    +0.000 OA
ATOM    174  OE2 GLU A  56     -13.239   4.092  44.972  0.00  0.00    +0.000 OA
ENDBRANCH 171 172
ENDBRANCH 170 171
ENDBRANCH 120 170
ENDBRANCH 118 120
ENDBRANCH 115 116
ENDBRANCH 113 115
ENDBRANCH 110 111
BRANCH 110 175
ATOM    175  CB  SER A  54      -7.040   0.639  45.746  0.00  0.00    +0.000 C 
BRANCH 175 176
ATOM    176  OG  SER A  54      -5.956  -0.039  46.359  0.00  0.00    +0.000 OA
ATOM    177  HG  SER A  54      -6.232  -0.924  46.610  0.00  0.00    +0.000 HD
ENDBRANCH 175 176
ENDBRANCH 110 175
ENDBRANCH 108 110
ENDBRANCH 102 106
ENDBRANCH  98  99
BRANCH  98 178
ATOM    178  CB  THR A  52     -11.510  -2.473  41.786  0.00  0.00    +0.000 C 
ATOM    179  CG2 THR A  52     -12.361  -3.421  40.954  0.00  0.00    +0.000 C 
BRANCH 178 180
ATOM    180  OG1 THR A  52     -10.123  -2.695  41.501  0.00  0.00    +0.000 OA
ATOM    181  HG1 THR A  52      -9.911  -3.620  41.642  0.00  0.00    +0.000 HD
ENDBRANCH 178 180
ENDBRANCH  98 178
ENDBRANCH  96  98
ENDBRANCH  93  94
BRANCH  93 182
ATOM    182  CB  LEU A  51     -12.489   0.695  36.946  0.00  0.00    +0.000 C 
BRANCH 182 183
ATOM    183  CG  LEU A  51     -11.887   1.451  35.756  0.00  0.00    +0.000 C 
ATOM    184  CD1 LEU A  51     -12.860   1.468  34.589  0.00  0.00    +0.000 C 
ATOM    185  CD2 LEU A  51     -11.513   2.872  36.157  0.00  0.00    +0.000 C 
ENDBRANCH 182 183
ENDBRANCH  93 182
ENDBRANCH  91  93
ENDBRANCH  85  89
ENDBRANCH  81  82
BRANCH  81 186
ATOM    186  CB  GLU A  49      -8.789   0.000  31.806  0.00  0.00    +0.000 C 
BRANCH 186 187
ATOM    187  CG  GLU A  49      -7.878   0.336  30.633  0.00  0.00    +0.000 C 
BRANCH 187 188
ATOM    188  CD  GLU A  49      -8.585   0.241  29.294  0.00  0.00    +0.000 C 
ATOM    189  OE1 GLU A  49      -8.612  -0.865  28.713  0.00  0.00    +0.000 OA
ATOM    190  OE2 GLU A  49      -9.114   1.272  28.827  0.00  0.00    +0.000 OA
ENDBRANCH 187 188
ENDBRANCH 186 187
ENDBRANCH  81 186
ENDBRANCH  79  81
ENDBRANCH  76  77
BRANCH  76 191
ATOM    191  CB  VAL A  48     -10.174  -5.220  28.983  0.00  0.00    +0.000 C 
ATOM    192  CG1 VAL A  48     -10.588  -6.237  30.039  0.00  0.00    +0.000 C 
ATOM    193  CG2 VAL A  48     -10.807  -5.564  27.640  0.00  0.00    +0.000 C 
ENDBRANCH  76 191
ENDBRANCH  74  76
ENDBRANCH  71  72
BRANCH  71 194
ATOM    194  CB  LEU A  47     -12.782  -1.414  25.758  0.00  0.00    +0.000 C 
BRANCH 194 195
ATOM    195  CG  LEU A  47     -12.936  -0.248  24.779  0.00  0.00    +0.000 C 
ATOM    196  CD1 LEU A  47     -12.485  -0.656  23.387  0.00  0.00    +0.000 C 
ATOM    197  CD2 LEU A  47     -14.379   0.237  24.753  0.00  0.00    +0.000 C 
ENDBRANCH 194 195
ENDBRANCH  71 194
ENDBRANCH  69  71
ENDBRANCH  66  67
BRANCH  66 198
ATOM    198  CB  GLU A  46      -8.807  -2.080  23.299  0.00  0.00    +0.000 C 
BRANCH 198 199
ATOM    199  CG  GLU A  46      -8.962  -1.344  21.978  0.00  0.00    +0.000 C 
BRANCH 199 200
ATOM    200  CD  GLU A  46      -9.486  -2.238  20.871  0.00  0.00    +0.000 C 
ATOM    201  OE1 GLU A  46     -10.721  -2.321  20.709  0.00  0.00    +0.000 OA
ATOM    202  OE2 GLU A  46      -8.660  -2.855  20.165  0.00  0.00    +0.000 OA
ENDBRANCH 199 200
ENDBRANCH 198 199
ENDBRANCH  66 198
ENDBRANCH  64  66
ENDBRANCH  61  62
BRANCH  61 203
ATOM    203  CB  ARG A  45      -4.390  -1.605  26.915  0.00  0.00    +0.000 C 
BRANCH 203 204
ATOM    204  CG  ARG A  45      -3.410  -2.040  27.996  0.00  0.00    +0.000 C 
BRANCH 204 205
ATOM    205  CD  ARG A  45      -3.366  -1.047  29.147  0.00  0.00    +0.000 C 
BRANCH 205 206
ATOM    206  NE  ARG A  45      -2.427  -1.457  30.191  0.00  0.00    +0.000 N 
ATOM    207  CZ  ARG A  45      -2.198  -0.763  31.307  0.00  0.00    +0.000 C 
ATOM    208  NH1 ARG A  45      -2.835   0.381  31.534  0.00  0.00    +0.000 N 
ATOM    209  NH2 ARG A  45      -1.326  -1.215  32.199  0.00  0.00    +0.000 N 
ATOM    210  HE  ARG A  45      -1.940  -2.297  30.054  0.00  0.00    +0.000 HD
ATOM    211 HH11 ARG A  45      -3.493   0.727  30.867  0.00  0.00    +0.000 HD
ATOM    212 HH12 ARG A  45      -2.657   0.893  32.374  0.00  0.00    +0.000 HD
ATOM    213 HH21 ARG A  45      -0.842  -2.075  32.035  0.00  0.00    +0.000 HD
ATOM    214 HH22 ARG A  45      -1.152  -0.696  33.036  0.00  0.00    +0.000 HD
ENDBRANCH 205 206
ENDBRANCH 204 205
ENDBRANCH 203 204
ENDBRANCH  61 203
ENDBRANCH  59  61
ENDBRANCH  56  57
BRANCH  56 215
ATOM    215  CB  GLU A  44      -5.582  -6.533  27.612  0.00  0.00    +0.000 C 
BRANCH 215 216
ATOM    216  CG  GLU A  44      -5.936  -7.274  28.895  0.00  0.00    +0.000 C 
BRANCH 216 217
ATOM    217  CD  GLU A  44      -6.587  -8.619  28.636  0.00  0.00    +0.000 C 
ATOM    218  OE1 GLU A  44      -7.830  -8.669  28.538  0.00  0.00    +0.000 OA
ATOM    219  OE2 GLU A  44      -5.851  -9.624  28.532  0.00  0.00    +0.000 OA
ENDBRANCH 216 217
ENDBRANCH 215 216
ENDBRANCH  56 215
ENDBRANCH  54  56
ENDBRANCH  51  52
BRANCH  51 220
ATOM    220  CB  GLN A  43      -8.185  -7.309  22.769  0.00  0.00    +0.000 C 
BRANCH 220 221
ATOM    221  CG  GLN A  43      -9.655  -7.255  22.383  0.00  0.00    +0.000 C 
BRANCH 221 222
ATOM    222  CD  GLN A  43     -10.183  -8.594  21.907  0.00  0.00    +0.000 C 
ATOM    223  OE1 GLN A  43     -10.672  -9.399  22.701  0.00  0.00    +0.000 OA
ATOM    224  NE2 GLN A  43     -10.085  -8.840  20.606  0.00  0.00    +0.000 N 
ATOM    225 HE21 GLN A  43      -9.684  -8.153  20.034  0.00  0.00    +0.000 HD
ATOM    226 HE22 GLN A  43     -10.419  -9.700  20.271  0.00  0.00    +0.000 HD
ENDBRANCH 221 222
ENDBRANCH 220 221
ENDBRANCH  51 220
ENDBRANCH  49  51
ENDBRANCH  46  47
BRANCH  46 227
ATOM    227  CB  LEU A  42      -3.968  -5.273  20.837  0.00  0.00    +0.000 C 
BRANCH 227 228
ATOM    228  CG  LEU A  42      -4.277  -4.290  19.701  0.00  0.00    +0.000 C 
ATOM    229  CD1 LEU A  42      -3.309  -4.492  18.545  0.00  0.00    +0.000 C 
ATOM    230  CD2 LEU A  42      -5.714  -4.457  19.224  0.00  0.00    +0.000 C 
ENDBRANCH 227 228
ENDBRANCH  46 227
ENDBRANCH  44  46
ENDBRANCH  41  42
BRANCH  41 231
ATOM    231  CB  LEU A  41      -1.247  -5.510  25.779  0.00  0.00    +0.000 C 
BRANCH 231 232
ATOM    232  CG  LEU A  41      -0.557  -6.047  27.039  0.00  0.00    +0.000 C 
ATOM    233  CD1 LEU A  41       0.931  -5.742  27.001  0.00  0.00    +0.000 C 
ATOM    234  CD2 LEU A  41      -1.186  -5.454  28.295  0.00  0.00    +0.000 C 
ENDBRANCH 231 232
ENDBRANCH  41 231
ENDBRANCH  39  41
ENDBRANCH  36  37
BRANCH  36 235
ATOM    235  CB  ARG A  40      -1.969 -10.671  25.107  0.00  0.00    +0.000 C 
BRANCH 235 236
ATOM    236  CG  ARG A  40      -1.976 -12.095  24.571  0.00  0.00    +0.000 C 
BRANCH 236 237
ATOM    237  CD  ARG A  40      -1.009 -12.986  25.335  0.00  0.00    +0.000 C 
BRANCH 237 238
ATOM    238  NE  ARG A  40      -1.518 -13.343  26.660  0.00  0.00    +0.000 N 
ATOM    239  CZ  ARG A  40      -0.863 -14.114  27.531  0.00  0.00    +0.000 C 
ATOM    240  NH1 ARG A  40       0.329 -14.615  27.226  0.00  0.00    +0.000 N 
ATOM    241  NH2 ARG A  40      -1.403 -14.384  28.711  0.00  0.00    +0.000 N 
ATOM    242  HE  ARG A  40      -2.395 -12.989  26.917  0.00  0.00    +0.000 HD
ATOM    243 HH11 ARG A  40       0.743 -14.416  26.338  0.00  0.00    +0.000 HD
ATOM    244 HH12 ARG A  40       0.813 -15.191  27.885  0.00  0.00    +0.000 HD
ATOM    245 HH21 ARG A  40      -2.300 -14.009  28.948  0.00  0.00    +0.000 HD
ATOM    246 HH22 ARG A  40      -0.915 -14.961  29.365  0.00  0.00    +0.000 HD
ENDBRANCH 237 238
ENDBRANCH 236 237
ENDBRANCH 235 236
ENDBRANCH  36 235
ENDBRANCH  34  36
ENDBRANCH  31  32
BRANCH  31 247
ATOM    247  CB  ARG A  39      -2.242  -9.538  19.907  0.00  0.00    +0.000 C 
BRANCH 247 248
ATOM    248  CG  ARG A  39      -1.880  -9.118  18.492  0.00  0.00    +0.000 C 
BRANCH 248 249
ATOM    249  CD  ARG A  39      -1.512 -10.317  17.631  0.00  0.00    +0.000 C 
BRANCH 249 250
ATOM    250  NE  ARG A  39      -0.138 -10.760  17.864  0.00  0.00    +0.000 N 
ATOM    251  CZ  ARG A  39       0.614 -11.378  16.952  0.00  0.00    +0.000 C 
ATOM    252  NH1 ARG A  39       0.131 -11.636  15.741  0.00  0.00    +0.000 N 
ATOM    253  NH2 ARG A  39       1.853 -11.742  17.252  0.00  0.00    +0.000 N 
ATOM    254  HE  ARG A  39       0.249 -10.586  18.748  0.00  0.00    +0.000 HD
ATOM    255 HH11 ARG A  39      -0.803 -11.366  15.506  0.00  0.00    +0.000 HD
ATOM    256 HH12 ARG A  39       0.702 -12.101  15.063  0.00  0.00    +0.000 HD
ATOM    257 HH21 ARG A  39       2.224 -11.552  18.161  0.00  0.00    +0.000 HD
ATOM    258 HH22 ARG A  39       2.418 -12.206  16.570  0.00  0.00    +0.000 HD
ENDBRANCH 249 250
ENDBRANCH 248 249
ENDBRANCH 247 248
ENDBRANCH  31 247
ENDBRANCH  29  31
ENDBRANCH  26  27
BRANCH  26 259
ATOM    259  CB  LEU A  38       1.533  -5.773  20.787  0.00  0.00    +0.000 C 
BRANCH 259 260
ATOM    260  CG  LEU A  38       1.448  -4.246  20.660  0.00  0.00    +0.000 C 
ATOM    261  CD1 LEU A  38       2.315  -3.563  21.712  0.00  0.00    +0.000 C 
ATOM    262  CD2 LEU A  38       1.861  -3.809  19.263  0.00  0.00    +0.000 C 
ENDBRANCH 259 260
ENDBRANCH  26 259
ENDBRANCH  24  26
ENDBRANCH  21  22
BRANCH  21 263
ATOM    263  CB  THR A  37       3.198  -9.062  24.795  0.00  0.00    +0.000 C 
ATOM    264  CG2 THR A  37       3.684 -10.308  25.523  0.00  0.00    +0.000 C 
BRANCH 263 265
ATOM    265  OG1 THR A  37       4.226  -8.583  23.920  0.00  0.00    +0.000 OA
ATOM    266  HG1 THR A  37       5.016  -9.118  24.030  0.00  0.00    +0.000 HD
ENDBRANCH 263 265
ENDBRANCH  21 263
ENDBRANCH  19  21
ENDBRANCH  16  17
BRANCH  16 267
ATOM    267  CB  ARG A  36       1.135 -13.093  20.974  0.00  0.00    +0.000 C 
BRANCH 267 268
ATOM    268  CG  ARG A  36       1.178 -13.785  19.620  0.00  0.00    +0.000 C 
BRANCH 268 269
ATOM    269  CD  ARG A  36       0.585 -15.182  19.689  0.00  0.00    +0.000 C 
BRANCH 269 270
ATOM    270  NE  ARG A  36       0.622 -15.858  18.392  0.00  0.00    +0.000 N 
ATOM    271  CZ  ARG A  36       0.163 -17.093  18.178  0.00  0.00    +0.000 C 
ATOM    272  NH1 ARG A  36      -0.370 -17.796  19.171  0.00  0.00    +0.000 N 
ATOM    273  NH2 ARG A  36       0.239 -17.624  16.966  0.00  0.00    +0.000 N 
ATOM    274  HE  ARG A  36       1.009 -15.366  17.639  0.00  0.00    +0.000 HD
ATOM    275 HH11 ARG A  36      -0.431 -17.401  20.088  0.00  0.00    +0.000 HD
ATOM    276 HH12 ARG A  36      -0.711 -18.721  19.002  0.00  0.00    +0.000 HD
ATOM    277 HH21 ARG A  36       0.639 -17.100  16.214  0.00  0.00    +0.000 HD
ATOM    278 HH22 ARG A  36      -0.103 -18.550  16.805  0.00  0.00    +0.000 HD
ENDBRANCH 269 270
ENDBRANCH 268 269
ENDBRANCH 267 268
ENDBRANCH  16 267
ENDBRANCH  14  16
ENDBRANCH  11  12
BRANCH  11 279
ATOM    279  CB  LYS A  35       6.017 -10.456  21.512  0.00  0.00    +0.000 C 
BRANCH 279 280
ATOM    280  CG  LYS A  35       7.430 -10.956  21.774  0.00  0.00    +0.000 C 
BRANCH 280 281
ATOM    281  CD  LYS A  35       7.991 -10.382  23.066  0.00  0.00    +0.000 C 
BRANCH 281 282
ATOM    282  CE  LYS A  35       9.403 -10.879  23.328  0.00  0.00    +0.000 C 
BRANCH 282 283
ATOM    283  NZ  LYS A  35       9.963 -10.324  24.592  0.00  0.00    +0.000 N 
ATOM    284  HZ1 LYS A  35       9.369 -10.606  25.398  0.00  0.00    +0.000 HD
ATOM    285  HZ2 LYS A  35       9.993  -9.287  24.543  0.00  0.00    +0.000 HD
ATOM    286  HZ3 LYS A  35      10.927 -10.681  24.744  0.00  0.00    +0.000 HD
ENDBRANCH 282 283
ENDBRANCH 281 282
ENDBRANCH 280 281
ENDBRANCH 279 280
ENDBRANCH  11 279
ENDBRANCH   9  11
ENDBRANCH   6   7
BRANCH   6 287
ATOM    287  CB  ARG A  34       5.783  -9.223  16.152  0.00  0.00    +0.000 C 
BRANCH 287 288
ATOM    288  CG  ARG A  34       5.755  -7.854  16.816  0.00  0.00    +0.000 C 
BRANCH 288 289
ATOM    289  CD  ARG A  34       4.666  -6.972  16.229  0.00  0.00    +0.000 C 
BRANCH 289 290
ATOM    290  NE  ARG A  34       4.699  -5.618  16.783  0.00  0.00    +0.000 N 
ATOM    291  CZ  ARG A  34       3.927  -4.617  16.358  0.00  0.00    +0.000 C 
ATOM    292  NH1 ARG A  34       3.056  -4.806  15.372  0.00  0.00    +0.000 N 
ATOM    293  NH2 ARG A  34       4.026  -3.420  16.922  0.00  0.00    +0.000 N 
ATOM    294  HE  ARG A  34       5.331  -5.445  17.512  0.00  0.00    +0.000 HD
ATOM    295 HH11 ARG A  34       2.976  -5.706  14.943  0.00  0.00    +0.000 HD
ATOM    296 HH12 ARG A  34       2.481  -4.049  15.061  0.00  0.00    +0.000 HD
ATOM    297 HH21 ARG A  34       4.679  -3.271  17.664  0.00  0.00    +0.000 HD
ATOM    298 HH22 ARG A  34       3.449  -2.669  16.605  0.00  0.00    +0.000 HD
ENDBRANCH 289 290
ENDBRANCH 288 289
ENDBRANCH 287 288
ENDBRANCH   6 287
ENDBRANCH   4   6
ENDBRANCH   1   2
BRANCH   1 301
ATOM    299  C   ILE A  32       7.229 -13.942  13.993  0.00  0.00    +0.000 C 
ATOM    300  O   ILE A  32       7.530 -14.750  14.873  0.00  0.00    +0.000 OA
ATOM    301  N   VAL A  33       7.891 -12.800  13.793  0.00  0.00    +0.000 N 
ATOM    302  H   VAL A  33       7.599 -12.202  13.074  0.00  0.00    +0.000 HD
BRANCH 299 303
ATOM    303  CA  ILE A  32       6.047 -14.212  13.057  0.00  0.00    +0.000 C 
BRANCH 303 306
ATOM    304  C   HIS A  31       4.635 -12.215  13.190  0.00  0.00    +0.000 C 
ATOM    305  O   HIS A  31       4.218 -12.517  14.310  0.00  0.00    +0.000 OA
ATOM    306  N   ILE A  32       5.509 -12.962  12.512  0.00  0.00    +0.000 N 
ATOM    307  H   ILE A  32       5.800 -12.667  11.625  0.00  0.00    +0.000 HD
BRANCH 304 308
ATOM    308  CA  HIS A  31       4.157 -10.935  12.503  0.00  0.00    +0.000 C 
BRANCH 308 311
ATOM    309  C   ARG A  30       6.301  -9.844  12.026  0.00  0.00    +0.000 C 
ATOM    310  O   ARG A  30       6.578  -9.738  13.223  0.00  0.00    +0.000 OA
ATOM    311  N   HIS A  31       5.170 -10.401  11.586  0.00  0.00    +0.000 N 
ATOM    312  H   HIS A  31       5.011 -10.456  10.621  0.00  0.00    +0.000 HD
BRANCH 309 313
ATOM    313  CA  ARG A  30       7.266  -9.327  10.957  0.00  0.00    +0.000 C 
BRANCH 313 316
ATOM    314  C   ARG A  29       7.521 -11.176   9.368  0.00  0.00    +0.000 C 
ATOM    315  O   ARG A  29       8.199 -11.839  10.155  0.00  0.00    +0.000 OA
ATOM    316  N   ARG A  30       7.031  -9.970   9.661  0.00  0.00    +0.000 N 
ATOM    317  H   ARG A  30       6.497  -9.498   8.989  0.00  0.00    +0.000 HD
BRANCH 314 318
ATOM    318  CA  ARG A  29       7.196 -11.717   7.974  0.00  0.00    +0.000 C 
BRANCH 318 321
ATOM    319  C   ARG A  28       4.800 -11.314   7.669  0.00  0.00    +0.000 C 
ATOM    320  O   ARG A  28       4.489 -12.211   8.455  0.00  0.00    +0.000 OA
ATOM    321  N   ARG A  29       6.064 -11.007   7.376  0.00  0.00    +0.000 N 
ATOM    322  H   ARG A  29       6.242 -10.282   6.739  0.00  0.00    +0.000 HD
BRANCH 319 323
ATOM    323  CA  ARG A  28       3.720 -10.484   6.971  0.00  0.00    +0.000 C 
BRANCH 323 326
ATOM    324  C   ILE A  27       4.546  -8.239   7.516  0.00  0.00    +0.000 C 
ATOM    325  O   ILE A  27       4.463  -8.443   8.728  0.00  0.00    +0.000 OA
ATOM    326  N   ARG A  28       4.216  -9.154   6.598  0.00  0.00    +0.000 N 
ATOM    327  H   ARG A  28       4.306  -8.929   5.648  0.00  0.00    +0.000 HD
BRANCH 324 328
ATOM    328  CA  ILE A  27       5.049  -6.892   6.987  0.00  0.00    +0.000 C 
BRANCH 328 331
ATOM    329  C   PHE A  26       7.102  -7.391   5.749  0.00  0.00    +0.000 C 
ATOM    330  O   PHE A  26       7.745  -7.570   6.785  0.00  0.00    +0.000 OA
ATOM    331  N   ILE A  27       5.806  -7.059   5.744  0.00  0.00    +0.000 N 
ATOM    332  H   ILE A  27       5.352  -6.916   4.884  0.00  0.00    +0.000 HD
BRANCH 329 333
ATOM    333  CA  PHE A  26       7.774  -7.542   4.383  0.00  0.00    +0.000 C 
BRANCH 333 336
ATOM    334  C   LEU A  25       6.623  -9.513   3.491  0.00  0.00    +0.000 C 
ATOM    335  O   LEU A  25       7.109 -10.256   4.346  0.00  0.00    +0.000 OA
ATOM    336  N   PHE A  26       6.886  -8.203   3.427  0.00  0.00    +0.000 N 
ATOM    337  H   PHE A  26       6.476  -7.670   2.713  0.00  0.00    +0.000 HD
BRANCH 334 338
ATOM    338  CA  LEU A  25       5.670 -10.063   2.431  0.00  0.00    +0.000 C 
BRANCH 338 341
ATOM    339  C   GLY A  24       3.797  -8.499   2.629  0.00  0.00    +0.000 C 
ATOM    340  O   GLY A  24       3.528  -8.874   3.772  0.00  0.00    +0.000 OA
ATOM    341  N   LEU A  25       4.802  -9.008   1.909  0.00  0.00    +0.000 N 
ATOM    342  H   LEU A  25       4.961  -8.665   1.004  0.00  0.00    +0.000 HD
BRANCH 339 343
ATOM    343  CA  GLY A  24       2.985  -7.399   1.968  0.00  0.00    +0.000 C 
BRANCH 343 346
ATOM    344  C   ILE A  23       4.630  -5.607   2.075  0.00  0.00    +0.000 C 
ATOM    345  O   ILE A  23       4.716  -5.688   3.304  0.00  0.00    +0.000 OA
ATOM    346  N   GLY A  24       3.827  -6.389   1.344  0.00  0.00    +0.000 N 
ATOM    347  H   GLY A  24       3.805  -6.274   0.370  0.00  0.00    +0.000 HD
BRANCH 344 348
ATOM    348  CA  ILE A  23       5.473  -4.592   1.296  0.00  0.00    +0.000 C 
BRANCH 348 351
ATOM    349  C   GLY A  22       6.774  -6.211  -0.004  0.00  0.00    +0.000 C 
ATOM    350  O   GLY A  22       7.209  -6.763   1.008  0.00  0.00    +0.000 OA
ATOM    351  N   ILE A  23       5.938  -5.169   0.033  0.00  0.00    +0.000 N 
ATOM    352  H   ILE A  23       5.626  -4.780  -0.812  0.00  0.00    +0.000 HD
BRANCH 349 353
ATOM    353  CA  GLY A  22       7.163  -6.708  -1.385  0.00  0.00    +0.000 C 
BRANCH 353 356
ATOM    354  C   LEU A  21       5.261  -8.133  -1.910  0.00  0.00    +0.000 C 
ATOM    355  O   LEU A  21       5.489  -8.877  -0.954  0.00  0.00    +0.000 OA
ATOM    356  N   GLY A  22       6.007  -7.061  -2.197  0.00  0.00    +0.000 N 
ATOM    357  H   GLY A  22       5.770  -6.506  -2.971  0.00  0.00    +0.000 HD
BRANCH 354 358
ATOM    358  CA  LEU A  21       4.070  -8.397  -2.836  0.00  0.00    +0.000 C 
BRANCH 358 361
ATOM    359  C   ALA A  20       2.599  -6.556  -2.167  0.00  0.00    +0.000 C 
ATOM    360  O   ALA A  20       2.491  -6.981  -1.015  0.00  0.00    +0.000 OA
ATOM    361  N   LEU A  21       3.331  -7.163  -3.105  0.00  0.00    +0.000 N 
ATOM    362  H   LEU A  21       3.374  -6.770  -4.003  0.00  0.00    +0.000 HD
BRANCH 359 363
ATOM    363  CA  ALA A  20       1.888  -5.272  -2.592  0.00  0.00    +0.000 C 
ATOM    364  CB  ALA A  20       0.539  -5.598  -3.215  0.00  0.00    +0.000 C 
BRANCH 363 367
ATOM    365  C   VAL A  19       3.814  -3.862  -3.129  0.00  0.00    +0.000 C 
ATOM    366  O   VAL A  19       4.226  -3.891  -1.968  0.00  0.00    +0.000 OA
ATOM    367  N   ALA A  20       2.706  -4.493  -3.524  0.00  0.00    +0.000 N 
ATOM    368  H   ALA A  20       2.432  -4.433  -4.463  0.00  0.00    +0.000 HD
BRANCH 365 369
ATOM    369  CA  VAL A  19       4.580  -3.086  -4.207  0.00  0.00    +0.000 C 
BRANCH 369 372
ATOM    370  C   VAL A  18       5.290  -4.961  -5.617  0.00  0.00    +0.000 C 
ATOM    371  O   VAL A  18       5.951  -5.464  -4.705  0.00  0.00    +0.000 OA
ATOM    372  N   VAL A  19       4.599  -3.825  -5.474  0.00  0.00    +0.000 N 
ATOM    373  H   VAL A  19       4.092  -3.474  -6.238  0.00  0.00    +0.000 HD
BRANCH 370 374
ATOM    374  CA  VAL A  18       5.222  -5.636  -6.991  0.00  0.00    +0.000 C 
BRANCH 374 377
ATOM    375  C   LEU A  17       2.878  -6.360  -6.971  0.00  0.00    +0.000 C 
ATOM    376  O   LEU A  17       3.055  -7.088  -5.991  0.00  0.00    +0.000 OA
ATOM    377  N   VAL A  18       3.853  -5.624  -7.519  0.00  0.00    +0.000 N 
ATOM    378  H   VAL A  18       3.648  -5.067  -8.301  0.00  0.00    +0.000 HD
BRANCH 375 379
ATOM    379  CA  LEU A  17       1.495  -6.250  -7.618  0.00  0.00    +0.000 C 
BRANCH 379 382
ATOM    380  C   LEU A  16       0.940  -3.943  -7.010  0.00  0.00    +0.000 C 
ATOM    381  O   LEU A  16       0.961  -4.191  -5.804  0.00  0.00    +0.000 OA
ATOM    382  N   LEU A  17       1.179  -4.862  -7.951  0.00  0.00    +0.000 N 
ATOM    383  H   LEU A  17       1.132  -4.600  -8.895  0.00  0.00    +0.000 HD
BRANCH 380 384
ATOM    384  CA  LEU A  16       0.636  -2.532  -7.509  0.00  0.00    +0.000 C 
BRANCH 384 387
ATOM    385  C   LEU A  15       2.730  -2.061  -8.686  0.00  0.00    +0.000 C 
ATOM    386  O   LEU A  15       3.400  -2.140  -7.653  0.00  0.00    +0.000 OA
ATOM    387  N   LEU A  16       1.407  -2.236  -8.715  0.00  0.00    +0.000 N 
ATOM    388  H   LEU A  16       0.937  -2.163  -9.572  0.00  0.00    +0.000 HD
BRANCH 385 389
ATOM    389  CA  LEU A  15       3.397  -1.773 -10.029  0.00  0.00    +0.000 C 
BRANCH 389 392
ATOM    390  C   LEU A  14       2.979  -3.903 -11.144  0.00  0.00    +0.000 C 
ATOM    391  O   LEU A  14       3.650  -4.524 -10.316  0.00  0.00    +0.000 OA
ATOM    392  N   LEU A  15       2.793  -2.583 -11.087  0.00  0.00    +0.000 N 
ATOM    393  H   LEU A  15       2.230  -2.148 -11.766  0.00  0.00    +0.000 HD
BRANCH 390 394
ATOM    394  CA  LEU A  14       2.289  -4.637 -12.290  0.00  0.00    +0.000 C 
BRANCH 394 397
ATOM    395  C   LEU A  13      -0.056  -4.341 -11.673  0.00  0.00    +0.000 C 
ATOM    396  O   LEU A  13       0.078  -5.019 -10.651  0.00  0.00    +0.000 OA
ATOM    397  N   LEU A  14       0.948  -4.103 -12.525  0.00  0.00    +0.000 N 
ATOM    398  H   LEU A  14       0.781  -3.565 -13.331  0.00  0.00    +0.000 HD
BRANCH 395 399
ATOM    399  CA  LEU A  13      -1.408  -3.711 -12.014  0.00  0.00    +0.000 C 
BRANCH 399 402
ATOM    400  C   ALA A  12      -0.753  -1.378 -11.776  0.00  0.00    +0.000 C 
ATOM    401  O   ALA A  12      -0.416  -1.544 -10.604  0.00  0.00    +0.000 OA
ATOM    402  N   LEU A  13      -1.237  -2.357 -12.534  0.00  0.00    +0.000 N 
ATOM    403  H   LEU A  13      -1.486  -2.166 -13.461  0.00  0.00    +0.000 HD
BRANCH 400 404
ATOM    404  CA  ALA A  12      -0.622  -0.006 -12.425  0.00  0.00    +0.000 C 
ATOM    405  CB  ALA A  12      -1.966   0.706 -12.432  0.00  0.00    +0.000 C 
BRANCH 404 408
ATOM    406  C   GLY A  11       1.217  -0.322 -14.003  0.00  0.00    +0.000 C 
ATOM    407  O   GLY A  11       2.028  -0.541 -13.100  0.00  0.00    +0.000 OA
ATOM    408  N   ALA A  12      -0.076  -0.076 -13.781  0.00  0.00    +0.000 N 
ATOM    409  H   ALA A  12      -0.676   0.067 -14.547  0.00  0.00    +0.000 HD
BRANCH 406 410
ATOM    410  CA  GLY A  11       1.658  -0.347 -15.455  0.00  0.00    +0.000 C 
BRANCH 410 413
ATOM    411  C   VAL A  10       0.745  -2.487 -16.157  0.00  0.00    +0.000 C 
ATOM    412  O   VAL A  10       1.396  -3.102 -15.313  0.00  0.00    +0.000 OA
ATOM    413  N   GLY A  11       0.791  -1.165 -16.293  0.00  0.00    +0.000 N 
ATOM    414  H   GLY A  11       0.225  -0.741 -16.968  0.00  0.00    +0.000 HD
BRANCH 411 415
ATOM    415  CA  VAL A  10      -0.210  -3.222 -17.099  0.00  0.00    +0.000 C 
BRANCH 415 418
ATOM    416  C   LEU A   9      -2.270  -2.201 -16.274  0.00  0.00    +0.000 C 
ATOM    417  O   LEU A   9      -2.025  -2.530 -15.116  0.00  0.00    +0.000 OA
ATOM    418  N   VAL A  10      -1.457  -2.479 -17.292  0.00  0.00    +0.000 N 
ATOM    419  H   VAL A  10      -1.700  -2.179 -18.195  0.00  0.00    +0.000 HD
BRANCH 416 420
ATOM    420  CA  LEU A   9      -3.541  -1.426 -16.607  0.00  0.00    +0.000 C 
BRANCH 420 423
ATOM    421  C   GLY A   8      -2.446   0.676 -17.230  0.00  0.00    +0.000 C 
ATOM    422  O   GLY A   8      -1.850   0.765 -16.149  0.00  0.00    +0.000 OA
ATOM    423  N   LEU A   9      -3.265  -0.333 -17.538  0.00  0.00    +0.000 N 
ATOM    424  H   LEU A   9      -3.696  -0.341 -18.418  0.00  0.00    +0.000 HD
BRANCH 421 425
ATOM    425  CA  GLY A   8      -2.265   1.731 -18.307  0.00  0.00    +0.000 C 
BRANCH 425 428
ATOM    426  C   THR A   7      -0.955   0.671 -20.062  0.00  0.00    +0.000 C 
ATOM    427  O   THR A   7       0.073   0.707 -19.384  0.00  0.00    +0.000 OA
ATOM    428  N   GLY A   8      -2.128   1.146 -19.634  0.00  0.00    +0.000 N 
ATOM    429  H   GLY A   8      -2.907   1.098 -20.226  0.00  0.00    +0.000 HD
BRANCH 426 430
ATOM    430  CA  THR A   7      -0.940   0.068 -21.470  0.00  0.00    +0.000 C 
BRANCH 430 433
ATOM    431  C   ALA A   6      -2.693  -1.617 -21.138  0.00  0.00    +0.000 C 
ATOM    432  O   ALA A   6      -2.095  -2.143 -20.197  0.00  0.00    +0.000 OA
ATOM    433  N   THR A   7      -2.224  -0.556 -21.802  0.00  0.00    +0.000 N 
ATOM    434  H   THR A   7      -2.756  -0.184 -22.535  0.00  0.00    +0.000 HD
BRANCH 431 435
ATOM    435  CA  ALA A   6      -4.044  -2.161 -21.603  0.00  0.00    +0.000 C 
ATOM    436  CB  ALA A   6      -3.842  -3.293 -22.598  0.00  0.00    +0.000 C 
BRANCH 435 439
ATOM    437  C   ILE A   5      -5.625  -0.298 -21.449  0.00  0.00    +0.000 C 
ATOM    438  O   ILE A   5      -5.675  -0.366 -20.219  0.00  0.00    +0.000 OA
ATOM    439  N   ALA A   6      -4.873  -1.110 -22.194  0.00  0.00    +0.000 N 
ATOM    440  H   ALA A   6      -4.875  -1.000 -23.168  0.00  0.00    +0.000 HD
BRANCH 437 441
ATOM    441  CA  ILE A   5      -6.441   0.754 -22.205  0.00  0.00    +0.000 C 
BRANCH 441 444
ATOM    442  C   SER A   4      -4.795   2.141 -23.376  0.00  0.00    +0.000 C 
ATOM    443  O   SER A   4      -4.442   2.700 -22.335  0.00  0.00    +0.000 OA
ATOM    444  N   ILE A   5      -5.740   1.199 -23.412  0.00  0.00    +0.000 N 
ATOM    445  H   ILE A   5      -5.970   0.792 -24.272  0.00  0.00    +0.000 HD
BRANCH 442 446
ATOM    446  CA  SER A   4      -4.148   2.506 -24.714  0.00  0.00    +0.000 C 
BRANCH 446 449
ATOM    447  C   PRO A   3      -4.057   0.399 -25.959  0.00  0.00    +0.000 C 
ATOM    448  O   PRO A   3      -3.164  -0.057 -25.241  0.00  0.00    +0.000 OA
ATOM    449  N   SER A   4      -4.588   1.610 -25.785  0.00  0.00    +0.000 N 
ATOM    450  H   SER A   4      -5.296   1.909 -26.393  0.00  0.00    +0.000 HD
BRANCH 447 454
ATOM    451  C   ILE A   2      -2.657  -0.516 -28.635  0.00  0.00    +0.000 C 
ATOM    452  O   ILE A   2      -2.640   0.710 -28.760  0.00  0.00    +0.000 OA
ATOM    453  N   PRO A   3      -3.576  -1.146 -27.864  0.00  0.00    +0.000 N 
ATOM    454  CA  PRO A   3      -4.620  -0.421 -27.121  0.00  0.00    +0.000 C 
ATOM    455  CB  PRO A   3      -5.526  -1.540 -26.596  0.00  0.00    +0.000 C 
ATOM    456  CG  PRO A   3      -4.667  -2.755 -26.549  0.00  0.00    +0.000 C 
ATOM    457  CD  PRO A   3      -3.673  -2.610 -27.668  0.00  0.00    +0.000 C 
BRANCH 451 458
ATOM    458  CA  ILE A   2      -1.622  -1.382 -29.358  0.00  0.00    +0.000 C 
BRANCH 458 461
ATOM    459  C   LYS A   1      -1.127  -1.545 -31.746  0.00  0.00    +0.000 C 
ATOM    460  O   LYS A   1      -1.309  -2.764 -31.759  0.00  0.00    +0.000 OA
ATOM    461  N   ILE A   2      -1.254  -0.799 -30.647  0.00  0.00    +0.000 N 
ATOM    462  H   ILE A   2      -1.096   0.166 -30.706  0.00  0.00    +0.000 HD
BRANCH 459 463
ATOM    463  CA  LYS A   1      -0.739  -0.804 -33.023  0.00  0.00    +0.000 C 
BRANCH 463 464
ATOM    464  N   LYS A   1      -1.464   0.491 -33.132  0.00  0.00    +0.000 N 
ATOM    465  H   LYS A   1      -1.188   0.982 -34.006  0.00  0.00    +0.000 HD
ATOM    466  H2  LYS A   1      -1.236   1.098 -32.320  0.00  0.00    +0.000 HD
ATOM    467  H3  LYS A   1      -2.491   0.324 -33.149  0.00  0.00    +0.000 HD
ENDBRANCH 463 464
BRANCH 463 468
ATOM    468  CB  LYS A   1       0.775  -0.567 -33.047  0.00  0.00    +0.000 C 
BRANCH 468 469
ATOM    469  CG  LYS A   1       1.313  -0.185 -34.416  0.00  0.00    +0.000 C 
BRANCH 469 470
ATOM    470  CD  LYS A   1       2.818   0.037 -34.383  0.00  0.00    +0.000 C 
BRANCH 470 471
ATOM    471  CE  LYS A   1       3.359   0.419 -35.752  0.00  0.00    +0.000 C 
BRANCH 471 472
ATOM    472  NZ  LYS A   1       3.008   1.818 -36.121  0.00  0.00    +0.000 N 
ATOM    473  HZ1 LYS A   1       3.405   2.482 -35.426  0.00  0.00    +0.000 HD
ATOM    474  HZ2 LYS A   1       1.974   1.934 -36.143  0.00  0.00    +0.000 HD
ATOM    475  HZ3 LYS A   1       3.391   2.047 -37.061  0.00  0.00    +0.000 HD
ENDBRANCH 471 472
ENDBRANCH 470 471
ENDBRANCH 469 470
ENDBRANCH 468 469
ENDBRANCH 463 468
ENDBRANCH 459 463
ENDBRANCH 458 461
BRANCH 458 476
ATOM    476  CB  ILE A   2      -0.389  -1.582 -28.440  0.00  0.00    +0.000 C 
ATOM    477  CG2 ILE A   2       0.359  -2.848 -28.830  0.00  0.00    +0.000 C 
BRANCH 476 478
ATOM    478  CG1 ILE A   2       0.551  -0.368 -28.490  0.00  0.00    +0.000 C 
ATOM    479  CD1 ILE A   2       0.292   0.649 -27.399  0.00  0.00    +0.000 C 
ENDBRANCH 476 478
ENDBRANCH 458 476
ENDBRANCH 451 458
ENDBRANCH 447 454
ENDBRANCH 446 449
BRANCH 446 480
ATOM    480  CB  SER A   4      -4.478   3.957 -25.073  0.00  0.00    +0.000 C 
BRANCH 480 481
ATOM    481  OG  SER A   4      -3.831   4.346 -26.273  0.00  0.00    +0.000 OA
ATOM    482  HG  SER A   4      -4.240   3.897 -27.017  0.00  0.00    +0.000 HD
ENDBRANCH 480 481
ENDBRANCH 446 480
ENDBRANCH 442 446
ENDBRANCH 441 444
BRANCH 441 483
ATOM    483  CB  ILE A   5      -7.840   0.171 -22.536  0.00  0.00    +0.000 C 
ATOM    484  CG2 ILE A   5      -8.690   0.063 -21.274  0.00  0.00    +0.000 C 
BRANCH 483 485
ATOM    485  CG1 ILE A   5      -8.560   1.034 -23.578  0.00  0.00    +0.000 C 
ATOM    486  CD1 ILE A   5      -8.428   0.511 -24.994  0.00  0.00    +0.000 C 
ENDBRANCH 483 485
ENDBRANCH 441 483
ENDBRANCH 437 441
ENDBRANCH 435 439
ENDBRANCH 431 435
ENDBRANCH 430 433
BRANCH 430 487
ATOM    487  CB  THR A   7      -0.574   1.168 -22.491  0.00  0.00    +0.000 C 
ATOM    488  CG2 THR A   7       0.934   1.371 -22.561  0.00  0.00    +0.000 C 
BRANCH 487 489
ATOM    489  OG1 THR A   7      -1.067   0.817 -23.790  0.00  0.00    +0.000 OA
ATOM    490  HG1 THR A   7      -0.512   0.133 -24.169  0.00  0.00    +0.000 HD
ENDBRANCH 487 489
ENDBRANCH 430 487
ENDBRANCH 426 430
ENDBRANCH 425 428
ENDBRANCH 421 425
ENDBRANCH 420 423
BRANCH 420 491
ATOM    491  CB  LEU A   9      -4.587  -2.381 -17.196  0.00  0.00    +0.000 C 
BRANCH 491 492
ATOM    492  CG  LEU A   9      -5.995  -1.795 -17.364  0.00  0.00    +0.000 C 
ATOM    493  CD1 LEU A   9      -6.775  -2.577 -18.410  0.00  0.00    +0.000 C 
ATOM    494  CD2 LEU A   9      -6.741  -1.796 -16.036  0.00  0.00    +0.000 C 
ENDBRANCH 491 492
ENDBRANCH 420 491
ENDBRANCH 416 420
ENDBRANCH 415 418
BRANCH 415 495
ATOM    495  CB  VAL A  10       0.498  -3.523 -18.445  0.00  0.00    +0.000 C 
ATOM    496  CG1 VAL A  10      -0.338  -4.485 -19.277  0.00  0.00    +0.000 C 
ATOM    497  CG2 VAL A  10       0.780  -2.245 -19.231  0.00  0.00    +0.000 C 
ENDBRANCH 415 495
ENDBRANCH 411 415
ENDBRANCH 410 413
ENDBRANCH 406 410
ENDBRANCH 404 408
ENDBRANCH 400 404
ENDBRANCH 399 402
BRANCH 399 498
ATOM    498  CB  LEU A  13      -2.175  -4.576 -13.019  0.00  0.00    +0.000 C 
BRANCH 498 499
ATOM    499  CG  LEU A  13      -3.707  -4.466 -12.942  0.00  0.00    +0.000 C 
ATOM    500  CD1 LEU A  13      -4.184  -3.076 -13.357  0.00  0.00    +0.000 C 
ATOM    501  CD2 LEU A  13      -4.356  -5.530 -13.813  0.00  0.00    +0.000 C 
ENDBRANCH 498 499
ENDBRANCH 399 498
ENDBRANCH 395 399
ENDBRANCH 394 397
BRANCH 394 502
ATOM    502  CB  LEU A  14       3.141  -4.551 -13.562  0.00  0.00    +0.000 C 
BRANCH 502 503
ATOM    503  CG  LEU A  14       3.215  -5.841 -14.387  0.00  0.00    +0.000 C 
ATOM    504  CD1 LEU A  14       1.941  -6.041 -15.197  0.00  0.00    +0.000 C 
ATOM    505  CD2 LEU A  14       4.429  -5.813 -15.304  0.00  0.00    +0.000 C 
ENDBRANCH 502 503
ENDBRANCH 394 502
ENDBRANCH 390 394
ENDBRANCH 389 392
BRANCH 389 506
ATOM    506  CB  LEU A  15       3.297  -0.280 -10.360  0.00  0.00    +0.000 C 
BRANCH 506 507
ATOM    507  CG  LEU A  15       4.621   0.396 -10.731  0.00  0.00    +0.000 C 
ATOM    508  CD1 LEU A  15       4.819   0.396 -12.239  0.00  0.00    +0.000 C 
ATOM    509  CD2 LEU A  15       4.669   1.816 -10.186  0.00  0.00    +0.000 C 
ENDBRANCH 506 507
ENDBRANCH 389 506
ENDBRANCH 385 389
ENDBRANCH 384 387
BRANCH 384 510
ATOM    510  CB  LEU A  16      -0.864  -2.388  -7.786  0.00  0.00    +0.000 C 
BRANCH 510 511
ATOM    511  CG  LEU A  16      -1.706  -1.898  -6.604  0.00  0.00    +0.000 C 
ATOM    512  CD1 LEU A  16      -2.876  -1.061  -7.097  0.00  0.00    +0.000 C 
ATOM    513  CD2 LEU A  16      -2.205  -3.075  -5.778  0.00  0.00    +0.000 C 
ENDBRANCH 510 511
ENDBRANCH 384 510
ENDBRANCH 380 384
ENDBRANCH 379 382
BRANCH 379 514
ATOM    514  CB  LEU A  17       1.432  -7.124  -8.877  0.00  0.00    +0.000 C 
BRANCH 514 515
ATOM    515  CG  LEU A  17       1.165  -8.613  -8.630  0.00  0.00    +0.000 C 
ATOM    516  CD1 LEU A  17      -0.330  -8.890  -8.579  0.00  0.00    +0.000 C 
ATOM    517  CD2 LEU A  17       1.828  -9.457  -9.707  0.00  0.00    +0.000 C 
ENDBRANCH 514 515
ENDBRANCH 379 514
ENDBRANCH 375 379
ENDBRANCH 374 377
BRANCH 374 518
ATOM    518  CB  VAL A  18       6.215  -4.941  -7.959  0.00  0.00    +0.000 C 
ATOM    519  CG1 VAL A  18       7.627  -4.926  -7.383  0.00  0.00    +0.000 C 
ATOM    520  CG2 VAL A  18       6.210  -5.627  -9.318  0.00  0.00    +0.000 C 
ENDBRANCH 374 518
ENDBRANCH 370 374
ENDBRANCH 369 372
BRANCH 369 521
ATOM    521  CB  VAL A  19       3.958  -1.676  -4.375  0.00  0.00    +0.000 C 
ATOM    522  CG1 VAL A  19       3.872  -0.948  -3.037  0.00  0.00    +0.000 C 
ATOM    523  CG2 VAL A  19       4.761  -0.850  -5.371  0.00  0.00    +0.000 C 
ENDBRANCH 369 521
ENDBRANCH 365 369
ENDBRANCH 363 367
ENDBRANCH 359 363
ENDBRANCH 358 361
BRANCH 358 524
ATOM    524  CB  LEU A  21       4.551  -9.024  -4.148  0.00  0.00    +0.000 C 
BRANCH 524 525
ATOM    525  CG  LEU A  21       4.695 -10.548  -4.131  0.00  0.00    +0.000 C 
ATOM    526  CD1 LEU A  21       3.391 -11.216  -4.544  0.00  0.00    +0.000 C 
ATOM    527  CD2 LEU A  21       5.831 -10.985  -5.043  0.00  0.00    +0.000 C 
ENDBRANCH 524 525
ENDBRANCH 358 524
ENDBRANCH 354 358
ENDBRANCH 353 356
ENDBRANCH 349 353
ENDBRANCH 348 351
BRANCH 348 528
ATOM    528  CB  ILE A  23       4.649  -3.294   1.057  0.00  0.00    +0.000 C 
ATOM    529  CG2 ILE A  23       4.206  -2.673   2.379  0.00  0.00    +0.000 C 
BRANCH 528 530
ATOM    530  CG1 ILE A  23       5.449  -2.272   0.221  0.00  0.00    +0.000 C 
ATOM    531  CD1 ILE A  23       6.787  -1.866   0.816  0.00  0.00    +0.000 C 
ENDBRANCH 528 530
ENDBRANCH 348 528
ENDBRANCH 344 348
ENDBRANCH 343 346
ENDBRANCH 339 343
ENDBRANCH 338 341
BRANCH 338 532
ATOM    532  CB  LEU A  25       6.471 -10.713   1.297  0.00  0.00    +0.000 C 
BRANCH 532 533
ATOM    533  CG  LEU A  25       5.672 -11.637   0.372  0.00  0.00    +0.000 C 
ATOM    534  CD1 LEU A  25       6.378 -11.787  -0.966  0.00  0.00    +0.000 C 
ATOM    535  CD2 LEU A  25       5.466 -13.001   1.017  0.00  0.00    +0.000 C 
ENDBRANCH 532 533
ENDBRANCH 338 532
ENDBRANCH 334 338
ENDBRANCH 333 336
BRANCH 333 536
ATOM    536  CB  PHE A  26       8.199  -6.170   3.855  0.00  0.00    +0.000 C 
BRANCH 536 537
ATOM    537  CG  PHE A  26       9.632  -6.115   3.408  0.00  0.00    +0.000 A 
ATOM    538  CD1 PHE A  26       9.976  -6.414   2.099  0.00  0.00    +0.000 A 
ATOM    539  CD2 PHE A  26      10.636  -5.764   4.297  0.00  0.00    +0.000 A 
ATOM    540  CE1 PHE A  26      11.294  -6.364   1.685  0.00  0.00    +0.000 A 
ATOM    541  CE2 PHE A  26      11.956  -5.712   3.890  0.00  0.00    +0.000 A 
ATOM    542  CZ  PHE A  26      12.285  -6.013   2.582  0.00  0.00    +0.000 A 
ENDBRANCH 536 537
ENDBRANCH 333 536
ENDBRANCH 329 333
ENDBRANCH 328 331
BRANCH 328 543
ATOM    543  CB  ILE A  27       3.843  -5.934   6.807  0.00  0.00    +0.000 C 
ATOM    544  CG2 ILE A  27       3.171  -5.660   8.153  0.00  0.00    +0.000 C 
BRANCH 543 545
ATOM    545  CG1 ILE A  27       4.291  -4.617   6.159  0.00  0.00    +0.000 C 
ATOM    546  CD1 ILE A  27       3.174  -3.868   5.459  0.00  0.00    +0.000 C 
ENDBRANCH 543 545
ENDBRANCH 328 543
ENDBRANCH 324 328
ENDBRANCH 323 326
BRANCH 323 547
ATOM    547  CB  ARG A  28       3.213 -11.227   5.732  0.00  0.00    +0.000 C 
BRANCH 547 548
ATOM    548  CG  ARG A  28       1.805 -10.833   5.319  0.00  0.00    +0.000 C 
BRANCH 548 549
ATOM    549  CD  ARG A  28       1.351 -11.598   4.088  0.00  0.00    +0.000 C 
BRANCH 549 550
ATOM    550  NE  ARG A  28      -0.004 -11.227   3.680  0.00  0.00    +0.000 N 
ATOM    551  CZ  ARG A  28      -0.640 -11.752   2.630  0.00  0.00    +0.000 C 
ATOM    552  NH1 ARG A  28      -0.051 -12.675   1.876  0.00  0.00    +0.000 N 
ATOM    553  NH2 ARG A  28      -1.870 -11.353   2.336  0.00  0.00    +0.000 N 
ATOM    554  HE  ARG A  28      -0.466 -10.550   4.215  0.00  0.00    +0.000 HD
ATOM    555 HH11 ARG A  28       0.875 -12.980   2.092  0.00  0.00    +0.000 HD
ATOM    556 HH12 ARG A  28      -0.536 -13.063   1.093  0.00  0.00    +0.000 HD
ATOM    557 HH21 ARG A  28      -2.319 -10.660   2.900  0.00  0.00    +0.000 HD
ATOM    558 HH22 ARG A  28      -2.347 -11.746   1.550  0.00  0.00    +0.000 HD
ENDBRANCH 549 550
ENDBRANCH 548 549
ENDBRANCH 547 548
ENDBRANCH 323 547
ENDBRANCH 319 323
ENDBRANCH 318 321
BRANCH 318 559
ATOM    559  CB  ARG A  29       8.429 -11.610   7.075  0.00  0.00    +0.000 C 
BRANCH 559 560
ATOM    560  CG  ARG A  29       8.399 -12.555   5.884  0.00  0.00    +0.000 C 
BRANCH 560 561
ATOM    561  CD  ARG A  29       9.644 -12.406   5.024  0.00  0.00    +0.000 C 
BRANCH 561 562
ATOM    562  NE  ARG A  29       9.627 -13.310   3.874  0.00  0.00    +0.000 N 
ATOM    563  CZ  ARG A  29      10.600 -13.382   2.963  0.00  0.00    +0.000 C 
ATOM    564  NH1 ARG A  29      11.674 -12.606   3.061  0.00  0.00    +0.000 N 
ATOM    565  NH2 ARG A  29      10.497 -14.234   1.953  0.00  0.00    +0.000 N 
ATOM    566  HE  ARG A  29       8.848 -13.896   3.773  0.00  0.00    +0.000 HD
ATOM    567 HH11 ARG A  29      11.759 -11.962   3.821  0.00  0.00    +0.000 HD
ATOM    568 HH12 ARG A  29      12.399 -12.667   2.375  0.00  0.00    +0.000 HD
ATOM    569 HH21 ARG A  29       9.692 -14.820   1.873  0.00  0.00    +0.000 HD
ATOM    570 HH22 ARG A  29      11.226 -14.289   1.269  0.00  0.00    +0.000 HD
ENDBRANCH 561 562
ENDBRANCH 560 561
ENDBRANCH 559 560
ENDBRANCH 318 559
ENDBRANCH 314 318
ENDBRANCH 313 316
BRANCH 313 571
ATOM    571  CB  ARG A  30       7.131  -7.808  10.828  0.00  0.00    +0.000 C 
BRANCH 571 572
ATOM    572  CG  ARG A  30       8.300  -7.148  10.115  0.00  0.00    +0.000 C 
BRANCH 572 573
ATOM    573  CD  ARG A  30       8.113  -5.642  10.013  0.00  0.00    +0.000 C 
BRANCH 573 574
ATOM    574  NE  ARG A  30       9.232  -4.995   9.329  0.00  0.00    +0.000 N 
ATOM    575  CZ  ARG A  30       9.315  -3.683   9.105  0.00  0.00    +0.000 C 
ATOM    576  NH1 ARG A  30       8.347  -2.867   9.509  0.00  0.00    +0.000 N 
ATOM    577  NH2 ARG A  30      10.370  -3.185   8.476  0.00  0.00    +0.000 N 
ATOM    578  HE  ARG A  30       9.963  -5.570   9.017  0.00  0.00    +0.000 HD
ATOM    579 HH11 ARG A  30       7.549  -3.235   9.986  0.00  0.00    +0.000 HD
ATOM    580 HH12 ARG A  30       8.418  -1.884   9.338  0.00  0.00    +0.000 HD
ATOM    581 HH21 ARG A  30      11.101  -3.793   8.168  0.00  0.00    +0.000 HD
ATOM    582 HH22 ARG A  30      10.433  -2.201   8.307  0.00  0.00    +0.000 HD
ENDBRANCH 573 574
ENDBRANCH 572 573
ENDBRANCH 571 572
ENDBRANCH 313 571
ENDBRANCH 309 313
ENDBRANCH 308 311
BRANCH 308 583
ATOM    583  CB  HIS A  31       2.853 -11.206  11.751  0.00  0.00    +0.000 C 
BRANCH 583 584
ATOM    584  CG  HIS A  31       2.051  -9.971  11.478  0.00  0.00    +0.000 C 
ATOM    585  ND1 HIS A  31       1.032  -9.539  12.300  0.00  0.00    +0.000 N 
ATOM    586  CD2 HIS A  31       2.122  -9.073  10.466  0.00  0.00    +0.000 C 
ATOM    587  CE1 HIS A  31       0.510  -8.429  11.806  0.00  0.00    +0.000 C 
ATOM    588  NE2 HIS A  31       1.154  -8.126  10.694  0.00  0.00    +0.000 N 
ATOM    589  HD1 HIS A  31       0.733  -9.979  13.122  0.00  0.00    +0.000 HD
ATOM    590  HE2 HIS A  31       1.028  -7.305  10.174  0.00  0.00    +0.000 HD
ENDBRANCH 583 584
ENDBRANCH 308 583
ENDBRANCH 304 308
ENDBRANCH 303 306
BRANCH 303 591
ATOM    591  CB  ILE A  32       6.496 -15.184  11.935  0.00  0.00    +0.000 C 
ATOM    592  CG2 ILE A  32       6.672 -16.594  12.490  0.00  0.00    +0.000 C 
BRANCH 591 593
ATOM    593  CG1 ILE A  32       5.482 -15.189  10.783  0.00  0.00    +0.000 C 
ATOM    594  CD1 ILE A  32       6.109 -15.399   9.420  0.00  0.00    +0.000 C 
ENDBRANCH 591 593
ENDBRANCH 303 591
ENDBRANCH 299 303
ENDBRANCH   1 301
BRANCH   1 595
ATOM    595  CB  VAL A  33      10.138 -11.715  13.776  0.00  0.00    +0.000 C 
ATOM    596  CG1 VAL A  33      11.482 -11.762  14.490  0.00  0.00    +0.000 C 
ATOM    597  CG2 VAL A  33      10.252 -12.341  12.392  0.00  0.00    +0.000 C 
ENDBRANCH   1 595
TORSDOF 240
REMARK  Name = /Users/acegid/Desktop/Smoking_Research/Docking/Docking_All_PDB/All_PDB/2M20_H.pdb
REMARK  588 active torsions:
REMARK  status: ('A' for Active; 'I' for Inactive)
REMARK    1  A    between atoms: N_1  and  CA_2
REMARK    2  A    between atoms: CA_2  and  C_3
REMARK    3  A    between atoms: CA_2  and  CB_5
REMARK    4  A    between atoms: CB_5  and  CG_6
REMARK    5  A    between atoms: CG_6  and  CD_7
REMARK    6  A    between atoms: CD_7  and  CE_8
REMARK    7  A    between atoms: CE_8  and  NZ_9
REMARK    8  A    between atoms: N_25  and  CA_26
REMARK    9  A    between atoms: CA_26  and  C_27
REMARK   10  A    between atoms: CA_26  and  CB_29
REMARK   11  A    between atoms: CB_29  and  CG1_30
REMARK   12  A    between atoms: CB_29  and  CG2_31
REMARK   13  A    between atoms: CG1_30  and  CD1_32
REMARK   14  A    between atoms: CA_45  and  C_46
REMARK   15  A    between atoms: N_58  and  CA_59
REMARK   16  A    between atoms: CA_59  and  C_60
REMARK   17  A    between atoms: CA_59  and  CB_62
REMARK   18  A    between atoms: CB_62  and  OG_63
REMARK   19  A    between atoms: N_69  and  CA_70
REMARK   20  A    between atoms: CA_70  and  C_71
REMARK   21  A    between atoms: CA_70  and  CB_73
REMARK   22  A    between atoms: CB_73  and  CG1_74
REMARK   23  A    between atoms: CB_73  and  CG2_75
REMARK   24  A    between atoms: CG1_74  and  CD1_76
REMARK   25  A    between atoms: N_88  and  CA_89
REMARK   26  A    between atoms: CA_89  and  C_90
REMARK   27  A    between atoms: CA_89  and  CB_92
REMARK   28  A    between atoms: N_98  and  CA_99
REMARK   29  A    between atoms: CA_99  and  C_100
REMARK   30  A    between atoms: CA_99  and  CB_102
REMARK   31  A    between atoms: CB_102  and  OG1_103
REMARK   32  A    between atoms: CB_102  and  CG2_104
REMARK   33  A    between atoms: N_112  and  CA_113
REMARK   34  A    between atoms: CA_113  and  C_114
REMARK   35  A    between atoms: N_119  and  CA_120
REMARK   36  A    between atoms: CA_120  and  C_121
REMARK   37  A    between atoms: CA_120  and  CB_123
REMARK   38  A    between atoms: CB_123  and  CG_124
REMARK   39  A    between atoms: CG_124  and  CD1_125
REMARK   40  A    between atoms: CG_124  and  CD2_126
REMARK   41  A    between atoms: N_138  and  CA_139
REMARK   42  A    between atoms: CA_139  and  C_140
REMARK   43  A    between atoms: CA_139  and  CB_142
REMARK   44  A    between atoms: CB_142  and  CG1_143
REMARK   45  A    between atoms: CB_142  and  CG2_144
REMARK   46  A    between atoms: N_154  and  CA_155
REMARK   47  A    between atoms: CA_155  and  C_156
REMARK   48  A    between atoms: N_161  and  CA_162
REMARK   49  A    between atoms: CA_162  and  C_163
REMARK   50  A    between atoms: CA_162  and  CB_165
REMARK   51  A    between atoms: N_171  and  CA_172
REMARK   52  A    between atoms: CA_172  and  C_173
REMARK   53  A    between atoms: CA_172  and  CB_175
REMARK   54  A    between atoms: CB_175  and  CG_176
REMARK   55  A    between atoms: CG_176  and  CD1_177
REMARK   56  A    between atoms: CG_176  and  CD2_178
REMARK   57  A    between atoms: N_190  and  CA_191
REMARK   58  A    between atoms: CA_191  and  C_192
REMARK   59  A    between atoms: CA_191  and  CB_194
REMARK   60  A    between atoms: CB_194  and  CG_195
REMARK   61  A    between atoms: CG_195  and  CD1_196
REMARK   62  A    between atoms: CG_195  and  CD2_197
REMARK   63  A    between atoms: N_209  and  CA_210
REMARK   64  A    between atoms: CA_210  and  C_211
REMARK   65  A    between atoms: CA_210  and  CB_213
REMARK   66  A    between atoms: CB_213  and  CG_214
REMARK   67  A    between atoms: CG_214  and  CD1_215
REMARK   68  A    between atoms: CG_214  and  CD2_216
REMARK   69  A    between atoms: N_228  and  CA_229
REMARK   70  A    between atoms: CA_229  and  C_230
REMARK   71  A    between atoms: CA_229  and  CB_232
REMARK   72  A    between atoms: CB_232  and  CG_233
REMARK   73  A    between atoms: CG_233  and  CD1_234
REMARK   74  A    between atoms: CG_233  and  CD2_235
REMARK   75  A    between atoms: N_247  and  CA_248
REMARK   76  A    between atoms: CA_248  and  C_249
REMARK   77  A    between atoms: CA_248  and  CB_251
REMARK   78  A    between atoms: CB_251  and  CG_252
REMARK   79  A    between atoms: CG_252  and  CD1_253
REMARK   80  A    between atoms: CG_252  and  CD2_254
REMARK   81  A    between atoms: N_266  and  CA_267
REMARK   82  A    between atoms: CA_267  and  C_268
REMARK   83  A    between atoms: CA_267  and  CB_270
REMARK   84  A    between atoms: CB_270  and  CG1_271
REMARK   85  A    between atoms: CB_270  and  CG2_272
REMARK   86  A    between atoms: N_282  and  CA_283
REMARK   87  A    between atoms: CA_283  and  C_284
REMARK   88  A    between atoms: CA_283  and  CB_286
REMARK   89  A    between atoms: CB_286  and  CG1_287
REMARK   90  A    between atoms: CB_286  and  CG2_288
REMARK   91  A    between atoms: N_298  and  CA_299
REMARK   92  A    between atoms: CA_299  and  C_300
REMARK   93  A    between atoms: CA_299  and  CB_302
REMARK   94  A    between atoms: N_308  and  CA_309
REMARK   95  A    between atoms: CA_309  and  C_310
REMARK   96  A    between atoms: CA_309  and  CB_312
REMARK   97  A    between atoms: CB_312  and  CG_313
REMARK   98  A    between atoms: CG_313  and  CD1_314
REMARK   99  A    between atoms: CG_313  and  CD2_315
REMARK  100  A    between atoms: N_327  and  CA_328
REMARK  101  A    between atoms: CA_328  and  C_329
REMARK  102  A    between atoms: N_334  and  CA_335
REMARK  103  A    between atoms: CA_335  and  C_336
REMARK  104  A    between atoms: CA_335  and  CB_338
REMARK  105  A    between atoms: CB_338  and  CG1_339
REMARK  106  A    between atoms: CB_338  and  CG2_340
REMARK  107  A    between atoms: CG1_339  and  CD1_341
REMARK  108  A    between atoms: N_353  and  CA_354
REMARK  109  A    between atoms: CA_354  and  C_355
REMARK  110  A    between atoms: N_360  and  CA_361
REMARK  111  A    between atoms: CA_361  and  C_362
REMARK  112  A    between atoms: CA_361  and  CB_364
REMARK  113  A    between atoms: CB_364  and  CG_365
REMARK  114  A    between atoms: CG_365  and  CD1_366
REMARK  115  A    between atoms: CG_365  and  CD2_367
REMARK  116  A    between atoms: N_379  and  CA_380
REMARK  117  A    between atoms: CA_380  and  C_381
REMARK  118  A    between atoms: CA_380  and  CB_383
REMARK  119  A    between atoms: CB_383  and  CG_384
REMARK  120  A    between atoms: N_399  and  CA_400
REMARK  121  A    between atoms: CA_400  and  C_401
REMARK  122  A    between atoms: CA_400  and  CB_403
REMARK  123  A    between atoms: CB_403  and  CG1_404
REMARK  124  A    between atoms: CB_403  and  CG2_405
REMARK  125  A    between atoms: CG1_404  and  CD1_406
REMARK  126  A    between atoms: N_418  and  CA_419
REMARK  127  A    between atoms: CA_419  and  C_420
REMARK  128  A    between atoms: CA_419  and  CB_422
REMARK  129  A    between atoms: CB_422  and  CG_423
REMARK  130  A    between atoms: CG_423  and  CD_424
REMARK  131  A    between atoms: CD_424  and  NE_425
REMARK  132  A    between atoms: N_442  and  CA_443
REMARK  133  A    between atoms: CA_443  and  C_444
REMARK  134  A    between atoms: CA_443  and  CB_446
REMARK  135  A    between atoms: CB_446  and  CG_447
REMARK  136  A    between atoms: CG_447  and  CD_448
REMARK  137  A    between atoms: CD_448  and  NE_449
REMARK  138  A    between atoms: N_466  and  CA_467
REMARK  139  A    between atoms: CA_467  and  C_468
REMARK  140  A    between atoms: CA_467  and  CB_470
REMARK  141  A    between atoms: CB_470  and  CG_471
REMARK  142  A    between atoms: CG_471  and  CD_472
REMARK  143  A    between atoms: CD_472  and  NE_473
REMARK  144  A    between atoms: N_490  and  CA_491
REMARK  145  A    between atoms: CA_491  and  C_492
REMARK  146  A    between atoms: CA_491  and  CB_494
REMARK  147  A    between atoms: CB_494  and  CG_495
REMARK  148  A    between atoms: N_508  and  CA_509
REMARK  149  A    between atoms: CA_509  and  C_510
REMARK  150  A    between atoms: CA_509  and  CB_512
REMARK  151  A    between atoms: CB_512  and  CG1_513
REMARK  152  A    between atoms: CB_512  and  CG2_514
REMARK  153  A    between atoms: CG1_513  and  CD1_515
REMARK  154  A    between atoms: N_527  and  CA_528
REMARK  155  A    between atoms: CA_528  and  C_529
REMARK  156  A    between atoms: CA_528  and  CB_531
REMARK  157  A    between atoms: CB_531  and  CG1_532
REMARK  158  A    between atoms: CB_531  and  CG2_533
REMARK  159  A    between atoms: N_543  and  CA_544
REMARK  160  A    between atoms: CA_544  and  C_545
REMARK  161  A    between atoms: CA_544  and  CB_547
REMARK  162  A    between atoms: CB_547  and  CG_548
REMARK  163  A    between atoms: CG_548  and  CD_549
REMARK  164  A    between atoms: CD_549  and  NE_550
REMARK  165  A    between atoms: N_567  and  CA_568
REMARK  166  A    between atoms: CA_568  and  C_569
REMARK  167  A    between atoms: CA_568  and  CB_571
REMARK  168  A    between atoms: CB_571  and  CG_572
REMARK  169  A    between atoms: CG_572  and  CD_573
REMARK  170  A    between atoms: CD_573  and  CE_574
REMARK  171  A    between atoms: CE_574  and  NZ_575
REMARK  172  A    between atoms: N_589  and  CA_590
REMARK  173  A    between atoms: CA_590  and  C_591
REMARK  174  A    between atoms: CA_590  and  CB_593
REMARK  175  A    between atoms: CB_593  and  CG_594
REMARK  176  A    between atoms: CG_594  and  CD_595
REMARK  177  A    between atoms: CD_595  and  NE_596
REMARK  178  A    between atoms: N_613  and  CA_614
REMARK  179  A    between atoms: CA_614  and  C_615
REMARK  180  A    between atoms: CA_614  and  CB_617
REMARK  181  A    between atoms: CB_617  and  OG1_618
REMARK  182  A    between atoms: CB_617  and  CG2_619
REMARK  183  A    between atoms: N_627  and  CA_628
REMARK  184  A    between atoms: CA_628  and  C_629
REMARK  185  A    between atoms: CA_628  and  CB_631
REMARK  186  A    between atoms: CB_631  and  CG_632
REMARK  187  A    between atoms: CG_632  and  CD1_633
REMARK  188  A    between atoms: CG_632  and  CD2_634
REMARK  189  A    between atoms: N_646  and  CA_647
REMARK  190  A    between atoms: CA_647  and  C_648
REMARK  191  A    between atoms: CA_647  and  CB_650
REMARK  192  A    between atoms: CB_650  and  CG_651
REMARK  193  A    between atoms: CG_651  and  CD_652
REMARK  194  A    between atoms: CD_652  and  NE_653
REMARK  195  A    between atoms: N_670  and  CA_671
REMARK  196  A    between atoms: CA_671  and  C_672
REMARK  197  A    between atoms: CA_671  and  CB_674
REMARK  198  A    between atoms: CB_674  and  CG_675
REMARK  199  A    between atoms: CG_675  and  CD_676
REMARK  200  A    between atoms: CD_676  and  NE_677
REMARK  201  A    between atoms: N_694  and  CA_695
REMARK  202  A    between atoms: CA_695  and  C_696
REMARK  203  A    between atoms: CA_695  and  CB_698
REMARK  204  A    between atoms: CB_698  and  CG_699
REMARK  205  A    between atoms: CG_699  and  CD1_700
REMARK  206  A    between atoms: CG_699  and  CD2_701
REMARK  207  A    between atoms: N_713  and  CA_714
REMARK  208  A    between atoms: CA_714  and  C_715
REMARK  209  A    between atoms: CA_714  and  CB_717
REMARK  210  A    between atoms: CB_717  and  CG_718
REMARK  211  A    between atoms: CG_718  and  CD1_719
REMARK  212  A    between atoms: CG_718  and  CD2_720
REMARK  213  A    between atoms: N_732  and  CA_733
REMARK  214  A    between atoms: CA_733  and  C_734
REMARK  215  A    between atoms: CA_733  and  CB_736
REMARK  216  A    between atoms: CB_736  and  CG_737
REMARK  217  A    between atoms: CG_737  and  CD_738
REMARK  218  A    between atoms: N_749  and  CA_750
REMARK  219  A    between atoms: CA_750  and  C_751
REMARK  220  A    between atoms: CA_750  and  CB_753
REMARK  221  A    between atoms: CB_753  and  CG_754
REMARK  222  A    between atoms: CG_754  and  CD_755
REMARK  223  A    between atoms: N_764  and  CA_765
REMARK  224  A    between atoms: CA_765  and  C_766
REMARK  225  A    between atoms: CA_765  and  CB_768
REMARK  226  A    between atoms: CB_768  and  CG_769
REMARK  227  A    between atoms: CG_769  and  CD_770
REMARK  228  A    between atoms: CD_770  and  NE_771
REMARK  229  A    between atoms: N_788  and  CA_789
REMARK  230  A    between atoms: CA_789  and  C_790
REMARK  231  A    between atoms: CA_789  and  CB_792
REMARK  232  A    between atoms: CB_792  and  CG_793
REMARK  233  A    between atoms: CG_793  and  CD_794
REMARK  234  A    between atoms: N_803  and  CA_804
REMARK  235  A    between atoms: CA_804  and  C_805
REMARK  236  A    between atoms: CA_804  and  CB_807
REMARK  237  A    between atoms: CB_807  and  CG_808
REMARK  238  A    between atoms: CG_808  and  CD1_809
REMARK  239  A    between atoms: CG_808  and  CD2_810
REMARK  240  A    between atoms: N_822  and  CA_823
REMARK  241  A    between atoms: CA_823  and  C_824
REMARK  242  A    between atoms: CA_823  and  CB_826
REMARK  243  A    between atoms: CB_826  and  CG1_827
REMARK  244  A    between atoms: CB_826  and  CG2_828
REMARK  245  A    between atoms: N_838  and  CA_839
REMARK  246  A    between atoms: CA_839  and  C_840
REMARK  247  A    between atoms: CA_839  and  CB_842
REMARK  248  A    between atoms: CB_842  and  CG_843
REMARK  249  A    between atoms: CG_843  and  CD_844
REMARK  250  A    between atoms: CA_854  and  C_855
REMARK  251  A    between atoms: N_867  and  CA_868
REMARK  252  A    between atoms: CA_868  and  C_869
REMARK  253  A    between atoms: CA_868  and  CB_871
REMARK  254  A    between atoms: CB_871  and  CG_872
REMARK  255  A    between atoms: CG_872  and  CD1_873
REMARK  256  A    between atoms: CG_872  and  CD2_874
REMARK  257  A    between atoms: N_886  and  CA_887
REMARK  258  A    between atoms: CA_887  and  C_888
REMARK  259  A    between atoms: CA_887  and  CB_890
REMARK  260  A    between atoms: CB_890  and  OG1_891
REMARK  261  A    between atoms: CB_890  and  CG2_892
REMARK  262  A    between atoms: CA_901  and  C_902
REMARK  263  A    between atoms: N_914  and  CA_915
REMARK  264  A    between atoms: CA_915  and  C_916
REMARK  265  A    between atoms: CA_915  and  CB_918
REMARK  266  A    between atoms: CB_918  and  OG_919
REMARK  267  A    between atoms: N_925  and  CA_926
REMARK  268  A    between atoms: CA_926  and  C_927
REMARK  269  A    between atoms: N_932  and  CA_933
REMARK  270  A    between atoms: CA_933  and  C_934
REMARK  271  A    between atoms: CA_933  and  CB_936
REMARK  272  A    between atoms: CB_936  and  CG_937
REMARK  273  A    between atoms: CG_937  and  CD_938
REMARK  274  A    between atoms: N_947  and  CA_948
REMARK  275  A    between atoms: CA_948  and  C_949
REMARK  276  A    between atoms: CA_948  and  CB_951
REMARK  277  A    between atoms: CB_951  and  CG_952
REMARK  278  A    between atoms: CG_952  and  CD_953
REMARK  279  A    between atoms: CD_953  and  CE_954
REMARK  280  A    between atoms: CE_954  and  NZ_955
REMARK  281  A    between atoms: N_969  and  CA_970
REMARK  282  A    between atoms: CA_970  and  C_971
REMARK  283  A    between atoms: CA_970  and  CB_973
REMARK  284  A    between atoms: CB_973  and  CG_974
REMARK  285  A    between atoms: CG_974  and  CD1_975
REMARK  286  A    between atoms: CG_974  and  CD2_976
REMARK  287  A    between atoms: N_988  and  CA_989
REMARK  288  A    between atoms: CA_989  and  C_990
REMARK  289  A    between atoms: CA_989  and  CB_992
REMARK  290  A    between atoms: CB_992  and  CG_993
REMARK  291  A    between atoms: N_1012  and  CA_1013
REMARK  292  A    between atoms: CA_1013  and  C_1014
REMARK  293  A    between atoms: CA_1013  and  CB_1016
REMARK  294  A    between atoms: CB_1016  and  OG_1017
REMARK  295  A    between atoms: N_1024  and  CA_1025
REMARK  296  A    between atoms: CA_1025  and  C_1026
REMARK  297  A    between atoms: CA_1025  and  CB_1028
REMARK  298  A    between atoms: CB_1028  and  CG_1029
REMARK  299  A    between atoms: CG_1029  and  CD_1030
REMARK  300  A    between atoms: CD_1030  and  CE_1031
REMARK  301  A    between atoms: CE_1031  and  NZ_1032
REMARK  302  A    between atoms: N_1048  and  CA_1049
REMARK  303  A    between atoms: CA_1049  and  C_1050
REMARK  304  A    between atoms: CA_1049  and  CB_1052
REMARK  305  A    between atoms: CB_1052  and  CG1_1053
REMARK  306  A    between atoms: CB_1052  and  CG2_1054
REMARK  307  A    between atoms: CG1_1053  and  CD1_1055
REMARK  308  A    between atoms: CA_1068  and  C_1069
REMARK  309  A    between atoms: N_1081  and  CA_1082
REMARK  310  A    between atoms: CA_1082  and  C_1083
REMARK  311  A    between atoms: CA_1082  and  CB_1085
REMARK  312  A    between atoms: CB_1085  and  OG_1086
REMARK  313  A    between atoms: N_1092  and  CA_1093
REMARK  314  A    between atoms: CA_1093  and  C_1094
REMARK  315  A    between atoms: CA_1093  and  CB_1096
REMARK  316  A    between atoms: CB_1096  and  CG1_1097
REMARK  317  A    between atoms: CB_1096  and  CG2_1098
REMARK  318  A    between atoms: CG1_1097  and  CD1_1099
REMARK  319  A    between atoms: N_1111  and  CA_1112
REMARK  320  A    between atoms: CA_1112  and  C_1113
REMARK  321  A    between atoms: CA_1112  and  CB_1115
REMARK  322  A    between atoms: N_1121  and  CA_1122
REMARK  323  A    between atoms: CA_1122  and  C_1123
REMARK  324  A    between atoms: CA_1122  and  CB_1125
REMARK  325  A    between atoms: CB_1125  and  OG1_1126
REMARK  326  A    between atoms: CB_1125  and  CG2_1127
REMARK  327  A    between atoms: N_1135  and  CA_1136
REMARK  328  A    between atoms: CA_1136  and  C_1137
REMARK  329  A    between atoms: N_1142  and  CA_1143
REMARK  330  A    between atoms: CA_1143  and  C_1144
REMARK  331  A    between atoms: CA_1143  and  CB_1146
REMARK  332  A    between atoms: CB_1146  and  CG_1147
REMARK  333  A    between atoms: CG_1147  and  CD1_1148
REMARK  334  A    between atoms: CG_1147  and  CD2_1149
REMARK  335  A    between atoms: N_1161  and  CA_1162
REMARK  336  A    between atoms: CA_1162  and  C_1163
REMARK  337  A    between atoms: CA_1162  and  CB_1165
REMARK  338  A    between atoms: CB_1165  and  CG1_1166
REMARK  339  A    between atoms: CB_1165  and  CG2_1167
REMARK  340  A    between atoms: N_1177  and  CA_1178
REMARK  341  A    between atoms: CA_1178  and  C_1179
REMARK  342  A    between atoms: N_1184  and  CA_1185
REMARK  343  A    between atoms: CA_1185  and  C_1186
REMARK  344  A    between atoms: CA_1185  and  CB_1188
REMARK  345  A    between atoms: N_1194  and  CA_1195
REMARK  346  A    between atoms: CA_1195  and  C_1196
REMARK  347  A    between atoms: CA_1195  and  CB_1198
REMARK  348  A    between atoms: CB_1198  and  CG_1199
REMARK  349  A    between atoms: CG_1199  and  CD1_1200
REMARK  350  A    between atoms: CG_1199  and  CD2_1201
REMARK  351  A    between atoms: N_1213  and  CA_1214
REMARK  352  A    between atoms: CA_1214  and  C_1215
REMARK  353  A    between atoms: CA_1214  and  CB_1217
REMARK  354  A    between atoms: CB_1217  and  CG_1218
REMARK  355  A    between atoms: CG_1218  and  CD1_1219
REMARK  356  A    between atoms: CG_1218  and  CD2_1220
REMARK  357  A    between atoms: N_1232  and  CA_1233
REMARK  358  A    between atoms: CA_1233  and  C_1234
REMARK  359  A    between atoms: CA_1233  and  CB_1236
REMARK  360  A    between atoms: CB_1236  and  CG_1237
REMARK  361  A    between atoms: CG_1237  and  CD1_1238
REMARK  362  A    between atoms: CG_1237  and  CD2_1239
REMARK  363  A    between atoms: N_1251  and  CA_1252
REMARK  364  A    between atoms: CA_1252  and  C_1253
REMARK  365  A    between atoms: CA_1252  and  CB_1255
REMARK  366  A    between atoms: CB_1255  and  CG_1256
REMARK  367  A    between atoms: CG_1256  and  CD1_1257
REMARK  368  A    between atoms: CG_1256  and  CD2_1258
REMARK  369  A    between atoms: N_1270  and  CA_1271
REMARK  370  A    between atoms: CA_1271  and  C_1272
REMARK  371  A    between atoms: CA_1271  and  CB_1274
REMARK  372  A    between atoms: CB_1274  and  CG_1275
REMARK  373  A    between atoms: CG_1275  and  CD1_1276
REMARK  374  A    between atoms: CG_1275  and  CD2_1277
REMARK  375  A    between atoms: N_1289  and  CA_1290
REMARK  376  A    between atoms: CA_1290  and  C_1291
REMARK  377  A    between atoms: CA_1290  and  CB_1293
REMARK  378  A    between atoms: CB_1293  and  CG1_1294
REMARK  379  A    between atoms: CB_1293  and  CG2_1295
REMARK  380  A    between atoms: N_1305  and  CA_1306
REMARK  381  A    between atoms: CA_1306  and  C_1307
REMARK  382  A    between atoms: CA_1306  and  CB_1309
REMARK  383  A    between atoms: CB_1309  and  CG1_1310
REMARK  384  A    between atoms: CB_1309  and  CG2_1311
REMARK  385  A    between atoms: N_1321  and  CA_1322
REMARK  386  A    between atoms: CA_1322  and  C_1323
REMARK  387  A    between atoms: CA_1322  and  CB_1325
REMARK  388  A    between atoms: N_1331  and  CA_1332
REMARK  389  A    between atoms: CA_1332  and  C_1333
REMARK  390  A    between atoms: CA_1332  and  CB_1335
REMARK  391  A    between atoms: CB_1335  and  CG_1336
REMARK  392  A    between atoms: CG_1336  and  CD1_1337
REMARK  393  A    between atoms: CG_1336  and  CD2_1338
REMARK  394  A    between atoms: N_1350  and  CA_1351
REMARK  395  A    between atoms: CA_1351  and  C_1352
REMARK  396  A    between atoms: N_1357  and  CA_1358
REMARK  397  A    between atoms: CA_1358  and  C_1359
REMARK  398  A    between atoms: CA_1358  and  CB_1361
REMARK  399  A    between atoms: CB_1361  and  CG1_1362
REMARK  400  A    between atoms: CB_1361  and  CG2_1363
REMARK  401  A    between atoms: CG1_1362  and  CD1_1364
REMARK  402  A    between atoms: N_1376  and  CA_1377
REMARK  403  A    between atoms: CA_1377  and  C_1378
REMARK  404  A    between atoms: N_1383  and  CA_1384
REMARK  405  A    between atoms: CA_1384  and  C_1385
REMARK  406  A    between atoms: CA_1384  and  CB_1387
REMARK  407  A    between atoms: CB_1387  and  CG_1388
REMARK  408  A    between atoms: CG_1388  and  CD1_1389
REMARK  409  A    between atoms: CG_1388  and  CD2_1390
REMARK  410  A    between atoms: N_1402  and  CA_1403
REMARK  411  A    between atoms: CA_1403  and  C_1404
REMARK  412  A    between atoms: CA_1403  and  CB_1406
REMARK  413  A    between atoms: CB_1406  and  CG_1407
REMARK  414  A    between atoms: N_1422  and  CA_1423
REMARK  415  A    between atoms: CA_1423  and  C_1424
REMARK  416  A    between atoms: CA_1423  and  CB_1426
REMARK  417  A    between atoms: CB_1426  and  CG1_1427
REMARK  418  A    between atoms: CB_1426  and  CG2_1428
REMARK  419  A    between atoms: CG1_1427  and  CD1_1429
REMARK  420  A    between atoms: N_1441  and  CA_1442
REMARK  421  A    between atoms: CA_1442  and  C_1443
REMARK  422  A    between atoms: CA_1442  and  CB_1445
REMARK  423  A    between atoms: CB_1445  and  CG_1446
REMARK  424  A    between atoms: CG_1446  and  CD_1447
REMARK  425  A    between atoms: CD_1447  and  NE_1448
REMARK  426  A    between atoms: N_1465  and  CA_1466
REMARK  427  A    between atoms: CA_1466  and  C_1467
REMARK  428  A    between atoms: CA_1466  and  CB_1469
REMARK  429  A    between atoms: CB_1469  and  CG_1470
REMARK  430  A    between atoms: CG_1470  and  CD_1471
REMARK  431  A    between atoms: CD_1471  and  NE_1472
REMARK  432  A    between atoms: N_1489  and  CA_1490
REMARK  433  A    between atoms: CA_1490  and  C_1491
REMARK  434  A    between atoms: CA_1490  and  CB_1493
REMARK  435  A    between atoms: CB_1493  and  CG_1494
REMARK  436  A    between atoms: CG_1494  and  CD_1495
REMARK  437  A    between atoms: CD_1495  and  NE_1496
REMARK  438  A    between atoms: N_1513  and  CA_1514
REMARK  439  A    between atoms: CA_1514  and  C_1515
REMARK  440  A    between atoms: CA_1514  and  CB_1517
REMARK  441  A    between atoms: CB_1517  and  CG_1518
REMARK  442  A    between atoms: N_1531  and  CA_1532
REMARK  443  A    between atoms: CA_1532  and  C_1533
REMARK  444  A    between atoms: CA_1532  and  CB_1535
REMARK  445  A    between atoms: CB_1535  and  CG1_1536
REMARK  446  A    between atoms: CB_1535  and  CG2_1537
REMARK  447  A    between atoms: CG1_1536  and  CD1_1538
REMARK  448  A    between atoms: N_1550  and  CA_1551
REMARK  449  A    between atoms: CA_1551  and  C_1552
REMARK  450  A    between atoms: CA_1551  and  CB_1554
REMARK  451  A    between atoms: CB_1554  and  CG1_1555
REMARK  452  A    between atoms: CB_1554  and  CG2_1556
REMARK  453  A    between atoms: N_1566  and  CA_1567
REMARK  454  A    between atoms: CA_1567  and  C_1568
REMARK  455  A    between atoms: CA_1567  and  CB_1570
REMARK  456  A    between atoms: CB_1570  and  CG_1571
REMARK  457  A    between atoms: CG_1571  and  CD_1572
REMARK  458  A    between atoms: CD_1572  and  NE_1573
REMARK  459  A    between atoms: N_1590  and  CA_1591
REMARK  460  A    between atoms: CA_1591  and  C_1592
REMARK  461  A    between atoms: CA_1591  and  CB_1594
REMARK  462  A    between atoms: CB_1594  and  CG_1595
REMARK  463  A    between atoms: CG_1595  and  CD_1596
REMARK  464  A    between atoms: CD_1596  and  CE_1597
REMARK  465  A    between atoms: CE_1597  and  NZ_1598
REMARK  466  A    between atoms: N_1612  and  CA_1613
REMARK  467  A    between atoms: CA_1613  and  C_1614
REMARK  468  A    between atoms: CA_1613  and  CB_1616
REMARK  469  A    between atoms: CB_1616  and  CG_1617
REMARK  470  A    between atoms: CG_1617  and  CD_1618
REMARK  471  A    between atoms: CD_1618  and  NE_1619
REMARK  472  A    between atoms: N_1636  and  CA_1637
REMARK  473  A    between atoms: CA_1637  and  C_1638
REMARK  474  A    between atoms: CA_1637  and  CB_1640
REMARK  475  A    between atoms: CB_1640  and  OG1_1641
REMARK  476  A    between atoms: CB_1640  and  CG2_1642
REMARK  477  A    between atoms: N_1650  and  CA_1651
REMARK  478  A    between atoms: CA_1651  and  C_1652
REMARK  479  A    between atoms: CA_1651  and  CB_1654
REMARK  480  A    between atoms: CB_1654  and  CG_1655
REMARK  481  A    between atoms: CG_1655  and  CD1_1656
REMARK  482  A    between atoms: CG_1655  and  CD2_1657
REMARK  483  A    between atoms: N_1669  and  CA_1670
REMARK  484  A    between atoms: CA_1670  and  C_1671
REMARK  485  A    between atoms: CA_1670  and  CB_1673
REMARK  486  A    between atoms: CB_1673  and  CG_1674
REMARK  487  A    between atoms: CG_1674  and  CD_1675
REMARK  488  A    between atoms: CD_1675  and  NE_1676
REMARK  489  A    between atoms: N_1693  and  CA_1694
REMARK  490  A    between atoms: CA_1694  and  C_1695
REMARK  491  A    between atoms: CA_1694  and  CB_1697
REMARK  492  A    between atoms: CB_1697  and  CG_1698
REMARK  493  A    between atoms: CG_1698  and  CD_1699
REMARK  494  A    between atoms: CD_1699  and  NE_1700
REMARK  495  A    between atoms: N_1717  and  CA_1718
REMARK  496  A    between atoms: CA_1718  and  C_1719
REMARK  497  A    between atoms: CA_1718  and  CB_1721
REMARK  498  A    between atoms: CB_1721  and  CG_1722
REMARK  499  A    between atoms: CG_1722  and  CD1_1723
REMARK  500  A    between atoms: CG_1722  and  CD2_1724
REMARK  501  A    between atoms: N_1736  and  CA_1737
REMARK  502  A    between atoms: CA_1737  and  C_1738
REMARK  503  A    between atoms: CA_1737  and  CB_1740
REMARK  504  A    between atoms: CB_1740  and  CG_1741
REMARK  505  A    between atoms: CG_1741  and  CD1_1742
REMARK  506  A    between atoms: CG_1741  and  CD2_1743
REMARK  507  A    between atoms: N_1755  and  CA_1756
REMARK  508  A    between atoms: CA_1756  and  C_1757
REMARK  509  A    between atoms: CA_1756  and  CB_1759
REMARK  510  A    between atoms: CB_1759  and  CG_1760
REMARK  511  A    between atoms: CG_1760  and  CD_1761
REMARK  512  A    between atoms: N_1772  and  CA_1773
REMARK  513  A    between atoms: CA_1773  and  C_1774
REMARK  514  A    between atoms: CA_1773  and  CB_1776
REMARK  515  A    between atoms: CB_1776  and  CG_1777
REMARK  516  A    between atoms: CG_1777  and  CD_1778
REMARK  517  A    between atoms: N_1787  and  CA_1788
REMARK  518  A    between atoms: CA_1788  and  C_1789
REMARK  519  A    between atoms: CA_1788  and  CB_1791
REMARK  520  A    between atoms: CB_1791  and  CG_1792
REMARK  521  A    between atoms: CG_1792  and  CD_1793
REMARK  522  A    between atoms: CD_1793  and  NE_1794
REMARK  523  A    between atoms: N_1811  and  CA_1812
REMARK  524  A    between atoms: CA_1812  and  C_1813
REMARK  525  A    between atoms: CA_1812  and  CB_1815
REMARK  526  A    between atoms: CB_1815  and  CG_1816
REMARK  527  A    between atoms: CG_1816  and  CD_1817
REMARK  528  A    between atoms: N_1826  and  CA_1827
REMARK  529  A    between atoms: CA_1827  and  C_1828
REMARK  530  A    between atoms: CA_1827  and  CB_1830
REMARK  531  A    between atoms: CB_1830  and  CG_1831
REMARK  532  A    between atoms: CG_1831  and  CD1_1832
REMARK  533  A    between atoms: CG_1831  and  CD2_1833
REMARK  534  A    between atoms: N_1845  and  CA_1846
REMARK  535  A    between atoms: CA_1846  and  C_1847
REMARK  536  A    between atoms: CA_1846  and  CB_1849
REMARK  537  A    between atoms: CB_1849  and  CG1_1850
REMARK  538  A    between atoms: CB_1849  and  CG2_1851
REMARK  539  A    between atoms: N_1861  and  CA_1862
REMARK  540  A    between atoms: CA_1862  and  C_1863
REMARK  541  A    between atoms: CA_1862  and  CB_1865
REMARK  542  A    between atoms: CB_1865  and  CG_1866
REMARK  543  A    between atoms: CG_1866  and  CD_1867
REMARK  544  A    between atoms: CA_1877  and  C_1878
REMARK  545  A    between atoms: N_1890  and  CA_1891
REMARK  546  A    between atoms: CA_1891  and  C_1892
REMARK  547  A    between atoms: CA_1891  and  CB_1894
REMARK  548  A    between atoms: CB_1894  and  CG_1895
REMARK  549  A    between atoms: CG_1895  and  CD1_1896
REMARK  550  A    between atoms: CG_1895  and  CD2_1897
REMARK  551  A    between atoms: N_1909  and  CA_1910
REMARK  552  A    between atoms: CA_1910  and  C_1911
REMARK  553  A    between atoms: CA_1910  and  CB_1913
REMARK  554  A    between atoms: CB_1913  and  OG1_1914
REMARK  555  A    between atoms: CB_1913  and  CG2_1915
REMARK  556  A    between atoms: CA_1924  and  C_1925
REMARK  557  A    between atoms: N_1937  and  CA_1938
REMARK  558  A    between atoms: CA_1938  and  C_1939
REMARK  559  A    between atoms: CA_1938  and  CB_1941
REMARK  560  A    between atoms: CB_1941  and  OG_1942
REMARK  561  A    between atoms: N_1948  and  CA_1949
REMARK  562  A    between atoms: CA_1949  and  C_1950
REMARK  563  A    between atoms: N_1955  and  CA_1956
REMARK  564  A    between atoms: CA_1956  and  C_1957
REMARK  565  A    between atoms: CA_1956  and  CB_1959
REMARK  566  A    between atoms: CB_1959  and  CG_1960
REMARK  567  A    between atoms: CG_1960  and  CD_1961
REMARK  568  A    between atoms: N_1970  and  CA_1971
REMARK  569  A    between atoms: CA_1971  and  C_1972
REMARK  570  A    between atoms: CA_1971  and  CB_1974
REMARK  571  A    between atoms: CB_1974  and  CG_1975
REMARK  572  A    between atoms: CG_1975  and  CD_1976
REMARK  573  A    between atoms: CD_1976  and  CE_1977
REMARK  574  A    between atoms: CE_1977  and  NZ_1978
REMARK  575  A    between atoms: N_1992  and  CA_1993
REMARK  576  A    between atoms: CA_1993  and  C_1994
REMARK  577  A    between atoms: CA_1993  and  CB_1996
REMARK  578  A    between atoms: CB_1996  and  CG_1997
REMARK  579  A    between atoms: CG_1997  and  CD1_1998
REMARK  580  A    between atoms: CG_1997  and  CD2_1999
REMARK  581  A    between atoms: N_2011  and  CA_2012
REMARK  582  A    between atoms: CA_2012  and  C_2013
REMARK  583  A    between atoms: CA_2012  and  CB_2015
REMARK  584  A    between atoms: CB_2015  and  CG_2016
REMARK  585  A    between atoms: N_2035  and  CA_2036
REMARK  586  A    between atoms: CA_2036  and  C_2037
REMARK  587  A    between atoms: CA_2036  and  CB_2039
REMARK  588  A    between atoms: CB_2039  and  OG_2040
REMARK                            x       y       z     vdW  Elec       q    Type
REMARK                         _______ _______ _______ _____ _____    ______ ____
ROOT
ATOM      1  CA  VAL B  93      -8.491   8.125  17.647  0.00  0.00    +0.000 C 
ENDROOT
BRANCH   1   2
ATOM      2  C   VAL B  93      -8.029   6.935  18.493  0.00  0.00    +0.000 C 
ATOM      3  O   VAL B  93      -8.800   6.391  19.288  0.00  0.00    +0.000 OA
ATOM      4  N   ARG B  94      -6.766   6.539  18.319  0.00  0.00    +0.000 N 
ATOM      5  H   ARG B  94      -6.204   7.017  17.674  0.00  0.00    +0.000 HD
BRANCH   4   6
ATOM      6  CA  ARG B  94      -6.195   5.418  19.063  0.00  0.00    +0.000 C 
BRANCH   6   7
ATOM      7  C   ARG B  94      -5.507   5.903  20.339  0.00  0.00    +0.000 C 
ATOM      8  O   ARG B  94      -5.154   7.079  20.456  0.00  0.00    +0.000 OA
ATOM      9  N   LYS B  95      -5.319   4.986  21.290  0.00  0.00    +0.000 N 
ATOM     10  H   LYS B  95      -5.622   4.068  21.131  0.00  0.00    +0.000 HD
BRANCH   9  11
ATOM     11  CA  LYS B  95      -4.674   5.310  22.562  0.00  0.00    +0.000 C 
BRANCH  11  12
ATOM     12  C   LYS B  95      -3.162   5.115  22.476  0.00  0.00    +0.000 C 
ATOM     13  O   LYS B  95      -2.675   4.309  21.682  0.00  0.00    +0.000 OA
ATOM     14  N   ARG B  96      -2.429   5.863  23.304  0.00  0.00    +0.000 N 
ATOM     15  H   ARG B  96      -2.880   6.483  23.908  0.00  0.00    +0.000 HD
BRANCH  14  16
ATOM     16  CA  ARG B  96      -0.970   5.784  23.333  0.00  0.00    +0.000 C 
BRANCH  16  17
ATOM     17  C   ARG B  96      -0.488   4.722  24.326  0.00  0.00    +0.000 C 
ATOM     18  O   ARG B  96       0.679   4.715  24.727  0.00  0.00    +0.000 OA
ATOM     19  N   THR B  97      -1.393   3.818  24.709  0.00  0.00    +0.000 N 
ATOM     20  H   THR B  97      -2.301   3.871  24.345  0.00  0.00    +0.000 HD
BRANCH  19  21
ATOM     21  CA  THR B  97      -1.070   2.749  25.655  0.00  0.00    +0.000 C 
BRANCH  21  22
ATOM     22  C   THR B  97      -0.403   1.560  24.962  0.00  0.00    +0.000 C 
ATOM     23  O   THR B  97       0.210   0.718  25.616  0.00  0.00    +0.000 OA
ATOM     24  N   LEU B  98      -0.527   1.505  23.635  0.00  0.00    +0.000 N 
ATOM     25  H   LEU B  98      -0.992   2.227  23.177  0.00  0.00    +0.000 HD
BRANCH  24  26
ATOM     26  CA  LEU B  98       0.056   0.424  22.842  0.00  0.00    +0.000 C 
BRANCH  26  27
ATOM     27  C   LEU B  98       1.476   0.785  22.416  0.00  0.00    +0.000 C 
ATOM     28  O   LEU B  98       2.235  -0.063  21.956  0.00  0.00    +0.000 OA
ATOM     29  N   ARG B  99       1.794   2.065  22.575  0.00  0.00    +0.000 N 
ATOM     30  H   ARG B  99       1.144   2.642  22.984  0.00  0.00    +0.000 HD
BRANCH  29  31
ATOM     31  CA  ARG B  99       3.097   2.625  22.252  0.00  0.00    +0.000 C 
BRANCH  31  32
ATOM     32  C   ARG B  99       3.902   2.706  23.531  0.00  0.00    +0.000 C 
ATOM     33  O   ARG B  99       5.123   2.540  23.535  0.00  0.00    +0.000 OA
ATOM     34  N   ARG B 100       3.180   2.969  24.628  0.00  0.00    +0.000 N 
ATOM     35  H   ARG B 100       2.206   3.106  24.534  0.00  0.00    +0.000 HD
BRANCH  34  36
ATOM     36  CA  ARG B 100       3.782   3.036  25.953  0.00  0.00    +0.000 C 
BRANCH  36  37
ATOM     37  C   ARG B 100       4.067   1.617  26.418  0.00  0.00    +0.000 C 
ATOM     38  O   ARG B 100       4.903   1.382  27.290  0.00  0.00    +0.000 OA
ATOM     39  N   LEU B 101       3.338   0.681  25.807  0.00  0.00    +0.000 N 
ATOM     40  H   LEU B 101       2.670   0.960  25.152  0.00  0.00    +0.000 HD
BRANCH  39  41
ATOM     41  CA  LEU B 101       3.493  -0.736  26.073  0.00  0.00    +0.000 C 
BRANCH  41  42
ATOM     42  C   LEU B 101       4.236  -1.390  24.916  0.00  0.00    +0.000 C 
ATOM     43  O   LEU B 101       4.795  -2.478  25.065  0.00  0.00    +0.000 OA
ATOM     44  N   LEU B 102       4.239  -0.715  23.752  0.00  0.00    +0.000 N 
ATOM     45  H   LEU B 102       3.755   0.152  23.691  0.00  0.00    +0.000 HD
BRANCH  44  46
ATOM     46  CA  LEU B 102       4.932  -1.237  22.565  0.00  0.00    +0.000 C 
BRANCH  46  47
ATOM     47  C   LEU B 102       6.433  -1.354  22.825  0.00  0.00    +0.000 C 
ATOM     48  O   LEU B 102       7.053  -2.366  22.493  0.00  0.00    +0.000 OA
ATOM     49  N   GLN B 103       7.003  -0.309  23.421  0.00  0.00    +0.000 N 
ATOM     50  H   GLN B 103       6.450   0.467  23.651  0.00  0.00    +0.000 HD
BRANCH  49  51
ATOM     51  CA  GLN B 103       8.424  -0.283  23.740  0.00  0.00    +0.000 C 
BRANCH  51  52
ATOM     52  C   GLN B 103       8.668  -0.805  25.154  0.00  0.00    +0.000 C 
ATOM     53  O   GLN B 103       9.807  -1.087  25.532  0.00  0.00    +0.000 OA
ATOM     54  N   GLU B 104       7.588  -0.934  25.934  0.00  0.00    +0.000 N 
ATOM     55  H   GLU B 104       6.700  -0.694  25.570  0.00  0.00    +0.000 HD
BRANCH  54  56
ATOM     56  CA  GLU B 104       7.689  -1.422  27.312  0.00  0.00    +0.000 C 
BRANCH  56  57
ATOM     57  C   GLU B 104       7.708  -2.951  27.366  0.00  0.00    +0.000 C 
ATOM     58  O   GLU B 104       8.499  -3.544  28.102  0.00  0.00    +0.000 OA
ATOM     59  N   ARG B 105       6.831  -3.580  26.583  0.00  0.00    +0.000 N 
ATOM     60  H   ARG B 105       6.232  -3.048  26.017  0.00  0.00    +0.000 HD
BRANCH  59  61
ATOM     61  CA  ARG B 105       6.734  -5.040  26.541  0.00  0.00    +0.000 C 
BRANCH  61  62
ATOM     62  C   ARG B 105       7.690  -5.640  25.507  0.00  0.00    +0.000 C 
ATOM     63  O   ARG B 105       7.893  -6.855  25.475  0.00  0.00    +0.000 OA
ATOM     64  N   GLU B 106       8.273  -4.782  24.666  0.00  0.00    +0.000 N 
ATOM     65  H   GLU B 106       8.073  -3.826  24.748  0.00  0.00    +0.000 HD
BRANCH  64  66
ATOM     66  CA  GLU B 106       9.203  -5.223  23.623  0.00  0.00    +0.000 C 
BRANCH  66  67
ATOM     67  C   GLU B 106      10.460  -5.864  24.225  0.00  0.00    +0.000 C 
ATOM     68  O   GLU B 106      10.752  -7.031  23.958  0.00  0.00    +0.000 OA
ATOM     69  N   LEU B 107      11.197  -5.097  25.035  0.00  0.00    +0.000 N 
ATOM     70  H   LEU B 107      10.911  -4.176  25.210  0.00  0.00    +0.000 HD
BRANCH  69  71
ATOM     71  CA  LEU B 107      12.419  -5.597  25.672  0.00  0.00    +0.000 C 
BRANCH  71  72
ATOM     72  C   LEU B 107      12.614  -4.979  27.057  0.00  0.00    +0.000 C 
ATOM     73  O   LEU B 107      13.741  -4.859  27.545  0.00  0.00    +0.000 OA
ATOM     74  N   VAL B 108      11.506  -4.600  27.688  0.00  0.00    +0.000 N 
ATOM     75  H   VAL B 108      10.643  -4.734  27.245  0.00  0.00    +0.000 HD
BRANCH  74  76
ATOM     76  CA  VAL B 108      11.541  -3.996  29.019  0.00  0.00    +0.000 C 
BRANCH  76  77
ATOM     77  C   VAL B 108      10.604  -4.744  29.971  0.00  0.00    +0.000 C 
ATOM     78  O   VAL B 108       9.682  -4.158  30.548  0.00  0.00    +0.000 OA
ATOM     79  N   GLU B 109      10.849  -6.044  30.127  0.00  0.00    +0.000 N 
ATOM     80  H   GLU B 109      11.595  -6.449  29.635  0.00  0.00    +0.000 HD
BRANCH  79  81
ATOM     81  CA  GLU B 109      10.037  -6.884  31.004  0.00  0.00    +0.000 C 
BRANCH  81  82
ATOM     82  C   GLU B 109      10.682  -7.013  32.386  0.00  0.00    +0.000 C 
ATOM     83  O   GLU B 109      11.906  -7.114  32.494  0.00  0.00    +0.000 OA
ATOM     84  N   PRO B 110       9.865  -7.009  33.467  0.00  0.00    +0.000 N 
ATOM     85  CA  PRO B 110      10.370  -7.126  34.844  0.00  0.00    +0.000 C 
ATOM     86  CB  PRO B 110       9.139  -6.819  35.701  0.00  0.00    +0.000 C 
ATOM     87  CG  PRO B 110       7.968  -7.159  34.846  0.00  0.00    +0.000 C 
ATOM     88  CD  PRO B 110       8.390  -6.882  33.429  0.00  0.00    +0.000 C 
BRANCH  85  89
ATOM     89  C   PRO B 110      10.909  -8.522  35.162  0.00  0.00    +0.000 C 
ATOM     90  O   PRO B 110      10.266  -9.528  34.860  0.00  0.00    +0.000 OA
ATOM     91  N   LEU B 111      12.095  -8.567  35.770  0.00  0.00    +0.000 N 
ATOM     92  H   LEU B 111      12.542  -7.732  36.002  0.00  0.00    +0.000 HD
BRANCH  91  93
ATOM     93  CA  LEU B 111      12.733  -9.824  36.134  0.00  0.00    +0.000 C 
BRANCH  93  94
ATOM     94  C   LEU B 111      13.455  -9.683  37.470  0.00  0.00    +0.000 C 
ATOM     95  O   LEU B 111      14.647  -9.364  37.521  0.00  0.00    +0.000 OA
ATOM     96  N   THR B 112      12.715  -9.914  38.548  0.00  0.00    +0.000 N 
ATOM     97  H   THR B 112      11.769 -10.132  38.431  0.00  0.00    +0.000 HD
BRANCH  96  98
ATOM     98  CA  THR B 112      13.265  -9.827  39.899  0.00  0.00    +0.000 C 
BRANCH  98  99
ATOM     99  C   THR B 112      12.754 -10.971  40.777  0.00  0.00    +0.000 C 
ATOM    100  O   THR B 112      11.619 -11.421  40.613  0.00  0.00    +0.000 OA
ATOM    101  N   PRO B 113      13.589 -11.457  41.725  0.00  0.00    +0.000 N 
ATOM    102  CA  PRO B 113      13.210 -12.554  42.631  0.00  0.00    +0.000 C 
ATOM    103  CB  PRO B 113      14.524 -12.900  43.340  0.00  0.00    +0.000 C 
ATOM    104  CG  PRO B 113      15.350 -11.664  43.265  0.00  0.00    +0.000 C 
ATOM    105  CD  PRO B 113      14.968 -10.982  41.981  0.00  0.00    +0.000 C 
BRANCH 102 106
ATOM    106  C   PRO B 113      12.142 -12.143  43.645  0.00  0.00    +0.000 C 
ATOM    107  O   PRO B 113      12.351 -11.233  44.451  0.00  0.00    +0.000 OA
ATOM    108  N   SER B 114      10.996 -12.818  43.586  0.00  0.00    +0.000 N 
ATOM    109  H   SER B 114      10.893 -13.524  42.913  0.00  0.00    +0.000 HD
BRANCH 108 110
ATOM    110  CA  SER B 114       9.886 -12.539  44.494  0.00  0.00    +0.000 C 
BRANCH 110 111
ATOM    111  C   SER B 114       9.840 -13.563  45.627  0.00  0.00    +0.000 C 
ATOM    112  O   SER B 114       9.103 -13.391  46.600  0.00  0.00    +0.000 OA
ATOM    113  N   GLY B 115      10.634 -14.626  45.491  0.00  0.00    +0.000 N 
ATOM    114  H   GLY B 115      11.200 -14.702  44.693  0.00  0.00    +0.000 HD
BRANCH 113 115
ATOM    115  CA  GLY B 115      10.675 -15.666  46.505  0.00  0.00    +0.000 C 
BRANCH 115 116
ATOM    116  C   GLY B 115      11.645 -16.778  46.157  0.00  0.00    +0.000 C 
ATOM    117  O   GLY B 115      11.230 -17.866  45.752  0.00  0.00    +0.000 OA
ATOM    118  N   GLU B 116      12.938 -16.501  46.318  0.00  0.00    +0.000 N 
ATOM    119  H   GLU B 116      13.199 -15.616  46.645  0.00  0.00    +0.000 HD
BRANCH 118 120
ATOM    120  CA  GLU B 116      13.980 -17.483  46.019  0.00  0.00    +0.000 C 
BRANCH 120 121
ATOM    121  C   GLU B 116      14.929 -17.652  47.204  0.00  0.00    +0.000 C 
ATOM    122  O   GLU B 116      15.318 -18.772  47.540  0.00  0.00    +0.000 OA
ATOM    123  N   LYS B 117      15.298 -16.532  47.830  0.00  0.00    +0.000 N 
ATOM    124  H   LYS B 117      14.955 -15.674  47.510  0.00  0.00    +0.000 HD
BRANCH 123 125
ATOM    125  CA  LYS B 117      16.202 -16.547  48.978  0.00  0.00    +0.000 C 
BRANCH 125 126
ATOM    126  C   LYS B 117      15.440 -16.796  50.282  0.00  0.00    +0.000 C 
ATOM    127  O   LYS B 117      15.888 -17.567  51.132  0.00  0.00    +0.000 OA
ATOM    128  N   LEU B 118      14.290 -16.134  50.429  0.00  0.00    +0.000 N 
ATOM    129  H   LEU B 118      13.994 -15.535  49.717  0.00  0.00    +0.000 HD
BRANCH 128 130
ATOM    130  CA  LEU B 118      13.462 -16.278  51.623  0.00  0.00    +0.000 C 
BRANCH 130 131
ATOM    131  C   LEU B 118      12.446 -17.409  51.466  0.00  0.00    +0.000 C 
ATOM    132  O   LEU B 118      11.767 -17.782  52.426  0.00  0.00    +0.000 OA
ATOM    133  N   TRP B 119      12.353 -17.951  50.253  0.00  0.00    +0.000 N 
ATOM    134  H   TRP B 119      12.927 -17.610  49.537  0.00  0.00    +0.000 HD
BRANCH 133 135
ATOM    135  CA  TRP B 119      11.423 -19.040  49.962  0.00  0.00    +0.000 C 
BRANCH 135 136
ATOM    136  C   TRP B 119      12.139 -20.194  49.266  0.00  0.00    +0.000 C 
ATOM    137  O   TRP B 119      13.039 -19.977  48.452  0.00  0.00    +0.000 OA
ATOM    138  N   SER B 120      11.729 -21.419  49.592  0.00  0.00    +0.000 N 
ATOM    139  H   SER B 120      11.007 -21.520  50.248  0.00  0.00    +0.000 HD
BRANCH 138 140
ATOM    140  CA  SER B 120      12.324 -22.615  49.003  0.00  0.00    +0.000 C 
BRANCH 140 141
ATOM    141  C   SER B 120      11.422 -23.190  47.914  0.00  0.00    +0.000 C 
ATOM    142  O   SER B 120      11.885 -23.291  46.758  0.00  0.00    +0.000 OA
ATOM    143  OXT SER B 120      10.261 -23.531  48.225  0.00  0.00    +0.000 OA
ENDBRANCH 140 141
BRANCH 140 144
ATOM    144  CB  SER B 120      12.584 -23.666  50.085  0.00  0.00    +0.000 C 
BRANCH 144 145
ATOM    145  OG  SER B 120      13.363 -24.739  49.583  0.00  0.00    +0.000 OA
ATOM    146  HG  SER B 120      13.422 -24.671  48.627  0.00  0.00    +0.000 HD
ENDBRANCH 144 145
ENDBRANCH 140 144
ENDBRANCH 138 140
ENDBRANCH 135 136
BRANCH 135 147
ATOM    147  CB  TRP B 119      10.271 -18.538  49.088  0.00  0.00    +0.000 C 
BRANCH 147 148
ATOM    148  CG  TRP B 119       9.318 -17.638  49.817  0.00  0.00    +0.000 A 
ATOM    149  CD1 TRP B 119       9.442 -16.291  49.999  0.00  0.00    +0.000 A 
ATOM    150  CD2 TRP B 119       8.094 -18.019  50.462  0.00  0.00    +0.000 A 
ATOM    151  NE1 TRP B 119       8.374 -15.811  50.717  0.00  0.00    +0.000 N 
ATOM    152  CE2 TRP B 119       7.533 -16.852  51.013  0.00  0.00    +0.000 A 
ATOM    153  CE3 TRP B 119       7.418 -19.233  50.627  0.00  0.00    +0.000 A 
ATOM    154  CZ2 TRP B 119       6.330 -16.862  51.715  0.00  0.00    +0.000 A 
ATOM    155  CZ3 TRP B 119       6.224 -19.242  51.325  0.00  0.00    +0.000 A 
ATOM    156  CH2 TRP B 119       5.692 -18.063  51.861  0.00  0.00    +0.000 A 
ATOM    157  HE1 TRP B 119       8.236 -14.876  50.975  0.00  0.00    +0.000 HD
ENDBRANCH 147 148
ENDBRANCH 135 147
ENDBRANCH 133 135
ENDBRANCH 130 131
BRANCH 130 158
ATOM    158  CB  LEU B 118      12.738 -14.962  51.928  0.00  0.00    +0.000 C 
BRANCH 158 159
ATOM    159  CG  LEU B 118      13.637 -13.809  52.384  0.00  0.00    +0.000 C 
ATOM    160  CD1 LEU B 118      13.051 -12.474  51.951  0.00  0.00    +0.000 C 
ATOM    161  CD2 LEU B 118      13.828 -13.842  53.894  0.00  0.00    +0.000 C 
ENDBRANCH 158 159
ENDBRANCH 130 158
ENDBRANCH 128 130
ENDBRANCH 125 126
BRANCH 125 162
ATOM    162  CB  LYS B 117      16.974 -15.228  49.067  0.00  0.00    +0.000 C 
BRANCH 162 163
ATOM    163  CG  LYS B 117      18.065 -15.086  48.018  0.00  0.00    +0.000 C 
BRANCH 163 164
ATOM    164  CD  LYS B 117      18.800 -13.761  48.153  0.00  0.00    +0.000 C 
BRANCH 164 165
ATOM    165  CE  LYS B 117      19.894 -13.618  47.106  0.00  0.00    +0.000 C 
BRANCH 165 166
ATOM    166  NZ  LYS B 117      19.339 -13.345  45.751  0.00  0.00    +0.000 N 
ATOM    167  HZ1 LYS B 117      18.789 -12.462  45.760  0.00  0.00    +0.000 HD
ATOM    168  HZ2 LYS B 117      18.716 -14.126  45.457  0.00  0.00    +0.000 HD
ATOM    169  HZ3 LYS B 117      20.111 -13.254  45.060  0.00  0.00    +0.000 HD
ENDBRANCH 165 166
ENDBRANCH 164 165
ENDBRANCH 163 164
ENDBRANCH 162 163
ENDBRANCH 125 162
ENDBRANCH 123 125
ENDBRANCH 120 121
BRANCH 120 170
ATOM    170  CB  GLU B 116      14.768 -17.064  44.773  0.00  0.00    +0.000 C 
BRANCH 170 171
ATOM    171  CG  GLU B 116      14.001 -17.252  43.473  0.00  0.00    +0.000 C 
BRANCH 171 172
ATOM    172  CD  GLU B 116      14.803 -16.831  42.258  0.00  0.00    +0.000 C 
ATOM    173  OE1 GLU B 116      15.519 -17.684  41.693  0.00  0.00    +0.000 OA
ATOM    174  OE2 GLU B 116      14.715 -15.646  41.871  0.00  0.00    +0.000 OA
ENDBRANCH 171 172
ENDBRANCH 170 171
ENDBRANCH 120 170
ENDBRANCH 118 120
ENDBRANCH 115 116
ENDBRANCH 113 115
ENDBRANCH 110 111
BRANCH 110 175
ATOM    175  CB  SER B 114       8.562 -12.544  43.727  0.00  0.00    +0.000 C 
BRANCH 175 176
ATOM    176  OG  SER B 114       7.502 -12.053  44.531  0.00  0.00    +0.000 OA
ATOM    177  HG  SER B 114       7.791 -11.264  44.995  0.00  0.00    +0.000 HD
ENDBRANCH 175 176
ENDBRANCH 110 175
ENDBRANCH 108 110
ENDBRANCH 102 106
ENDBRANCH  98  99
BRANCH  98 178
ATOM    178  CB  THR B 112      12.910  -8.485  40.571  0.00  0.00    +0.000 C 
ATOM    179  CG2 THR B 112      13.738  -7.348  39.988  0.00  0.00    +0.000 C 
BRANCH 178 180
ATOM    180  OG1 THR B 112      11.516  -8.202  40.400  0.00  0.00    +0.000 OA
ATOM    181  HG1 THR B 112      11.313  -7.346  40.786  0.00  0.00    +0.000 HD
ENDBRANCH 178 180
ENDBRANCH  98 178
ENDBRANCH  96  98
ENDBRANCH  93  94
BRANCH  93 182
ATOM    182  CB  LEU B 111      13.713 -10.273  35.040  0.00  0.00    +0.000 C 
BRANCH 182 183
ATOM    183  CG  LEU B 111      13.068 -10.694  33.716  0.00  0.00    +0.000 C 
ATOM    184  CD1 LEU B 111      14.003 -10.401  32.552  0.00  0.00    +0.000 C 
ATOM    185  CD2 LEU B 111      12.701 -12.171  33.744  0.00  0.00    +0.000 C 
ENDBRANCH 182 183
ENDBRANCH  93 182
ENDBRANCH  91  93
ENDBRANCH  85  89
ENDBRANCH  81  82
BRANCH  81 186
ATOM    186  CB  GLU B 109       9.846  -8.274  30.389  0.00  0.00    +0.000 C 
BRANCH 186 187
ATOM    187  CG  GLU B 109       8.895  -8.296  29.198  0.00  0.00    +0.000 C 
BRANCH 187 188
ATOM    188  CD  GLU B 109       9.559  -7.852  27.909  0.00  0.00    +0.000 C 
ATOM    189  OE1 GLU B 109       9.571  -6.633  27.636  0.00  0.00    +0.000 OA
ATOM    190  OE2 GLU B 109      10.066  -8.723  27.171  0.00  0.00    +0.000 OA
ENDBRANCH 187 188
ENDBRANCH 186 187
ENDBRANCH  81 186
ENDBRANCH  79  81
ENDBRANCH  76  77
BRANCH  76 191
ATOM    191  CB  VAL B 108      11.159  -2.493  28.983  0.00  0.00    +0.000 C 
ATOM    192  CG1 VAL B 108      11.614  -1.786  30.253  0.00  0.00    +0.000 C 
ATOM    193  CG2 VAL B 108      11.750  -1.807  27.757  0.00  0.00    +0.000 C 
ENDBRANCH  76 191
ENDBRANCH  74  76
ENDBRANCH  71  72
BRANCH  71 194
ATOM    194  CB  LEU B 107      13.642  -5.311  24.790  0.00  0.00    +0.000 C 
BRANCH 194 195
ATOM    195  CG  LEU B 107      13.758  -6.180  23.536  0.00  0.00    +0.000 C 
ATOM    196  CD1 LEU B 107      13.261  -5.424  22.314  0.00  0.00    +0.000 C 
ATOM    197  CD2 LEU B 107      15.196  -6.635  23.336  0.00  0.00    +0.000 C 
ENDBRANCH 194 195
ENDBRANCH  71 194
ENDBRANCH  69  71
ENDBRANCH  66  67
BRANCH  66 198
ATOM    198  CB  GLU B 106       9.589  -4.044  22.725  0.00  0.00    +0.000 C 
BRANCH 198 199
ATOM    199  CG  GLU B 106       9.697  -4.408  21.253  0.00  0.00    +0.000 C 
BRANCH 199 200
ATOM    200  CD  GLU B 106      10.187  -3.253  20.401  0.00  0.00    +0.000 C 
ATOM    201  OE1 GLU B 106      11.417  -3.125  20.225  0.00  0.00    +0.000 OA
ATOM    202  OE2 GLU B 106       9.341  -2.477  19.910  0.00  0.00    +0.000 OA
ENDBRANCH 199 200
ENDBRANCH 198 199
ENDBRANCH  66 198
ENDBRANCH  64  66
ENDBRANCH  61  62
BRANCH  61 203
ATOM    203  CB  ARG B 105       5.294  -5.467  26.237  0.00  0.00    +0.000 C 
BRANCH 203 204
ATOM    204  CG  ARG B 105       4.353  -5.334  27.426  0.00  0.00    +0.000 C 
BRANCH 204 205
ATOM    205  CD  ARG B 105       4.343  -6.594  28.279  0.00  0.00    +0.000 C 
BRANCH 205 206
ATOM    206  NE  ARG B 105       3.441  -6.475  29.424  0.00  0.00    +0.000 N 
ATOM    207  CZ  ARG B 105       3.245  -7.437  30.326  0.00  0.00    +0.000 C 
ATOM    208  NH1 ARG B 105       3.885  -8.597  30.226  0.00  0.00    +0.000 N 
ATOM    209  NH2 ARG B 105       2.406  -7.238  31.334  0.00  0.00    +0.000 N 
ATOM    210  HE  ARG B 105       2.952  -5.631  29.527  0.00  0.00    +0.000 HD
ATOM    211 HH11 ARG B 105       4.520  -8.755  29.469  0.00  0.00    +0.000 HD
ATOM    212 HH12 ARG B 105       3.733  -9.313  30.907  0.00  0.00    +0.000 HD
ATOM    213 HH21 ARG B 105       1.921  -6.367  31.417  0.00  0.00    +0.000 HD
ATOM    214 HH22 ARG B 105       2.259  -7.958  32.011  0.00  0.00    +0.000 HD
ENDBRANCH 205 206
ENDBRANCH 204 205
ENDBRANCH 203 204
ENDBRANCH  61 203
ENDBRANCH  59  61
ENDBRANCH  56  57
BRANCH  56 215
ATOM    215  CB  GLU B 104       6.531  -0.888  28.158  0.00  0.00    +0.000 C 
BRANCH 215 216
ATOM    216  CG  GLU B 104       6.930  -0.506  29.576  0.00  0.00    +0.000 C 
BRANCH 216 217
ATOM    217  CD  GLU B 104       7.578   0.863  29.657  0.00  0.00    +0.000 C 
ATOM    218  OE1 GLU B 104       6.844   1.857  29.843  0.00  0.00    +0.000 OA
ATOM    219  OE2 GLU B 104       8.818   0.942  29.534  0.00  0.00    +0.000 OA
ENDBRANCH 216 217
ENDBRANCH 215 216
ENDBRANCH  56 215
ENDBRANCH  54  56
ENDBRANCH  51  52
BRANCH  51 220
ATOM    220  CB  GLN B 103       8.974   1.139  23.602  0.00  0.00    +0.000 C 
BRANCH 220 221
ATOM    221  CG  GLN B 103      10.430   1.194  23.165  0.00  0.00    +0.000 C 
BRANCH 221 222
ATOM    222  CD  GLN B 103      10.947   2.614  23.039  0.00  0.00    +0.000 C 
ATOM    223  OE1 GLN B 103      11.467   3.186  23.998  0.00  0.00    +0.000 OA
ATOM    224  NE2 GLN B 103      10.808   3.191  21.852  0.00  0.00    +0.000 N 
ATOM    225 HE21 GLN B 103      10.384   2.676  21.133  0.00  0.00    +0.000 HD
ATOM    226 HE22 GLN B 103      11.134   4.109  21.741  0.00  0.00    +0.000 HD
ENDBRANCH 221 222
ENDBRANCH 220 221
ENDBRANCH  51 220
ENDBRANCH  49  51
ENDBRANCH  46  47
BRANCH  46 227
ATOM    227  CB  LEU B 102       4.685  -0.340  21.346  0.00  0.00    +0.000 C 
BRANCH 227 228
ATOM    228  CG  LEU B 102       4.952  -0.990  19.983  0.00  0.00    +0.000 C 
ATOM    229  CD1 LEU B 102       3.947  -0.498  18.954  0.00  0.00    +0.000 C 
ATOM    230  CD2 LEU B 102       6.372  -0.698  19.519  0.00  0.00    +0.000 C 
ENDBRANCH 227 228
ENDBRANCH  46 227
ENDBRANCH  44  46
ENDBRANCH  41  42
BRANCH  41 231
ATOM    231  CB  LEU B 101       2.131  -1.415  26.266  0.00  0.00    +0.000 C 
BRANCH 231 232
ATOM    232  CG  LEU B 101       1.488  -1.228  27.645  0.00  0.00    +0.000 C 
ATOM    233  CD1 LEU B 101      -0.004  -1.520  27.579  0.00  0.00    +0.000 C 
ATOM    234  CD2 LEU B 101       2.155  -2.126  28.681  0.00  0.00    +0.000 C 
ENDBRANCH 231 232
ENDBRANCH  41 231
ENDBRANCH  39  41
ENDBRANCH  36  37
BRANCH  36 235
ATOM    235  CB  ARG B 100       2.853   3.745  26.943  0.00  0.00    +0.000 C 
BRANCH 235 236
ATOM    236  CG  ARG B 100       2.849   5.259  26.798  0.00  0.00    +0.000 C 
BRANCH 236 237
ATOM    237  CD  ARG B 100       1.912   5.916  27.801  0.00  0.00    +0.000 C 
BRANCH 237 238
ATOM    238  NE  ARG B 100       2.467   5.916  29.156  0.00  0.00    +0.000 N 
ATOM    239  CZ  ARG B 100       1.845   6.430  30.218  0.00  0.00    +0.000 C 
ATOM    240  NH1 ARG B 100       0.646   6.988  30.095  0.00  0.00    +0.000 N 
ATOM    241  NH2 ARG B 100       2.426   6.384  31.409  0.00  0.00    +0.000 N 
ATOM    242  HE  ARG B 100       3.351   5.512  29.280  0.00  0.00    +0.000 HD
ATOM    243 HH11 ARG B 100       0.202   7.026  29.200  0.00  0.00    +0.000 HD
ATOM    244 HH12 ARG B 100       0.187   7.370  30.897  0.00  0.00    +0.000 HD
ATOM    245 HH21 ARG B 100       3.328   5.965  31.510  0.00  0.00    +0.000 HD
ATOM    246 HH22 ARG B 100       1.961   6.769  32.208  0.00  0.00    +0.000 HD
ENDBRANCH 237 238
ENDBRANCH 236 237
ENDBRANCH 235 236
ENDBRANCH  36 235
ENDBRANCH  34  36
ENDBRANCH  31  32
BRANCH  31 247
ATOM    247  CB  ARG B  99       2.949   4.013  21.623  0.00  0.00    +0.000 C 
BRANCH 247 248
ATOM    248  CG  ARG B  99       2.538   3.976  20.159  0.00  0.00    +0.000 C 
BRANCH 248 249
ATOM    249  CD  ARG B  99       2.146   5.356  19.653  0.00  0.00    +0.000 C 
BRANCH 249 250
ATOM    250  NE  ARG B  99       0.782   5.717  20.040  0.00  0.00    +0.000 N 
ATOM    251  CZ  ARG B  99       0.003   6.549  19.347  0.00  0.00    +0.000 C 
ATOM    252  NH1 ARG B  99       0.446   7.116  18.230  0.00  0.00    +0.000 N 
ATOM    253  NH2 ARG B  99      -1.224   6.815  19.773  0.00  0.00    +0.000 N 
ATOM    254  HE  ARG B  99       0.425   5.316  20.860  0.00  0.00    +0.000 HD
ATOM    255 HH11 ARG B  99       1.371   6.920  17.902  0.00  0.00    +0.000 HD
ATOM    256 HH12 ARG B  99      -0.145   7.739  17.717  0.00  0.00    +0.000 HD
ATOM    257 HH21 ARG B  99      -1.564   6.392  20.612  0.00  0.00    +0.000 HD
ATOM    258 HH22 ARG B  99      -1.809   7.439  19.255  0.00  0.00    +0.000 HD
ENDBRANCH 249 250
ENDBRANCH 248 249
ENDBRANCH 247 248
ENDBRANCH  31 247
ENDBRANCH  29  31
ENDBRANCH  26  27
BRANCH  26 259
ATOM    259  CB  LEU B  98      -0.812   0.132  21.613  0.00  0.00    +0.000 C 
BRANCH 259 260
ATOM    260  CG  LEU B  98      -0.739  -1.308  21.088  0.00  0.00    +0.000 C 
ATOM    261  CD1 LEU B  98      -1.572  -2.246  21.953  0.00  0.00    +0.000 C 
ATOM    262  CD2 LEU B  98      -1.199  -1.368  19.640  0.00  0.00    +0.000 C 
ENDBRANCH 259 260
ENDBRANCH  26 259
ENDBRANCH  24  26
ENDBRANCH  21  22
BRANCH  21 263
ATOM    263  CB  THR B  97      -2.329   2.251  26.395  0.00  0.00    +0.000 C 
ATOM    264  CG2 THR B  97      -2.784   3.261  27.438  0.00  0.00    +0.000 C 
BRANCH 263 265
ATOM    265  OG1 THR B  97      -3.386   2.012  25.460  0.00  0.00    +0.000 OA
ATOM    266  HG1 THR B  97      -4.170   2.496  25.731  0.00  0.00    +0.000 HD
ENDBRANCH 263 265
ENDBRANCH  21 263
ENDBRANCH  19  21
ENDBRANCH  16  17
BRANCH  16 267
ATOM    267  CB  ARG B  96      -0.375   7.150  23.693  0.00  0.00    +0.000 C 
BRANCH 267 268
ATOM    268  CG  ARG B  96      -0.461   8.171  22.569  0.00  0.00    +0.000 C 
BRANCH 268 269
ATOM    269  CD  ARG B  96       0.141   9.504  22.981  0.00  0.00    +0.000 C 
BRANCH 269 270
ATOM    270  NE  ARG B  96       0.063  10.496  21.908  0.00  0.00    +0.000 N 
ATOM    271  CZ  ARG B  96       0.520  11.746  22.009  0.00  0.00    +0.000 C 
ATOM    272  NH1 ARG B  96       1.089  12.168  23.132  0.00  0.00    +0.000 N 
ATOM    273  NH2 ARG B  96       0.406  12.576  20.981  0.00  0.00    +0.000 N 
ATOM    274  HE  ARG B  96      -0.351  10.216  21.065  0.00  0.00    +0.000 HD
ATOM    275 HH11 ARG B  96       1.179  11.547  23.911  0.00  0.00    +0.000 HD
ATOM    276 HH12 ARG B  96       1.429  13.106  23.200  0.00  0.00    +0.000 HD
ATOM    277 HH21 ARG B  96      -0.022  12.265  20.132  0.00  0.00    +0.000 HD
ATOM    278 HH22 ARG B  96       0.747  13.513  21.055  0.00  0.00    +0.000 HD
ENDBRANCH 269 270
ENDBRANCH 268 269
ENDBRANCH 267 268
ENDBRANCH  16 267
ENDBRANCH  14  16
ENDBRANCH  11  12
BRANCH  11 279
ATOM    279  CB  LYS B  95      -5.248   4.442  23.686  0.00  0.00    +0.000 C 
BRANCH 279 280
ATOM    280  CG  LYS B  95      -6.649   4.849  24.117  0.00  0.00    +0.000 C 
BRANCH 280 281
ATOM    281  CD  LYS B  95      -7.170   3.956  25.231  0.00  0.00    +0.000 C 
BRANCH 281 282
ATOM    282  CE  LYS B  95      -8.570   4.362  25.661  0.00  0.00    +0.000 C 
BRANCH 282 283
ATOM    283  NZ  LYS B  95      -9.089   3.493  26.754  0.00  0.00    +0.000 N 
ATOM    284  HZ1 LYS B  95      -8.468   3.556  27.586  0.00  0.00    +0.000 HD
ATOM    285  HZ2 LYS B  95      -9.127   2.503  26.437  0.00  0.00    +0.000 HD
ATOM    286  HZ3 LYS B  95     -10.046   3.794  27.026  0.00  0.00    +0.000 HD
ENDBRANCH 282 283
ENDBRANCH 281 282
ENDBRANCH 280 281
ENDBRANCH 279 280
ENDBRANCH  11 279
ENDBRANCH   9  11
ENDBRANCH   6   7
BRANCH   6 287
ATOM    287  CB  ARG B  94      -5.199   4.654  18.184  0.00  0.00    +0.000 C 
BRANCH 287 288
ATOM    288  CG  ARG B  94      -5.156   3.159  18.467  0.00  0.00    +0.000 C 
BRANCH 288 289
ATOM    289  CD  ARG B  94      -4.090   2.466  17.632  0.00  0.00    +0.000 C 
BRANCH 289 290
ATOM    290  NE  ARG B  94      -4.110   1.015  17.815  0.00  0.00    +0.000 N 
ATOM    291  CZ  ARG B  94      -3.358   0.162  17.118  0.00  0.00    +0.000 C 
ATOM    292  NH1 ARG B  94      -2.519   0.607  16.187  0.00  0.00    +0.000 N 
ATOM    293  NH2 ARG B  94      -3.443  -1.140  17.352  0.00  0.00    +0.000 N 
ATOM    294  HE  ARG B  94      -4.718   0.654  18.494  0.00  0.00    +0.000 HD
ATOM    295 HH11 ARG B  94      -2.449   1.588  16.005  0.00  0.00    +0.000 HD
ATOM    296 HH12 ARG B  94      -1.959  -0.040  15.670  0.00  0.00    +0.000 HD
ATOM    297 HH21 ARG B  94      -4.072  -1.482  18.051  0.00  0.00    +0.000 HD
ATOM    298 HH22 ARG B  94      -2.880  -1.780  16.830  0.00  0.00    +0.000 HD
ENDBRANCH 289 290
ENDBRANCH 288 289
ENDBRANCH 287 288
ENDBRANCH   6 287
ENDBRANCH   4   6
ENDBRANCH   1   2
BRANCH   1 301
ATOM    299  C   ILE B  92      -6.696   9.766  17.384  0.00  0.00    +0.000 C 
ATOM    300  O   ILE B  92      -6.964  10.316  18.454  0.00  0.00    +0.000 OA
ATOM    301  N   VAL B  93      -7.369   8.715  16.915  0.00  0.00    +0.000 N 
ATOM    302  H   VAL B  93      -7.104   8.326  16.055  0.00  0.00    +0.000 HD
BRANCH 299 303
ATOM    303  CA  ILE B  92      -5.544  10.277  16.513  0.00  0.00    +0.000 C 
BRANCH 303 306
ATOM    304  C   HIS B  91      -4.138   8.322  16.072  0.00  0.00    +0.000 C 
ATOM    305  O   HIS B  91      -3.682   8.322  17.216  0.00  0.00    +0.000 OA
ATOM    306  N   ILE B  92      -5.031   9.216  15.643  0.00  0.00    +0.000 N 
ATOM    307  H   ILE B  92      -5.352   9.161  14.718  0.00  0.00    +0.000 HD
BRANCH 304 308
ATOM    308  CA  HIS B  91      -3.689   7.267  15.057  0.00  0.00    +0.000 C 
BRANCH 308 311
ATOM    309  C   ARG B  90      -5.852   6.330  14.384  0.00  0.00    +0.000 C 
ATOM    310  O   ARG B  90      -6.089   5.915  15.520  0.00  0.00    +0.000 OA
ATOM    311  N   HIS B  91      -4.733   6.988  14.069  0.00  0.00    +0.000 N 
ATOM    312  H   HIS B  91      -4.607   7.294  13.146  0.00  0.00    +0.000 HD
BRANCH 309 313
ATOM    313  CA  ARG B  90      -6.855   6.106  13.250  0.00  0.00    +0.000 C 
BRANCH 313 316
ATOM    314  C   ARG B  89      -7.154   8.305  12.209  0.00  0.00    +0.000 C 
ATOM    315  O   ARG B  89      -7.803   8.736  13.165  0.00  0.00    +0.000 OA
ATOM    316  N   ARG B  90      -6.660   7.066  12.161  0.00  0.00    +0.000 N 
ATOM    317  H   ARG B  90      -6.151   6.790  11.371  0.00  0.00    +0.000 HD
BRANCH 314 318
ATOM    318  CA  ARG B  89      -6.873   9.193  10.996  0.00  0.00    +0.000 C 
BRANCH 318 321
ATOM    319  C   ARG B  88      -4.490   8.894  10.515  0.00  0.00    +0.000 C 
ATOM    320  O   ARG B  88      -4.150   9.555  11.498  0.00  0.00    +0.000 OA
ATOM    321  N   ARG B  89      -5.766   8.668  10.194  0.00  0.00    +0.000 N 
ATOM    322  H   ARG B  89      -5.968   8.135   9.397  0.00  0.00    +0.000 HD
BRANCH 319 323
ATOM    323  CA  ARG B  88      -3.439   8.280   9.589  0.00  0.00    +0.000 C 
BRANCH 323 326
ATOM    324  C   ILE B  87      -4.256   5.968   9.556  0.00  0.00    +0.000 C 
ATOM    325  O   ILE B  87      -4.131   5.849  10.775  0.00  0.00    +0.000 OA
ATOM    326  N   ARG B  88      -3.953   7.092   8.898  0.00  0.00    +0.000 N 
ATOM    327  H   ARG B  88      -4.075   7.123   7.926  0.00  0.00    +0.000 HD
BRANCH 324 328
ATOM    328  CA  ILE B  87      -4.781   4.803   8.711  0.00  0.00    +0.000 C 
BRANCH 328 331
ATOM    329  C   PHE B  86      -6.873   5.598   7.715  0.00  0.00    +0.000 C 
ATOM    330  O   PHE B  86      -7.480   5.498   8.783  0.00  0.00    +0.000 OA
ATOM    331  N   ILE B  87      -5.580   5.286   7.580  0.00  0.00    +0.000 N 
ATOM    332  H   ILE B  87      -5.155   5.375   6.697  0.00  0.00    +0.000 HD
BRANCH 329 333
ATOM    333  CA  PHE B  86      -7.589   6.099   6.459  0.00  0.00    +0.000 C 
BRANCH 333 336
ATOM    334  C   LEU B  85      -6.461   8.239   6.076  0.00  0.00    +0.000 C 
ATOM    335  O   LEU B  85      -6.914   8.732   7.110  0.00  0.00    +0.000 OA
ATOM    336  N   PHE B  86      -6.731   6.991   5.680  0.00  0.00    +0.000 N 
ATOM    337  H   PHE B  86      -6.347   6.665   4.838  0.00  0.00    +0.000 HD
BRANCH 334 338
ATOM    338  CA  LEU B  85      -5.540   9.052   5.165  0.00  0.00    +0.000 C 
BRANCH 338 341
ATOM    339  C   GLY B  84      -3.670   7.499   4.885  0.00  0.00    +0.000 C 
ATOM    340  O   GLY B  84      -3.360   7.564   6.075  0.00  0.00    +0.000 OA
ATOM    341  N   LEU B  85      -4.695   8.173   4.356  0.00  0.00    +0.000 N 
ATOM    342  H   LEU B  85      -4.886   8.080   3.398  0.00  0.00    +0.000 HD
BRANCH 339 343
ATOM    343  CA  GLY B  84      -2.886   6.614   3.932  0.00  0.00    +0.000 C 
BRANCH 343 346
ATOM    344  C   ILE B  83      -4.533   4.849   3.621  0.00  0.00    +0.000 C 
ATOM    345  O   ILE B  83      -4.578   4.605   4.832  0.00  0.00    +0.000 OA
ATOM    346  N   GLY B  84      -3.752   5.797   3.094  0.00  0.00    +0.000 N 
ATOM    347  H   GLY B  84      -3.764   5.942   2.124  0.00  0.00    +0.000 HD
BRANCH 344 348
ATOM    348  CA  ILE B  83      -5.406   4.068   2.633  0.00  0.00    +0.000 C 
BRANCH 348 351
ATOM    349  C   GLY B  82      -6.742   5.965   1.846  0.00  0.00    +0.000 C 
ATOM    350  O   GLY B  82      -7.141   6.232   2.981  0.00  0.00    +0.000 OA
ATOM    351  N   ILE B  83      -5.911   4.954   1.581  0.00  0.00    +0.000 N 
ATOM    352  H   ILE B  83      -5.629   4.801   0.654  0.00  0.00    +0.000 HD
BRANCH 349 353
ATOM    353  CA  GLY B  82      -7.176   6.805   0.657  0.00  0.00    +0.000 C 
BRANCH 353 356
ATOM    354  C   LEU B  81      -5.286   8.326   0.459  0.00  0.00    +0.000 C 
ATOM    355  O   LEU B  81      -5.479   8.793   1.582  0.00  0.00    +0.000 OA
ATOM    356  N   GLY B  82      -6.046   7.363  -0.073  0.00  0.00    +0.000 N 
ATOM    357  H   GLY B  82      -5.837   7.030  -0.972  0.00  0.00    +0.000 HD
BRANCH 354 358
ATOM    358  CA  LEU B  81      -4.125   8.827  -0.404  0.00  0.00    +0.000 C 
BRANCH 358 361
ATOM    359  C   ALA B  80      -2.641   6.882  -0.290  0.00  0.00    +0.000 C 
ATOM    360  O   ALA B  80      -2.493   6.992   0.930  0.00  0.00    +0.000 OA
ATOM    361  N   LEU B  81      -3.402   7.710  -1.011  0.00  0.00    +0.000 N 
ATOM    362  H   LEU B  81      -3.476   7.566  -1.979  0.00  0.00    +0.000 HD
BRANCH 359 363
ATOM    363  CA  ALA B  80      -1.950   5.758  -1.060  0.00  0.00    +0.000 C 
ATOM    364  CB  ALA B  80      -0.621   6.242  -1.621  0.00  0.00    +0.000 C 
BRANCH 363 367
ATOM    365  C   VAL B  79      -3.900   4.528  -1.882  0.00  0.00    +0.000 C 
ATOM    366  O   VAL B  79      -4.272   4.251  -0.740  0.00  0.00    +0.000 OA
ATOM    367  N   ALA B  80      -2.802   5.245  -2.134  0.00  0.00    +0.000 N 
ATOM    368  H   ALA B  80      -2.560   5.434  -3.065  0.00  0.00    +0.000 HD
BRANCH 365 369
ATOM    369  CA  VAL B  79      -4.704   4.058  -3.098  0.00  0.00    +0.000 C 
BRANCH 369 372
ATOM    370  C   VAL B  78      -5.452   6.232  -3.945  0.00  0.00    +0.000 C 
ATOM    371  O   VAL B  78      -6.081   6.477  -2.911  0.00  0.00    +0.000 OA
ATOM    372  N   VAL B  79      -4.762   5.102  -4.126  0.00  0.00    +0.000 N 
ATOM    373  H   VAL B  79      -4.284   4.965  -4.973  0.00  0.00    +0.000 HD
BRANCH 370 374
ATOM    374  CA  VAL B  78      -5.428   7.243  -5.096  0.00  0.00    +0.000 C 
BRANCH 374 377
ATOM    375  C   LEU B  77      -3.082   7.947  -4.966  0.00  0.00    +0.000 C 
ATOM    376  O   LEU B  77      -3.222   8.394  -3.825  0.00  0.00    +0.000 OA
ATOM    377  N   VAL B  78      -4.078   7.377  -5.654  0.00  0.00    +0.000 N 
ATOM    378  H   VAL B  78      -3.901   7.043  -6.561  0.00  0.00    +0.000 HD
BRANCH 375 379
ATOM    379  CA  LEU B  77      -1.721   8.018  -5.666  0.00  0.00    +0.000 C 
BRANCH 379 382
ATOM    380  C   LEU B  76      -1.156   5.633  -5.700  0.00  0.00    +0.000 C 
ATOM    381  O   LEU B  76      -1.136   5.558  -4.471  0.00  0.00    +0.000 OA
ATOM    382  N   LEU B  77      -1.423   6.765  -6.360  0.00  0.00    +0.000 N 
ATOM    383  H   LEU B  77      -1.409   6.760  -7.341  0.00  0.00    +0.000 HD
BRANCH 380 384
ATOM    384  CA  LEU B  76      -0.876   4.404  -6.560  0.00  0.00    +0.000 C 
BRANCH 384 387
ATOM    385  C   LEU B  75      -3.010   4.247  -7.749  0.00  0.00    +0.000 C 
ATOM    386  O   LEU B  75      -3.644   4.051  -6.710  0.00  0.00    +0.000 OA
ATOM    387  N   LEU B  76      -1.688   4.429  -7.776  0.00  0.00    +0.000 N 
ATOM    388  H   LEU B  76      -1.247   4.586  -8.637  0.00  0.00    +0.000 HD
BRANCH 385 389
ATOM    389  CA  LEU B  75      -3.723   4.317  -9.097  0.00  0.00    +0.000 C 
BRANCH 389 392
ATOM    390  C   LEU B  74      -3.332   6.667  -9.631  0.00  0.00    +0.000 C 
ATOM    391  O   LEU B  74      -3.973   7.047  -8.648  0.00  0.00    +0.000 OA
ATOM    392  N   LEU B  75      -3.150   5.378  -9.927  0.00  0.00    +0.000 N 
ATOM    393  H   LEU B  75      -2.612   5.138 -10.714  0.00  0.00    +0.000 HD
BRANCH 390 394
ATOM    394  CA  LEU B  74      -2.679   7.677 -10.568  0.00  0.00    +0.000 C 
BRANCH 394 397
ATOM    395  C   LEU B  73      -0.314   7.241 -10.128  0.00  0.00    +0.000 C 
ATOM    396  O   LEU B  73      -0.411   7.627  -8.960  0.00  0.00    +0.000 OA
ATOM    397  N   LEU B  74      -1.348   7.230 -10.979  0.00  0.00    +0.000 N 
ATOM    398  H   LEU B  74      -1.211   6.922 -11.902  0.00  0.00    +0.000 HD
BRANCH 395 399
ATOM    399  CA  LEU B  73       1.021   6.728 -10.666  0.00  0.00    +0.000 C 
BRANCH 399 402
ATOM    400  C   ALA B  72       0.365   4.411 -11.024  0.00  0.00    +0.000 C 
ATOM    401  O   ALA B  72       0.068   4.263  -9.840  0.00  0.00    +0.000 OA
ATOM    402  N   LEU B  73       0.828   5.556 -11.516  0.00  0.00    +0.000 N 
ATOM    403  H   LEU B  73       1.045   5.615 -12.469  0.00  0.00    +0.000 HD
BRANCH 400 404
ATOM    404  CA  ALA B  72       0.206   3.256 -12.005  0.00  0.00    +0.000 C 
ATOM    405  CB  ALA B  72       1.546   2.576 -12.242  0.00  0.00    +0.000 C 
BRANCH 404 408
ATOM    406  C   GLY B  71      -1.683   3.966 -13.384  0.00  0.00    +0.000 C 
ATOM    407  O   GLY B  71      -2.462   3.936 -12.428  0.00  0.00    +0.000 OA
ATOM    408  N   ALA B  72      -0.385   3.675 -13.277  0.00  0.00    +0.000 N 
ATOM    409  H   ALA B  72       0.188   3.741 -14.073  0.00  0.00    +0.000 HD
BRANCH 406 410
ATOM    410  CA  GLY B  71      -2.172   4.367 -14.763  0.00  0.00    +0.000 C 
BRANCH 410 413
ATOM    411  C   VAL B  70      -1.273   6.620 -14.911  0.00  0.00    +0.000 C 
ATOM    412  O   VAL B  70      -1.893   6.990 -13.914  0.00  0.00    +0.000 OA
ATOM    413  N   GLY B  71      -1.330   5.379 -15.386  0.00  0.00    +0.000 N 
ATOM    414  H   GLY B  71      -0.789   5.149 -16.168  0.00  0.00    +0.000 HD
BRANCH 411 415
ATOM    415  CA  VAL B  70      -0.347   7.580 -15.660  0.00  0.00    +0.000 C 
BRANCH 415 418
ATOM    416  C   LEU B  69       1.735   6.388 -15.199  0.00  0.00    +0.000 C 
ATOM    417  O   LEU B  69       1.529   6.402 -13.988  0.00  0.00    +0.000 OA
ATOM    418  N   VAL B  70       0.888   6.919 -16.081  0.00  0.00    +0.000 N 
ATOM    419  H   VAL B  70       1.100   6.866 -17.039  0.00  0.00    +0.000 HD
BRANCH 416 420
ATOM    420  CA  LEU B  69       2.990   5.733 -15.766  0.00  0.00    +0.000 C 
BRANCH 420 423
ATOM    421  C   GLY B  68       1.867   3.862 -16.879  0.00  0.00    +0.000 C 
ATOM    422  O   GLY B  68       1.306   3.491 -15.840  0.00  0.00    +0.000 OA
ATOM    423  N   LEU B  69       2.678   4.920 -16.940  0.00  0.00    +0.000 N 
ATOM    424  H   LEU B  69       3.080   5.160 -17.802  0.00  0.00    +0.000 HD
BRANCH 421 425
ATOM    425  CA  GLY B  68       1.644   3.124 -18.189  0.00  0.00    +0.000 C 
BRANCH 425 428
ATOM    426  C   THR B  67       0.281   4.600 -19.560  0.00  0.00    +0.000 C 
ATOM    427  O   THR B  67      -0.724   4.383 -18.882  0.00  0.00    +0.000 OA
ATOM    428  N   GLY B  68       1.465   4.035 -19.311  0.00  0.00    +0.000 N 
ATOM    429  H   GLY B  68       2.225   4.239 -19.896  0.00  0.00    +0.000 HD
BRANCH 426 430
ATOM    430  CA  THR B  67       0.222   5.550 -20.761  0.00  0.00    +0.000 C 
BRANCH 430 433
ATOM    431  C   ALA B  66       1.992   7.098 -20.059  0.00  0.00    +0.000 C 
ATOM    432  O   ALA B  66       1.428   7.357 -18.993  0.00  0.00    +0.000 OA
ATOM    433  N   THR B  67       1.496   6.245 -20.960  0.00  0.00    +0.000 N 
ATOM    434  H   THR B  67       2.002   6.080 -21.783  0.00  0.00    +0.000 HD
BRANCH 431 435
ATOM    435  CA  ALA B  66       3.329   7.750 -20.409  0.00  0.00    +0.000 C 
ATOM    436  CB  ALA B  66       3.099   9.102 -21.067  0.00  0.00    +0.000 C 
BRANCH 435 439
ATOM    437  C   ILE B  65       4.905   5.919 -20.801  0.00  0.00    +0.000 C 
ATOM    438  O   ILE B  65       4.998   5.663 -19.598  0.00  0.00    +0.000 OA
ATOM    439  N   ALA B  66       4.133   6.895 -21.282  0.00  0.00    +0.000 N 
ATOM    440  H   ALA B  66       4.103   7.043 -22.250  0.00  0.00    +0.000 HD
BRANCH 437 441
ATOM    441  CA  ILE B  65       5.692   5.105 -21.833  0.00  0.00    +0.000 C 
BRANCH 441 444
ATOM    442  C   SER B  64       4.001   4.064 -23.268  0.00  0.00    +0.000 C 
ATOM    443  O   SER B  64       3.681   3.251 -22.399  0.00  0.00    +0.000 OA
ATOM    444  N   ILE B  65       4.948   4.987 -23.089  0.00  0.00    +0.000 N 
ATOM    445  H   ILE B  65       5.152   5.606 -23.821  0.00  0.00    +0.000 HD
BRANCH 442 446
ATOM    446  CA  SER B  64       3.309   4.058 -24.635  0.00  0.00    +0.000 C 
BRANCH 446 449
ATOM    447  C   PRO B  63       3.185   6.418 -25.281  0.00  0.00    +0.000 C 
ATOM    448  O   PRO B  63       2.319   6.666 -24.440  0.00  0.00    +0.000 OA
ATOM    449  N   SER B  64       3.717   5.206 -25.448  0.00  0.00    +0.000 N 
ATOM    450  H   SER B  64       4.402   5.079 -26.136  0.00  0.00    +0.000 HD
BRANCH 447 454
ATOM    451  C   ILE B  62       1.701   7.994 -27.576  0.00  0.00    +0.000 C 
ATOM    452  O   ILE B  62       1.673   6.844 -28.018  0.00  0.00    +0.000 OA
ATOM    453  N   PRO B  63       2.648   8.404 -26.700  0.00  0.00    +0.000 N 
ATOM    454  CA  PRO B  63       3.713   7.516 -26.206  0.00  0.00    +0.000 C 
ATOM    455  CB  PRO B  63       4.641   8.462 -25.439  0.00  0.00    +0.000 C 
ATOM    456  CG  PRO B  63       3.789   9.619 -25.047  0.00  0.00    +0.000 C 
ATOM    457  CD  PRO B  63       2.758   9.766 -26.131  0.00  0.00    +0.000 C 
BRANCH 451 458
ATOM    458  CA  ILE B  62       0.645   9.014 -28.013  0.00  0.00    +0.000 C 
BRANCH 458 461
ATOM    459  C   LYS B  61       0.073   9.794 -30.258  0.00  0.00    +0.000 C 
ATOM    460  O   LYS B  61       0.259  10.975 -29.958  0.00  0.00    +0.000 OA
ATOM    461  N   ILE B  62       0.232   8.787 -29.398  0.00  0.00    +0.000 N 
ATOM    462  H   ILE B  62       0.067   7.870 -29.701  0.00  0.00    +0.000 HD
BRANCH 459 463
ATOM    463  CA  LYS B  61      -0.362   9.410 -31.671  0.00  0.00    +0.000 C 
BRANCH 463 464
ATOM    464  N   LYS B  61       0.354   8.193 -32.138  0.00  0.00    +0.000 N 
ATOM    465  H   LYS B  61       0.046   7.945 -33.101  0.00  0.00    +0.000 HD
ATOM    466  H2  LYS B  61       0.149   7.394 -31.506  0.00  0.00    +0.000 HD
ATOM    467  H3  LYS B  61       1.379   8.362 -32.146  0.00  0.00    +0.000 HD
ENDBRANCH 463 464
BRANCH 463 468
ATOM    468  CB  LYS B  61      -1.876   9.181 -31.705  0.00  0.00    +0.000 C 
BRANCH 468 469
ATOM    469  CG  LYS B  61      -2.461   9.167 -33.108  0.00  0.00    +0.000 C 
BRANCH 469 470
ATOM    470  CD  LYS B  61      -3.965   8.939 -33.083  0.00  0.00    +0.000 C 
BRANCH 470 471
ATOM    471  CE  LYS B  61      -4.554   8.925 -34.485  0.00  0.00    +0.000 C 
BRANCH 471 472
ATOM    472  NZ  LYS B  61      -4.221   7.672 -35.220  0.00  0.00    +0.000 N 
ATOM    473  HZ1 LYS B  61      -4.598   6.849 -34.708  0.00  0.00    +0.000 HD
ATOM    474  HZ2 LYS B  61      -3.189   7.571 -35.305  0.00  0.00    +0.000 HD
ATOM    475  HZ3 LYS B  61      -4.637   7.696 -36.172  0.00  0.00    +0.000 HD
ENDBRANCH 471 472
ENDBRANCH 470 471
ENDBRANCH 469 470
ENDBRANCH 468 469
ENDBRANCH 463 468
ENDBRANCH 459 463
ENDBRANCH 458 461
BRANCH 458 476
ATOM    476  CB  ILE B  62      -0.555   8.961 -27.034  0.00  0.00    +0.000 C 
ATOM    477  CG2 ILE B  62      -1.310  10.282 -27.055  0.00  0.00    +0.000 C 
BRANCH 476 478
ATOM    478  CG1 ILE B  62      -1.502   7.799 -27.369  0.00  0.00    +0.000 C 
ATOM    479  CD1 ILE B  62      -1.210   6.534 -26.590  0.00  0.00    +0.000 C 
ENDBRANCH 476 478
ENDBRANCH 458 476
ENDBRANCH 451 458
ENDBRANCH 447 454
ENDBRANCH 446 449
BRANCH 446 480
ATOM    480  CB  SER B  64       3.620   2.754 -25.371  0.00  0.00    +0.000 C 
BRANCH 480 481
ATOM    481  OG  SER B  64       2.932   2.690 -26.608  0.00  0.00    +0.000 OA
ATOM    482  HG  SER B  64       3.317   3.319 -27.223  0.00  0.00    +0.000 HD
ENDBRANCH 480 481
ENDBRANCH 446 480
ENDBRANCH 442 446
ENDBRANCH 441 444
BRANCH 441 483
ATOM    483  CB  ILE B  65       7.082   5.759 -22.045  0.00  0.00    +0.000 C 
ATOM    484  CG2 ILE B  65       7.974   5.538 -20.829  0.00  0.00    +0.000 C 
BRANCH 483 485
ATOM    485  CG1 ILE B  65       7.762   5.203 -23.302  0.00  0.00    +0.000 C 
ATOM    486  CD1 ILE B  65       7.585   6.077 -24.525  0.00  0.00    +0.000 C 
ENDBRANCH 483 485
ENDBRANCH 441 483
ENDBRANCH 437 441
ENDBRANCH 435 439
ENDBRANCH 431 435
ENDBRANCH 430 433
BRANCH 430 487
ATOM    487  CB  THR B  67      -0.183   4.754 -22.020  0.00  0.00    +0.000 C 
ATOM    488  CG2 THR B  67      -1.694   4.570 -22.091  0.00  0.00    +0.000 C 
BRANCH 487 489
ATOM    489  OG1 THR B  67       0.268   5.434 -23.199  0.00  0.00    +0.000 OA
ATOM    490  HG1 THR B  67      -0.297   6.191 -23.367  0.00  0.00    +0.000 HD
ENDBRANCH 487 489
ENDBRANCH 430 487
ENDBRANCH 426 430
ENDBRANCH 425 428
ENDBRANCH 421 425
ENDBRANCH 420 423
BRANCH 420 491
ATOM    491  CB  LEU B  69       4.021   6.813 -16.119  0.00  0.00    +0.000 C 
BRANCH 491 492
ATOM    492  CG  LEU B  69       5.419   6.297 -16.482  0.00  0.00    +0.000 C 
ATOM    493  CD1 LEU B  69       6.168   7.328 -17.312  0.00  0.00    +0.000 C 
ATOM    494  CD2 LEU B  69       6.209   5.954 -15.225  0.00  0.00    +0.000 C 
ENDBRANCH 491 492
ENDBRANCH 420 491
ENDBRANCH 416 420
ENDBRANCH 415 418
BRANCH 415 495
ATOM    495  CB  VAL B  70      -1.099   8.219 -16.855  0.00  0.00    +0.000 C 
ATOM    496  CG1 VAL B  70      -0.286   9.368 -17.435  0.00  0.00    +0.000 C 
ATOM    497  CG2 VAL B  70      -1.413   7.190 -17.939  0.00  0.00    +0.000 C 
ENDBRANCH 415 495
ENDBRANCH 411 415
ENDBRANCH 410 413
ENDBRANCH 406 410
ENDBRANCH 404 408
ENDBRANCH 400 404
ENDBRANCH 399 402
BRANCH 399 498
ATOM    498  CB  LEU B  73       1.759   7.829 -11.436  0.00  0.00    +0.000 C 
BRANCH 498 499
ATOM    499  CG  LEU B  73       3.291   7.708 -11.442  0.00  0.00    +0.000 C 
ATOM    500  CD1 LEU B  73       3.749   6.478 -12.221  0.00  0.00    +0.000 C 
ATOM    501  CD2 LEU B  73       3.917   8.967 -12.024  0.00  0.00    +0.000 C 
ENDBRANCH 498 499
ENDBRANCH 399 498
ENDBRANCH 395 399
ENDBRANCH 394 397
BRANCH 394 502
ATOM    502  CB  LEU B  74      -3.572   7.923 -11.788  0.00  0.00    +0.000 C 
BRANCH 502 503
ATOM    503  CG  LEU B  74      -3.669   9.383 -12.245  0.00  0.00    +0.000 C 
ATOM    504  CD1 LEU B  74      -2.421   9.794 -13.016  0.00  0.00    +0.000 C 
ATOM    505  CD2 LEU B  74      -4.913   9.591 -13.096  0.00  0.00    +0.000 C 
ENDBRANCH 502 503
ENDBRANCH 394 502
ENDBRANCH 390 394
ENDBRANCH 389 392
BRANCH 389 506
ATOM    506  CB  LEU B  75      -3.640   2.963  -9.810  0.00  0.00    +0.000 C 
BRANCH 506 507
ATOM    507  CG  LEU B  75      -4.979   2.401 -10.301  0.00  0.00    +0.000 C 
ATOM    508  CD1 LEU B  75      -5.227   2.794 -11.749  0.00  0.00    +0.000 C 
ATOM    509  CD2 LEU B  75      -5.015   0.888 -10.144  0.00  0.00    +0.000 C 
ENDBRANCH 506 507
ENDBRANCH 389 506
ENDBRANCH 385 389
ENDBRANCH 384 387
BRANCH 384 510
ATOM    510  CB  LEU B  76       0.614   4.344  -6.916  0.00  0.00    +0.000 C 
BRANCH 510 511
ATOM    511  CG  LEU B  76       1.493   3.565  -5.932  0.00  0.00    +0.000 C 
ATOM    512  CD1 LEU B  76       2.641   2.891  -6.666  0.00  0.00    +0.000 C 
ATOM    513  CD2 LEU B  76       2.025   4.487  -4.844  0.00  0.00    +0.000 C 
ENDBRANCH 510 511
ENDBRANCH 384 510
ENDBRANCH 380 384
ENDBRANCH 379 382
BRANCH 379 514
ATOM    514  CB  LEU B  77      -1.697   9.190  -6.653  0.00  0.00    +0.000 C 
BRANCH 514 515
ATOM    515  CG  LEU B  77      -1.414  10.564  -6.035  0.00  0.00    +0.000 C 
ATOM    516  CD1 LEU B  77       0.083  10.825  -5.963  0.00  0.00    +0.000 C 
ATOM    517  CD2 LEU B  77      -2.110  11.658  -6.831  0.00  0.00    +0.000 C 
ENDBRANCH 514 515
ENDBRANCH 379 514
ENDBRANCH 375 379
ENDBRANCH 374 377
BRANCH 374 518
ATOM    518  CB  VAL B  78      -6.456   6.822  -6.178  0.00  0.00    +0.000 C 
ATOM    519  CG1 VAL B  78      -7.847   6.650  -5.580  0.00  0.00    +0.000 C 
ATOM    520  CG2 VAL B  78      -6.494   7.838  -7.311  0.00  0.00    +0.000 C 
ENDBRANCH 374 518
ENDBRANCH 370 374
ENDBRANCH 369 372
BRANCH 369 521
ATOM    521  CB  VAL B  79      -4.095   2.743  -3.650  0.00  0.00    +0.000 C 
ATOM    522  CG1 VAL B  79      -3.966   1.691  -2.554  0.00  0.00    +0.000 C 
ATOM    523  CG2 VAL B  79      -4.934   2.202  -4.800  0.00  0.00    +0.000 C 
ENDBRANCH 369 521
ENDBRANCH 365 369
ENDBRANCH 363 367
ENDBRANCH 359 363
ENDBRANCH 358 361
BRANCH 358 524
ATOM    524  CB  LEU B  81      -4.648   9.774  -1.491  0.00  0.00    +0.000 C 
BRANCH 524 525
ATOM    525  CG  LEU B  81      -4.783  11.241  -1.072  0.00  0.00    +0.000 C 
ATOM    526  CD1 LEU B  81      -3.491  11.999  -1.339  0.00  0.00    +0.000 C 
ATOM    527  CD2 LEU B  81      -5.948  11.896  -1.799  0.00  0.00    +0.000 C 
ENDBRANCH 524 525
ENDBRANCH 358 524
ENDBRANCH 354 358
ENDBRANCH 353 356
ENDBRANCH 349 353
ENDBRANCH 348 351
BRANCH 348 528
ATOM    528  CB  ILE B  83      -4.597   2.883   2.037  0.00  0.00    +0.000 C 
ATOM    529  CG2 ILE B  83      -4.112   1.939   3.134  0.00  0.00    +0.000 C 
BRANCH 528 530
ATOM    530  CG1 ILE B  83      -5.428   2.112   0.989  0.00  0.00    +0.000 C 
ATOM    531  CD1 ILE B  83      -6.748   1.557   1.501  0.00  0.00    +0.000 C 
ENDBRANCH 528 530
ENDBRANCH 348 528
ENDBRANCH 344 348
ENDBRANCH 343 346
ENDBRANCH 339 343
ENDBRANCH 338 341
BRANCH 338 532
ATOM    532  CB  LEU B  85      -6.377   9.972   4.267  0.00  0.00    +0.000 C 
BRANCH 532 533
ATOM    533  CG  LEU B  85      -5.605  11.109   3.590  0.00  0.00    +0.000 C 
ATOM    534  CD1 LEU B  85      -6.354  11.602   2.362  0.00  0.00    +0.000 C 
ATOM    535  CD2 LEU B  85      -5.371  12.259   4.562  0.00  0.00    +0.000 C 
ENDBRANCH 532 533
ENDBRANCH 338 532
ENDBRANCH 334 338
ENDBRANCH 333 336
BRANCH 333 536
ATOM    536  CB  PHE B  86      -8.038   4.911   5.606  0.00  0.00    +0.000 C 
BRANCH 536 537
ATOM    537  CG  PHE B  86      -9.486   4.969   5.207  0.00  0.00    +0.000 A 
ATOM    538  CD1 PHE B  86      -9.872   5.598   4.034  0.00  0.00    +0.000 A 
ATOM    539  CD2 PHE B  86     -10.461   4.393   6.007  0.00  0.00    +0.000 A 
ATOM    540  CE1 PHE B  86     -11.204   5.651   3.666  0.00  0.00    +0.000 A 
ATOM    541  CE2 PHE B  86     -11.794   4.444   5.645  0.00  0.00    +0.000 A 
ATOM    542  CZ  PHE B  86     -12.165   5.073   4.473  0.00  0.00    +0.000 A 
ENDBRANCH 536 537
ENDBRANCH 333 536
ENDBRANCH 329 333
ENDBRANCH 328 331
BRANCH 328 543
ATOM    543  CB  ILE B  87      -3.587   3.930   8.246  0.00  0.00    +0.000 C 
ATOM    544  CG2 ILE B  87      -2.871   3.318   9.450  0.00  0.00    +0.000 C 
BRANCH 543 545
ATOM    545  CG1 ILE B  87      -4.062   2.826   7.292  0.00  0.00    +0.000 C 
ATOM    546  CD1 ILE B  87      -2.973   2.293   6.383  0.00  0.00    +0.000 C 
ENDBRANCH 543 545
ENDBRANCH 328 543
ENDBRANCH 324 328
ENDBRANCH 323 326
BRANCH 323 547
ATOM    547  CB  ARG B  88      -2.971   9.323   8.572  0.00  0.00    +0.000 C 
BRANCH 547 548
ATOM    548  CG  ARG B  88      -1.579   9.057   8.023  0.00  0.00    +0.000 C 
BRANCH 548 549
ATOM    549  CD  ARG B  88      -1.162  10.121   7.020  0.00  0.00    +0.000 C 
BRANCH 549 550
ATOM    550  NE  ARG B  88       0.177   9.875   6.484  0.00  0.00    +0.000 N 
ATOM    551  CZ  ARG B  88       0.780  10.658   5.588  0.00  0.00    +0.000 C 
ATOM    552  NH1 ARG B  88       0.170  11.743   5.121  0.00  0.00    +0.000 N 
ATOM    553  NH2 ARG B  88       1.996  10.355   5.158  0.00  0.00    +0.000 N 
ATOM    554  HE  ARG B  88       0.654   9.081   6.808  0.00  0.00    +0.000 HD
ATOM    555 HH11 ARG B  88      -0.748  11.978   5.441  0.00  0.00    +0.000 HD
ATOM    556 HH12 ARG B  88       0.630  12.325   4.450  0.00  0.00    +0.000 HD
ATOM    557 HH21 ARG B  88       2.462   9.541   5.506  0.00  0.00    +0.000 HD
ATOM    558 HH22 ARG B  88       2.451  10.942   4.488  0.00  0.00    +0.000 HD
ENDBRANCH 549 550
ENDBRANCH 548 549
ENDBRANCH 547 548
ENDBRANCH 323 547
ENDBRANCH 319 323
ENDBRANCH 318 321
BRANCH 318 559
ATOM    559  CB  ARG B  89      -8.136   9.319  10.141  0.00  0.00    +0.000 C 
BRANCH 559 560
ATOM    560  CG  ARG B  89      -8.142  10.542   9.238  0.00  0.00    +0.000 C 
BRANCH 560 561
ATOM    561  CD  ARG B  89      -9.416  10.618   8.412  0.00  0.00    +0.000 C 
BRANCH 561 562
ATOM    562  NE  ARG B  89      -9.433  11.791   7.538  0.00  0.00    +0.000 N 
ATOM    563  CZ  ARG B  89     -10.436  12.094   6.711  0.00  0.00    +0.000 C 
ATOM    564  NH1 ARG B  89     -11.510  11.316   6.638  0.00  0.00    +0.000 N 
ATOM    565  NH2 ARG B  89     -10.364  13.181   5.955  0.00  0.00    +0.000 N 
ATOM    566  HE  ARG B  89      -8.656  12.387   7.567  0.00  0.00    +0.000 HD
ATOM    567 HH11 ARG B  89     -11.572  10.495   7.206  0.00  0.00    +0.000 HD
ATOM    568 HH12 ARG B  89     -12.257  11.550   6.016  0.00  0.00    +0.000 HD
ATOM    569 HH21 ARG B  89      -9.558  13.771   6.005  0.00  0.00    +0.000 HD
ATOM    570 HH22 ARG B  89     -11.114  13.409   5.334  0.00  0.00    +0.000 HD
ENDBRANCH 561 562
ENDBRANCH 560 561
ENDBRANCH 559 560
ENDBRANCH 318 559
ENDBRANCH 314 318
ENDBRANCH 313 316
BRANCH 313 571
ATOM    571  CB  ARG B  90      -6.730   4.674  12.724  0.00  0.00    +0.000 C 
BRANCH 571 572
ATOM    572  CG  ARG B  90      -7.926   4.218  11.902  0.00  0.00    +0.000 C 
BRANCH 572 573
ATOM    573  CD  ARG B  90      -7.749   2.792  11.405  0.00  0.00    +0.000 C 
BRANCH 573 574
ATOM    574  NE  ARG B  90      -8.893   2.341  10.613  0.00  0.00    +0.000 N 
ATOM    575  CZ  ARG B  90      -8.989   1.132  10.057  0.00  0.00    +0.000 C 
ATOM    576  NH1 ARG B  90      -8.012   0.244  10.201  0.00  0.00    +0.000 N 
ATOM    577  NH2 ARG B  90     -10.067   0.812   9.355  0.00  0.00    +0.000 N 
ATOM    578  HE  ARG B  90      -9.632   2.974  10.488  0.00  0.00    +0.000 HD
ATOM    579 HH11 ARG B  90      -7.196   0.478  10.731  0.00  0.00    +0.000 HD
ATOM    580 HH12 ARG B  90      -8.092  -0.660   9.782  0.00  0.00    +0.000 HD
ATOM    581 HH21 ARG B  90     -10.805   1.476   9.242  0.00  0.00    +0.000 HD
ATOM    582 HH22 ARG B  90     -10.140  -0.094   8.938  0.00  0.00    +0.000 HD
ENDBRANCH 573 574
ENDBRANCH 572 573
ENDBRANCH 571 572
ENDBRANCH 313 571
ENDBRANCH 309 313
ENDBRANCH 308 311
BRANCH 308 583
ATOM    583  CB  HIS B  91      -2.409   7.731  14.360  0.00  0.00    +0.000 C 
BRANCH 583 584
ATOM    584  CG  HIS B  91      -1.623   6.614  13.747  0.00  0.00    +0.000 C 
ATOM    585  ND1 HIS B  91      -0.577   5.986  14.393  0.00  0.00    +0.000 N 
ATOM    586  CD2 HIS B  91      -1.731   6.012  12.539  0.00  0.00    +0.000 C 
ATOM    587  CE1 HIS B  91      -0.078   5.048  13.609  0.00  0.00    +0.000 C 
ATOM    588  NE2 HIS B  91      -0.760   5.042  12.479  0.00  0.00    +0.000 N 
ATOM    589  HD1 HIS B  91      -0.251   6.198  15.292  0.00  0.00    +0.000 HD
ATOM    590  HE2 HIS B  91      -0.654   4.387  11.758  0.00  0.00    +0.000 HD
ENDBRANCH 583 584
ENDBRANCH 308 583
ENDBRANCH 304 308
ENDBRANCH 303 306
BRANCH 303 591
ATOM    591  CB  ILE B  92      -6.026  11.507  15.699  0.00  0.00    +0.000 C 
ATOM    592  CG2 ILE B  92      -6.178  12.723  16.610  0.00  0.00    +0.000 C 
BRANCH 591 593
ATOM    593  CG1 ILE B  92      -5.052  11.817  14.556  0.00  0.00    +0.000 C 
ATOM    594  CD1 ILE B  92      -5.723  12.374  13.316  0.00  0.00    +0.000 C 
ENDBRANCH 591 593
ENDBRANCH 303 591
ENDBRANCH 299 303
ENDBRANCH   1 301
BRANCH   1 595
ATOM    595  CB  VAL B  93      -9.619   7.662  16.690  0.00  0.00    +0.000 C 
ATOM    596  CG1 VAL B  93     -10.939   7.515  17.437  0.00  0.00    +0.000 C 
ATOM    597  CG2 VAL B  93      -9.778   8.627  15.521  0.00  0.00    +0.000 C 
ENDBRANCH   1 595
TORSDOF 240
