REMARK  Name = /Users/acegid/Desktop/Smoking_Research/Docking/Docking_All_PDB/All_PDB/2MKN_H.pdb
REMARK  553 active torsions:
REMARK  status: ('A' for Active; 'I' for Inactive)
REMARK    1  A    between atoms: N_1  and  CA_5
REMARK    2  A    between atoms: CA_5  and  CB_7
REMARK    3  A    between atoms: CA_5  and  C_12
REMARK    4  A    between atoms: CB_7  and  OG_10
REMARK    5  A    between atoms: C_12  and  N_14
REMARK    6  A    between atoms: N_14  and  CA_16
REMARK    7  A    between atoms: CA_16  and  CB_18
REMARK    8  A    between atoms: CA_16  and  C_26
REMARK    9  A    between atoms: CB_18  and  CG2_20
REMARK   10  A    between atoms: CB_18  and  OG1_24
REMARK   11  A    between atoms: N_28  and  CA_30
REMARK   12  A    between atoms: CA_30  and  CB_32
REMARK   13  A    between atoms: CA_30  and  C_48
REMARK   14  A    between atoms: CB_32  and  CG_35
REMARK   15  A    between atoms: CG_35  and  CD_38
REMARK   16  A    between atoms: CD_38  and  CE_41
REMARK   17  A    between atoms: CE_41  and  NZ_44
REMARK   18  A    between atoms: C_48  and  N_50
REMARK   19  A    between atoms: N_50  and  CA_52
REMARK   20  A    between atoms: CA_52  and  CB_54
REMARK   21  A    between atoms: CA_52  and  C_64
REMARK   22  A    between atoms: CB_54  and  CG1_56
REMARK   23  A    between atoms: CB_54  and  CG2_60
REMARK   24  A    between atoms: N_66  and  CA_68
REMARK   25  A    between atoms: CA_68  and  CB_70
REMARK   26  A    between atoms: CA_68  and  C_79
REMARK   27  A    between atoms: CB_70  and  CG_73
REMARK   28  A    between atoms: CG_73  and  CD_76
REMARK   29  A    between atoms: N_81  and  CA_83
REMARK   30  A    between atoms: CA_83  and  CB_85
REMARK   31  A    between atoms: CA_83  and  C_89
REMARK   32  A    between atoms: N_91  and  CA_93
REMARK   33  A    between atoms: CA_93  and  CB_95
REMARK   34  A    between atoms: CA_93  and  C_108
REMARK   35  A    between atoms: CB_95  and  CG_98
REMARK   36  A    between atoms: CG_98  and  CD1_100
REMARK   37  A    between atoms: CG_98  and  CD2_104
REMARK   38  A    between atoms: C_108  and  N_110
REMARK   39  A    between atoms: N_110  and  CA_112
REMARK   40  A    between atoms: CA_112  and  CB_114
REMARK   41  A    between atoms: CA_112  and  C_125
REMARK   42  A    between atoms: CB_114  and  CG_117
REMARK   43  A    between atoms: N_127  and  CA_129
REMARK   44  A    between atoms: CA_129  and  CB_131
REMARK   45  A    between atoms: CA_129  and  C_142
REMARK   46  A    between atoms: CB_131  and  CG_134
REMARK   47  A    between atoms: CG_134  and  CD_137
REMARK   48  A    between atoms: N_144  and  CA_146
REMARK   49  A    between atoms: CA_146  and  CB_148
REMARK   50  A    between atoms: CB_148  and  CG_151
REMARK   51  A    between atoms: N_158  and  CA_160
REMARK   52  A    between atoms: CA_160  and  CB_162
REMARK   53  A    between atoms: CA_160  and  C_180
REMARK   54  A    between atoms: CB_162  and  CG_165
REMARK   55  A    between atoms: CG_165  and  CD_168
REMARK   56  A    between atoms: CD_168  and  NE_171
REMARK   57  A    between atoms: N_182  and  CA_184
REMARK   58  A    between atoms: CA_184  and  CB_186
REMARK   59  A    between atoms: CA_184  and  C_195
REMARK   60  A    between atoms: CB_186  and  CG_189
REMARK   61  A    between atoms: CG_189  and  CD_192
REMARK   62  A    between atoms: N_197  and  CA_199
REMARK   63  A    between atoms: CA_199  and  CB_201
REMARK   64  A    between atoms: CB_201  and  CG_204
REMARK   65  A    between atoms: CG_204  and  SD_207
REMARK   66  A    between atoms: SD_207  and  CE_208
REMARK   67  A    between atoms: CA_215  and  C_217
REMARK   68  A    between atoms: CA_215  and  CB_219
REMARK   69  A    between atoms: CB_219  and  CG1_221
REMARK   70  A    between atoms: CB_219  and  CG2_224
REMARK   71  A    between atoms: CG1_221  and  CD1_228
REMARK   72  A    between atoms: N_233  and  CA_234
REMARK   73  A    between atoms: CA_234  and  C_236
REMARK   74  A    between atoms: CA_234  and  CB_238
REMARK   75  A    between atoms: CB_238  and  CG_241
REMARK   76  A    between atoms: CA_246  and  C_248
REMARK   77  A    between atoms: N_259  and  CA_260
REMARK   78  A    between atoms: CA_260  and  C_262
REMARK   79  A    between atoms: CA_260  and  CB_264
REMARK   80  A    between atoms: CB_264  and  CG_267
REMARK   81  A    between atoms: N_271  and  CA_272
REMARK   82  A    between atoms: CA_272  and  C_274
REMARK   83  A    between atoms: CA_272  and  CB_276
REMARK   84  A    between atoms: CB_276  and  CG_279
REMARK   85  A    between atoms: CG_279  and  CD_282
REMARK   86  A    between atoms: CD_282  and  CE_285
REMARK   87  A    between atoms: CE_285  and  NZ_288
REMARK   88  A    between atoms: N_293  and  CA_294
REMARK   89  A    between atoms: CA_294  and  C_296
REMARK   90  A    between atoms: CA_294  and  CB_298
REMARK   91  A    between atoms: CB_298  and  CG_301
REMARK   92  A    between atoms: N_313  and  CA_314
REMARK   93  A    between atoms: CA_314  and  C_316
REMARK   94  A    between atoms: CA_314  and  CB_318
REMARK   95  A    between atoms: CB_318  and  SG_321
REMARK   96  A    between atoms: N_324  and  CA_325
REMARK   97  A    between atoms: CA_325  and  C_327
REMARK   98  A    between atoms: CA_325  and  CB_329
REMARK   99  A    between atoms: CB_329  and  OG_332
REMARK  100  A    between atoms: N_335  and  CA_336
REMARK  101  A    between atoms: CA_336  and  C_338
REMARK  102  A    between atoms: CA_336  and  CB_340
REMARK  103  A    between atoms: CB_340  and  CG_343
REMARK  104  A    between atoms: CG_343  and  CD1_345
REMARK  105  A    between atoms: CG_343  and  CD2_349
REMARK  106  A    between atoms: N_354  and  CA_355
REMARK  107  A    between atoms: CA_355  and  C_357
REMARK  108  A    between atoms: CA_355  and  CB_359
REMARK  109  A    between atoms: CB_359  and  SG_362
REMARK  110  A    between atoms: N_365  and  CA_366
REMARK  111  A    between atoms: CA_366  and  C_368
REMARK  112  A    between atoms: CA_366  and  CB_370
REMARK  113  A    between atoms: CB_370  and  CG_373
REMARK  114  A    between atoms: N_383  and  CA_384
REMARK  115  A    between atoms: CA_384  and  C_386
REMARK  116  A    between atoms: CA_384  and  CB_388
REMARK  117  A    between atoms: N_393  and  CA_394
REMARK  118  A    between atoms: CA_394  and  C_396
REMARK  119  A    between atoms: CA_394  and  CB_398
REMARK  120  A    between atoms: CB_398  and  OG1_400
REMARK  121  A    between atoms: CB_398  and  CG2_401
REMARK  122  A    between atoms: N_407  and  CA_408
REMARK  123  A    between atoms: CA_408  and  C_410
REMARK  124  A    between atoms: CA_408  and  CB_412
REMARK  125  A    between atoms: CB_412  and  CG_415
REMARK  126  A    between atoms: N_427  and  CA_428
REMARK  127  A    between atoms: CA_428  and  C_430
REMARK  128  A    between atoms: CA_428  and  CB_432
REMARK  129  A    between atoms: CB_432  and  CG_435
REMARK  130  A    between atoms: N_441  and  CA_442
REMARK  131  A    between atoms: CA_442  and  C_444
REMARK  132  A    between atoms: CA_442  and  CB_446
REMARK  133  A    between atoms: CB_446  and  CG_449
REMARK  134  A    between atoms: CA_454  and  C_456
REMARK  135  A    between atoms: N_467  and  CA_468
REMARK  136  A    between atoms: CA_468  and  C_470
REMARK  137  A    between atoms: CA_468  and  CB_472
REMARK  138  A    between atoms: CB_472  and  CG1_474
REMARK  139  A    between atoms: CB_472  and  CG2_478
REMARK  140  A    between atoms: N_483  and  CA_484
REMARK  141  A    between atoms: CA_484  and  C_486
REMARK  142  A    between atoms: CA_484  and  CB_488
REMARK  143  A    between atoms: CB_488  and  CG_491
REMARK  144  A    between atoms: CG_491  and  SD_494
REMARK  145  A    between atoms: SD_494  and  CE_495
REMARK  146  A    between atoms: N_500  and  CA_501
REMARK  147  A    between atoms: CA_501  and  C_503
REMARK  148  A    between atoms: CA_501  and  CB_505
REMARK  149  A    between atoms: N_510  and  CA_511
REMARK  150  A    between atoms: CA_511  and  C_513
REMARK  151  A    between atoms: CA_511  and  CB_515
REMARK  152  A    between atoms: CB_515  and  CG_518
REMARK  153  A    between atoms: CG_518  and  CD_521
REMARK  154  A    between atoms: N_527  and  CA_528
REMARK  155  A    between atoms: CA_528  and  C_530
REMARK  156  A    between atoms: CA_528  and  CB_532
REMARK  157  A    between atoms: CB_532  and  CG_535
REMARK  158  A    between atoms: CG_535  and  CD_538
REMARK  159  A    between atoms: N_544  and  CA_545
REMARK  160  A    between atoms: CA_545  and  C_547
REMARK  161  A    between atoms: CA_545  and  CB_549
REMARK  162  A    between atoms: CB_549  and  CG_552
REMARK  163  A    between atoms: N_561  and  CA_562
REMARK  164  A    between atoms: CA_562  and  C_564
REMARK  165  A    between atoms: CA_562  and  CB_566
REMARK  166  A    between atoms: CB_566  and  CG_569
REMARK  167  A    between atoms: CZ_578  and  OH_579
REMARK  168  A    between atoms: N_582  and  CA_583
REMARK  169  A    between atoms: CA_583  and  C_585
REMARK  170  A    between atoms: CA_583  and  CB_587
REMARK  171  A    between atoms: CB_587  and  CG1_589
REMARK  172  A    between atoms: CB_587  and  CG2_593
REMARK  173  A    between atoms: N_598  and  CA_599
REMARK  174  A    between atoms: CA_599  and  C_602
REMARK  175  A    between atoms: N_605  and  CA_606
REMARK  176  A    between atoms: CA_606  and  C_608
REMARK  177  A    between atoms: CA_606  and  CB_610
REMARK  178  A    between atoms: CB_610  and  CG_613
REMARK  179  A    between atoms: CG_613  and  CD_616
REMARK  180  A    between atoms: CD_616  and  CE_619
REMARK  181  A    between atoms: CE_619  and  NZ_622
REMARK  182  A    between atoms: N_627  and  CA_628
REMARK  183  A    between atoms: CA_628  and  C_630
REMARK  184  A    between atoms: CA_628  and  CB_632
REMARK  185  A    between atoms: CB_632  and  CG_635
REMARK  186  A    between atoms: CG_635  and  CD_638
REMARK  187  A    between atoms: CD_638  and  CE_641
REMARK  188  A    between atoms: CE_641  and  NZ_644
REMARK  189  A    between atoms: N_649  and  CA_650
REMARK  190  A    between atoms: CA_650  and  C_652
REMARK  191  A    between atoms: CA_650  and  CB_654
REMARK  192  A    between atoms: CB_654  and  CG_657
REMARK  193  A    between atoms: N_666  and  CA_667
REMARK  194  A    between atoms: CA_667  and  C_669
REMARK  195  A    between atoms: CA_667  and  CB_671
REMARK  196  A    between atoms: CB_671  and  CG_674
REMARK  197  A    between atoms: CG_674  and  CD_677
REMARK  198  A    between atoms: CD_677  and  NE_680
REMARK  199  A    between atoms: N_690  and  CA_691
REMARK  200  A    between atoms: CA_691  and  C_693
REMARK  201  A    between atoms: CA_691  and  CB_695
REMARK  202  A    between atoms: CB_695  and  CG_698
REMARK  203  A    between atoms: CG_698  and  CD_701
REMARK  204  A    between atoms: CD_701  and  CE_704
REMARK  205  A    between atoms: CE_704  and  NZ_707
REMARK  206  A    between atoms: N_712  and  CA_713
REMARK  207  A    between atoms: CA_713  and  C_715
REMARK  208  A    between atoms: CA_713  and  CB_717
REMARK  209  A    between atoms: CB_717  and  CG_720
REMARK  210  A    between atoms: CG_720  and  CD_723
REMARK  211  A    between atoms: N_729  and  CA_730
REMARK  212  A    between atoms: CA_730  and  C_732
REMARK  213  A    between atoms: CA_730  and  CB_734
REMARK  214  A    between atoms: CB_734  and  CG_737
REMARK  215  A    between atoms: CG_737  and  CD_740
REMARK  216  A    between atoms: N_744  and  CA_745
REMARK  217  A    between atoms: CA_745  and  C_747
REMARK  218  A    between atoms: CA_745  and  CB_749
REMARK  219  A    between atoms: CB_749  and  OG1_751
REMARK  220  A    between atoms: CB_749  and  CG2_752
REMARK  221  A    between atoms: N_758  and  CA_759
REMARK  222  A    between atoms: CA_759  and  C_761
REMARK  223  A    between atoms: CA_759  and  CB_763
REMARK  224  A    between atoms: CB_763  and  CG_766
REMARK  225  A    between atoms: CG_766  and  CD_769
REMARK  226  A    between atoms: CD_769  and  CE_772
REMARK  227  A    between atoms: CE_772  and  NZ_775
REMARK  228  A    between atoms: N_780  and  CA_781
REMARK  229  A    between atoms: CA_781  and  C_783
REMARK  230  A    between atoms: CA_781  and  CB_785
REMARK  231  A    between atoms: CB_785  and  CG_788
REMARK  232  A    between atoms: CG_788  and  CD1_790
REMARK  233  A    between atoms: CG_788  and  CD2_794
REMARK  234  A    between atoms: N_799  and  CA_800
REMARK  235  A    between atoms: CA_800  and  C_802
REMARK  236  A    between atoms: CA_800  and  CB_804
REMARK  237  A    between atoms: CB_804  and  CG_807
REMARK  238  A    between atoms: CG_807  and  CD_810
REMARK  239  A    between atoms: CD_810  and  CE_813
REMARK  240  A    between atoms: CE_813  and  NZ_816
REMARK  241  A    between atoms: N_821  and  CA_822
REMARK  242  A    between atoms: CA_822  and  C_824
REMARK  243  A    between atoms: CA_822  and  CB_826
REMARK  244  A    between atoms: CB_826  and  CG_829
REMARK  245  A    between atoms: CG_829  and  CD1_831
REMARK  246  A    between atoms: CG_829  and  CD2_835
REMARK  247  A    between atoms: N_840  and  CA_841
REMARK  248  A    between atoms: CA_841  and  C_843
REMARK  249  A    between atoms: CA_841  and  CB_845
REMARK  250  A    between atoms: CB_845  and  CG_848
REMARK  251  A    between atoms: CG_848  and  SD_851
REMARK  252  A    between atoms: SD_851  and  CE_852
REMARK  253  A    between atoms: N_857  and  CA_858
REMARK  254  A    between atoms: CA_858  and  C_860
REMARK  255  A    between atoms: CA_858  and  CB_862
REMARK  256  A    between atoms: N_867  and  CA_868
REMARK  257  A    between atoms: CA_868  and  C_870
REMARK  258  A    between atoms: CA_868  and  CB_872
REMARK  259  A    between atoms: CB_872  and  CG_875
REMARK  260  A    between atoms: CG_875  and  CD_878
REMARK  261  A    between atoms: CD_878  and  NE_881
REMARK  262  A    between atoms: N_891  and  CA_892
REMARK  263  A    between atoms: CA_892  and  C_894
REMARK  264  A    between atoms: CA_892  and  CB_896
REMARK  265  A    between atoms: CB_896  and  CG_899
REMARK  266  A    between atoms: CZ_908  and  OH_909
REMARK  267  A    between atoms: N_912  and  CA_913
REMARK  268  A    between atoms: CA_913  and  C_916
REMARK  269  A    between atoms: N_919  and  CA_920
REMARK  270  A    between atoms: CA_920  and  CB_924
REMARK  271  A    between atoms: O_923  and  N_943
REMARK  272  A    between atoms: CB_924  and  CG_927
REMARK  273  A    between atoms: CG_927  and  CD_930
REMARK  274  A    between atoms: CD_930  and  NE_933
REMARK  275  A    between atoms: N_943  and  CA_945
REMARK  276  A    between atoms: CA_945  and  CB_947
REMARK  277  A    between atoms: CA_945  and  C_960
REMARK  278  A    between atoms: CB_947  and  CG_950
REMARK  279  A    between atoms: CG_950  and  CD1_952
REMARK  280  A    between atoms: CG_950  and  CD2_956
REMARK  281  A    between atoms: N_962  and  CA_964
REMARK  282  A    between atoms: CA_964  and  CB_966
REMARK  283  A    between atoms: CA_964  and  C_970
REMARK  284  A    between atoms: N_972  and  CA_974
REMARK  285  A    between atoms: CA_974  and  CB_976
REMARK  286  A    between atoms: CA_974  and  C_982
REMARK  287  A    between atoms: CB_976  and  CG_979
REMARK  288  A    between atoms: O5'_985  and  C5'_986
REMARK  289  A    between atoms: C5'_986  and  C4'_987
REMARK  290  A    between atoms: C3'_989  and  O3'_990
REMARK  291  A    between atoms: O3'_990  and  P_1017
REMARK  292  A    between atoms: C2'_991  and  O2'_992
REMARK  293  A    between atoms: C1'_993  and  N9_994
REMARK  294  A    between atoms: P_1017  and  O5'_1020
REMARK  295  A    between atoms: O5'_1020  and  C5'_1021
REMARK  296  A    between atoms: C5'_1021  and  C4'_1022
REMARK  297  A    between atoms: C3'_1024  and  O3'_1025
REMARK  298  A    between atoms: O3'_1025  and  P_1048
REMARK  299  A    between atoms: C2'_1026  and  O2'_1027
REMARK  300  A    between atoms: C1'_1028  and  N1_1029
REMARK  301  A    between atoms: P_1048  and  O5'_1051
REMARK  302  A    between atoms: O5'_1051  and  C5'_1052
REMARK  303  A    between atoms: C5'_1052  and  C4'_1053
REMARK  304  A    between atoms: C3'_1055  and  O3'_1056
REMARK  305  A    between atoms: O3'_1056  and  P_1079
REMARK  306  A    between atoms: C2'_1057  and  O2'_1058
REMARK  307  A    between atoms: C1'_1059  and  N1_1060
REMARK  308  A    between atoms: P_1079  and  O5'_1082
REMARK  309  A    between atoms: O5'_1082  and  C5'_1083
REMARK  310  A    between atoms: C5'_1083  and  C4'_1084
REMARK  311  A    between atoms: C3'_1086  and  O3'_1087
REMARK  312  A    between atoms: O3'_1087  and  P_1113
REMARK  313  A    between atoms: C2'_1088  and  O2'_1089
REMARK  314  A    between atoms: C1'_1090  and  N9_1091
REMARK  315  A    between atoms: P_1113  and  O5'_1116
REMARK  316  A    between atoms: O5'_1116  and  C5'_1117
REMARK  317  A    between atoms: C5'_1117  and  C4'_1118
REMARK  318  A    between atoms: C3'_1120  and  O3'_1121
REMARK  319  A    between atoms: O3'_1121  and  P_1143
REMARK  320  A    between atoms: C2'_1122  and  O2'_1123
REMARK  321  A    between atoms: C1'_1124  and  N1_1125
REMARK  322  A    between atoms: P_1143  and  O5'_1146
REMARK  323  A    between atoms: O5'_1146  and  C5'_1147
REMARK  324  A    between atoms: C5'_1147  and  C4'_1148
REMARK  325  A    between atoms: C3'_1150  and  O3'_1151
REMARK  326  A    between atoms: O3'_1151  and  P_1177
REMARK  327  A    between atoms: C2'_1152  and  O2'_1153
REMARK  328  A    between atoms: C1'_1154  and  N9_1155
REMARK  329  A    between atoms: P_1177  and  O5'_1180
REMARK  330  A    between atoms: O5'_1180  and  C5'_1181
REMARK  331  A    between atoms: C5'_1181  and  C4'_1182
REMARK  332  A    between atoms: C3'_1184  and  O3'_1185
REMARK  333  A    between atoms: O3'_1185  and  P_1211
REMARK  334  A    between atoms: C2'_1186  and  O2'_1187
REMARK  335  A    between atoms: C1'_1188  and  N9_1189
REMARK  336  A    between atoms: P_1211  and  O5'_1214
REMARK  337  A    between atoms: O5'_1214  and  C5'_1215
REMARK  338  A    between atoms: C5'_1215  and  C4'_1216
REMARK  339  A    between atoms: C3'_1218  and  O3'_1219
REMARK  340  A    between atoms: O3'_1219  and  P_1241
REMARK  341  A    between atoms: C2'_1220  and  O2'_1221
REMARK  342  A    between atoms: C1'_1222  and  N1_1223
REMARK  343  A    between atoms: P_1241  and  O5'_1244
REMARK  344  A    between atoms: O5'_1244  and  C5'_1245
REMARK  345  A    between atoms: C5'_1245  and  C4'_1246
REMARK  346  A    between atoms: C3'_1248  and  O3'_1249
REMARK  347  A    between atoms: O3'_1249  and  P_1272
REMARK  348  A    between atoms: C2'_1250  and  O2'_1251
REMARK  349  A    between atoms: C1'_1252  and  N1_1253
REMARK  350  A    between atoms: P_1272  and  O5'_1275
REMARK  351  A    between atoms: O5'_1275  and  C5'_1276
REMARK  352  A    between atoms: C5'_1276  and  C4'_1277
REMARK  353  A    between atoms: C3'_1279  and  O3'_1280
REMARK  354  A    between atoms: O3'_1280  and  P_1302
REMARK  355  A    between atoms: C2'_1281  and  O2'_1282
REMARK  356  A    between atoms: C1'_1283  and  N1_1284
REMARK  357  A    between atoms: P_1302  and  O5'_1305
REMARK  358  A    between atoms: O5'_1305  and  C5'_1306
REMARK  359  A    between atoms: C5'_1306  and  C4'_1307
REMARK  360  A    between atoms: C3'_1309  and  O3'_1310
REMARK  361  A    between atoms: O3'_1310  and  P_1336
REMARK  362  A    between atoms: C2'_1311  and  O2'_1312
REMARK  363  A    between atoms: C1'_1313  and  N9_1314
REMARK  364  A    between atoms: P_1336  and  O5'_1339
REMARK  365  A    between atoms: O5'_1339  and  C5'_1340
REMARK  366  A    between atoms: C5'_1340  and  C4'_1341
REMARK  367  A    between atoms: C3'_1343  and  O3'_1344
REMARK  368  A    between atoms: O3'_1344  and  P_1370
REMARK  369  A    between atoms: C2'_1345  and  O2'_1346
REMARK  370  A    between atoms: C1'_1347  and  N9_1348
REMARK  371  A    between atoms: P_1370  and  O5'_1373
REMARK  372  A    between atoms: O5'_1373  and  C5'_1374
REMARK  373  A    between atoms: C5'_1374  and  C4'_1375
REMARK  374  A    between atoms: C3'_1377  and  O3'_1378
REMARK  375  A    between atoms: O3'_1378  and  P_1400
REMARK  376  A    between atoms: C2'_1379  and  O2'_1380
REMARK  377  A    between atoms: C1'_1381  and  N1_1382
REMARK  378  A    between atoms: P_1400  and  O5'_1403
REMARK  379  A    between atoms: O5'_1403  and  C5'_1404
REMARK  380  A    between atoms: C5'_1404  and  C4'_1405
REMARK  381  A    between atoms: C3'_1407  and  O3'_1408
REMARK  382  A    between atoms: O3'_1408  and  P_1434
REMARK  383  A    between atoms: C2'_1409  and  O2'_1410
REMARK  384  A    between atoms: C1'_1411  and  N9_1412
REMARK  385  A    between atoms: P_1434  and  O5'_1437
REMARK  386  A    between atoms: O5'_1437  and  C5'_1438
REMARK  387  A    between atoms: C5'_1438  and  C4'_1439
REMARK  388  A    between atoms: C3'_1441  and  O3'_1442
REMARK  389  A    between atoms: O3'_1442  and  P_1468
REMARK  390  A    between atoms: C2'_1443  and  O2'_1444
REMARK  391  A    between atoms: C1'_1445  and  N9_1446
REMARK  392  A    between atoms: P_1468  and  O5'_1471
REMARK  393  A    between atoms: O5'_1471  and  C5'_1472
REMARK  394  A    between atoms: C5'_1472  and  C4'_1473
REMARK  395  A    between atoms: C3'_1475  and  O3'_1476
REMARK  396  A    between atoms: O3'_1476  and  P_1499
REMARK  397  A    between atoms: C2'_1477  and  O2'_1478
REMARK  398  A    between atoms: C1'_1479  and  N1_1480
REMARK  399  A    between atoms: P_1499  and  O5'_1502
REMARK  400  A    between atoms: O5'_1502  and  C5'_1503
REMARK  401  A    between atoms: C5'_1503  and  C4'_1504
REMARK  402  A    between atoms: C3'_1506  and  O3'_1507
REMARK  403  A    between atoms: O3'_1507  and  P_1530
REMARK  404  A    between atoms: C2'_1508  and  O2'_1509
REMARK  405  A    between atoms: C1'_1510  and  N1_1511
REMARK  406  A    between atoms: P_1530  and  O5'_1533
REMARK  407  A    between atoms: O5'_1533  and  C5'_1534
REMARK  408  A    between atoms: C5'_1534  and  C4'_1535
REMARK  409  A    between atoms: C3'_1537  and  O3'_1538
REMARK  410  A    between atoms: O3'_1538  and  P_1564
REMARK  411  A    between atoms: C2'_1539  and  O2'_1540
REMARK  412  A    between atoms: C1'_1541  and  N9_1542
REMARK  413  A    between atoms: P_1564  and  O5'_1567
REMARK  414  A    between atoms: O5'_1567  and  C5'_1568
REMARK  415  A    between atoms: C5'_1568  and  C4'_1569
REMARK  416  A    between atoms: C3'_1571  and  O3'_1572
REMARK  417  A    between atoms: C2'_1574  and  O2'_1575
REMARK  418  A    between atoms: C1'_1576  and  N9_1577
REMARK  419  A    between atoms: O5'_1602  and  C5'_1604
REMARK  420  A    between atoms: C5'_1604  and  C4'_1605
REMARK  421  A    between atoms: C3'_1607  and  O3'_1608
REMARK  422  A    between atoms: O3'_1608  and  P_1631
REMARK  423  A    between atoms: C2'_1609  and  O2'_1610
REMARK  424  A    between atoms: C1'_1611  and  N1_1612
REMARK  425  A    between atoms: P_1631  and  O5'_1634
REMARK  426  A    between atoms: O5'_1634  and  C5'_1635
REMARK  427  A    between atoms: C5'_1635  and  C4'_1636
REMARK  428  A    between atoms: C3'_1638  and  O3'_1639
REMARK  429  A    between atoms: O3'_1639  and  P_1662
REMARK  430  A    between atoms: C2'_1640  and  O2'_1641
REMARK  431  A    between atoms: C1'_1642  and  N1_1643
REMARK  432  A    between atoms: P_1662  and  O5'_1665
REMARK  433  A    between atoms: O5'_1665  and  C5'_1666
REMARK  434  A    between atoms: C5'_1666  and  C4'_1667
REMARK  435  A    between atoms: C3'_1669  and  O3'_1670
REMARK  436  A    between atoms: O3'_1670  and  P_1696
REMARK  437  A    between atoms: C2'_1671  and  O2'_1672
REMARK  438  A    between atoms: C1'_1673  and  N9_1674
REMARK  439  A    between atoms: P_1696  and  O5'_1699
REMARK  440  A    between atoms: O5'_1699  and  C5'_1700
REMARK  441  A    between atoms: C5'_1700  and  C4'_1701
REMARK  442  A    between atoms: C3'_1703  and  O3'_1704
REMARK  443  A    between atoms: O3'_1704  and  P_1730
REMARK  444  A    between atoms: C2'_1705  and  O2'_1706
REMARK  445  A    between atoms: C1'_1707  and  N9_1708
REMARK  446  A    between atoms: P_1730  and  O5'_1733
REMARK  447  A    between atoms: O5'_1733  and  C5'_1734
REMARK  448  A    between atoms: C5'_1734  and  C4'_1735
REMARK  449  A    between atoms: C3'_1737  and  O3'_1738
REMARK  450  A    between atoms: O3'_1738  and  P_1761
REMARK  451  A    between atoms: C2'_1739  and  O2'_1740
REMARK  452  A    between atoms: C1'_1741  and  N1_1742
REMARK  453  A    between atoms: P_1761  and  O5'_1764
REMARK  454  A    between atoms: O5'_1764  and  C5'_1765
REMARK  455  A    between atoms: C5'_1765  and  C4'_1766
REMARK  456  A    between atoms: C3'_1768  and  O3'_1769
REMARK  457  A    between atoms: O3'_1769  and  P_1792
REMARK  458  A    between atoms: C2'_1770  and  O2'_1771
REMARK  459  A    between atoms: C1'_1772  and  N1_1773
REMARK  460  A    between atoms: P_1792  and  O5'_1795
REMARK  461  A    between atoms: O5'_1795  and  C5'_1796
REMARK  462  A    between atoms: C5'_1796  and  C4'_1797
REMARK  463  A    between atoms: C3'_1799  and  O3'_1800
REMARK  464  A    between atoms: O3'_1800  and  P_1825
REMARK  465  A    between atoms: C2'_1801  and  O2'_1802
REMARK  466  A    between atoms: C1'_1803  and  N9_1804
REMARK  467  A    between atoms: C6_1808  and  N6_1809
REMARK  468  A    between atoms: P_1825  and  O5'_1828
REMARK  469  A    between atoms: O5'_1828  and  C5'_1829
REMARK  470  A    between atoms: C5'_1829  and  C4'_1830
REMARK  471  A    between atoms: C3'_1832  and  O3'_1833
REMARK  472  A    between atoms: O3'_1833  and  P_1856
REMARK  473  A    between atoms: C2'_1834  and  O2'_1835
REMARK  474  A    between atoms: C1'_1836  and  N1_1837
REMARK  475  A    between atoms: P_1856  and  O5'_1859
REMARK  476  A    between atoms: O5'_1859  and  C5'_1860
REMARK  477  A    between atoms: C5'_1860  and  C4'_1861
REMARK  478  A    between atoms: C3'_1863  and  O3'_1864
REMARK  479  A    between atoms: O3'_1864  and  P_1887
REMARK  480  A    between atoms: C2'_1865  and  O2'_1866
REMARK  481  A    between atoms: C1'_1867  and  N1_1868
REMARK  482  A    between atoms: P_1887  and  O5'_1890
REMARK  483  A    between atoms: O5'_1890  and  C5'_1891
REMARK  484  A    between atoms: C5'_1891  and  C4'_1892
REMARK  485  A    between atoms: C3'_1894  and  O3'_1895
REMARK  486  A    between atoms: O3'_1895  and  P_1920
REMARK  487  A    between atoms: C2'_1896  and  O2'_1897
REMARK  488  A    between atoms: C1'_1898  and  N9_1899
REMARK  489  A    between atoms: C6_1903  and  N6_1904
REMARK  490  A    between atoms: P_1920  and  O5'_1923
REMARK  491  A    between atoms: O5'_1923  and  C5'_1924
REMARK  492  A    between atoms: C5'_1924  and  C4'_1925
REMARK  493  A    between atoms: C3'_1927  and  O3'_1928
REMARK  494  A    between atoms: O3'_1928  and  P_1954
REMARK  495  A    between atoms: C2'_1929  and  O2'_1930
REMARK  496  A    between atoms: C1'_1931  and  N9_1932
REMARK  497  A    between atoms: P_1954  and  O5'_1957
REMARK  498  A    between atoms: O5'_1957  and  C5'_1958
REMARK  499  A    between atoms: C5'_1958  and  C4'_1959
REMARK  500  A    between atoms: C3'_1961  and  O3'_1962
REMARK  501  A    between atoms: O3'_1962  and  P_1987
REMARK  502  A    between atoms: C2'_1963  and  O2'_1964
REMARK  503  A    between atoms: C1'_1965  and  N9_1966
REMARK  504  A    between atoms: C6_1970  and  N6_1971
REMARK  505  A    between atoms: P_1987  and  O5'_1990
REMARK  506  A    between atoms: O5'_1990  and  C5'_1991
REMARK  507  A    between atoms: C5'_1991  and  C4'_1992
REMARK  508  A    between atoms: C3'_1994  and  O3'_1995
REMARK  509  A    between atoms: O3'_1995  and  P_2018
REMARK  510  A    between atoms: C2'_1996  and  O2'_1997
REMARK  511  A    between atoms: C1'_1998  and  N1_1999
REMARK  512  A    between atoms: P_2018  and  O5'_2021
REMARK  513  A    between atoms: O5'_2021  and  C5'_2022
REMARK  514  A    between atoms: C5'_2022  and  C4'_2023
REMARK  515  A    between atoms: C3'_2025  and  O3'_2026
REMARK  516  A    between atoms: O3'_2026  and  P_2049
REMARK  517  A    between atoms: C2'_2027  and  O2'_2028
REMARK  518  A    between atoms: C1'_2029  and  N1_2030
REMARK  519  A    between atoms: P_2049  and  O5'_2052
REMARK  520  A    between atoms: O5'_2052  and  C5'_2053
REMARK  521  A    between atoms: C5'_2053  and  C4'_2054
REMARK  522  A    between atoms: C3'_2056  and  O3'_2057
REMARK  523  A    between atoms: O3'_2057  and  P_2082
REMARK  524  A    between atoms: C2'_2058  and  O2'_2059
REMARK  525  A    between atoms: C1'_2060  and  N9_2061
REMARK  526  A    between atoms: C6_2065  and  N6_2066
REMARK  527  A    between atoms: P_2082  and  O5'_2085
REMARK  528  A    between atoms: O5'_2085  and  C5'_2086
REMARK  529  A    between atoms: C5'_2086  and  C4'_2087
REMARK  530  A    between atoms: C3'_2089  and  O3'_2090
REMARK  531  A    between atoms: O3'_2090  and  P_2113
REMARK  532  A    between atoms: C2'_2091  and  O2'_2092
REMARK  533  A    between atoms: C1'_2093  and  N1_2094
REMARK  534  A    between atoms: P_2113  and  O5'_2116
REMARK  535  A    between atoms: O5'_2116  and  C5'_2117
REMARK  536  A    between atoms: C5'_2117  and  C4'_2118
REMARK  537  A    between atoms: C3'_2120  and  O3'_2121
REMARK  538  A    between atoms: O3'_2121  and  P_2147
REMARK  539  A    between atoms: C2'_2122  and  O2'_2123
REMARK  540  A    between atoms: C1'_2124  and  N9_2125
REMARK  541  A    between atoms: P_2147  and  O5'_2150
REMARK  542  A    between atoms: O5'_2150  and  C5'_2151
REMARK  543  A    between atoms: C5'_2151  and  C4'_2152
REMARK  544  A    between atoms: C3'_2154  and  O3'_2155
REMARK  545  A    between atoms: O3'_2155  and  P_2181
REMARK  546  A    between atoms: C2'_2156  and  O2'_2157
REMARK  547  A    between atoms: C1'_2158  and  N9_2159
REMARK  548  A    between atoms: P_2181  and  O5'_2184
REMARK  549  A    between atoms: O5'_2184  and  C5'_2185
REMARK  550  A    between atoms: C5'_2185  and  C4'_2186
REMARK  551  A    between atoms: C3'_2188  and  O3'_2189
REMARK  552  A    between atoms: C2'_2190  and  O2'_2191
REMARK  553  A    between atoms: C1'_2192  and  N1_2193
REMARK                            x       y       z     vdW  Elec       q    Type
REMARK                         _______ _______ _______ _____ _____    ______ ____
ROOT
ATOM      1  C   GLU A   5      49.568 -29.961  22.279  0.00  0.00    +0.000 C 
ATOM      2  O   GLU A   5      49.282 -31.108  22.644  0.00  0.00    +0.000 OA
ATOM      3  N   ALA A   6      48.205 -29.337  21.916  0.00  0.00    +0.000 N 
ATOM      4  H   ALA A   6      47.322 -29.763  22.586  0.00  0.00    +0.000 HD
ENDROOT
BRANCH   3   5
ATOM      5  CA  ALA A   6      47.434 -28.466  20.743  0.00  0.00    +0.000 C 
ATOM      6  CB  ALA A   6      47.758 -27.151  21.488  0.00  0.00    +0.000 C 
BRANCH   5   7
ATOM      7  C   ALA A   6      46.056 -27.849  19.854  0.00  0.00    +0.000 C 
ATOM      8  O   ALA A   6      46.604 -27.332  18.855  0.00  0.00    +0.000 OA
ATOM      9  N   LEU A   7      44.588 -27.582  19.440  0.00  0.00    +0.000 N 
ATOM     10  H   LEU A   7      44.541 -28.414  18.591  0.00  0.00    +0.000 HD
BRANCH   9  11
ATOM     11  CA  LEU A   7      43.026 -27.027  19.068  0.00  0.00    +0.000 C 
BRANCH  11  12
ATOM     12  C   LEU A   7      42.138 -26.336  17.707  0.00  0.00    +0.000 C 
ATOM     13  O   LEU A   7      42.811 -25.290  17.788  0.00  0.00    +0.000 OA
BRANCH  12  14
ATOM     14  N   HIS A   8      40.968 -25.502  17.062  0.00  0.00    +0.000 NA
ATOM     15  H   HIS A   8      40.701 -24.566  17.743  0.00  0.00    +0.000 HD
BRANCH  14  16
ATOM     16  CA  HIS A   8      39.991 -25.242  15.735  0.00  0.00    +0.000 C 
BRANCH  16  17
ATOM     17  C   HIS A   8      38.901 -24.065  15.050  0.00  0.00    +0.000 C 
ATOM     18  O   HIS A   8      38.999 -23.088  15.787  0.00  0.00    +0.000 OA
ATOM     19  N   GLN A   9      38.027 -23.887  13.764  0.00  0.00    +0.000 N 
ATOM     20  H   GLN A   9      38.768 -23.078  13.301  0.00  0.00    +0.000 HD
BRANCH  19  21
ATOM     21  CA  GLN A   9      36.667 -23.584  12.813  0.00  0.00    +0.000 C 
BRANCH  21  22
ATOM     22  C   GLN A   9      35.374 -22.752  11.964  0.00  0.00    +0.000 C 
ATOM     23  O   GLN A   9      34.530 -23.634  12.065  0.00  0.00    +0.000 OA
ATOM     24  N   ASN A  10      34.538 -21.515  11.472  0.00  0.00    +0.000 N 
ATOM     25  H   ASN A  10      34.561 -20.757  12.387  0.00  0.00    +0.000 HD
BRANCH  24  26
ATOM     26  CA  ASN A  10      33.247 -20.998  10.464  0.00  0.00    +0.000 C 
BRANCH  26  27
ATOM     27  CB  ASN A  10      34.530 -21.009   9.628  0.00  0.00    +0.000 C 
BRANCH  27  28
ATOM     28  CG  ASN A  10      35.025 -20.023   8.595  0.00  0.00    +0.000 C 
ATOM     29  OD1 ASN A  10      36.184 -20.307   8.290  0.00  0.00    +0.000 OA
ATOM     30  ND2 ASN A  10      34.637 -18.763   8.779  0.00  0.00    +0.000 N 
ATOM     31 HD21 ASN A  10      35.494 -18.071   8.305  0.00  0.00    +0.000 HD
ATOM     32 HD22 ASN A  10      34.186 -17.949   9.527  0.00  0.00    +0.000 HD
ENDBRANCH  27  28
ENDBRANCH  26  27
ENDBRANCH  24  26
ENDBRANCH  21  22
BRANCH  21  33
ATOM     33  CB  GLN A   9      36.439 -25.061  12.447  0.00  0.00    +0.000 C 
BRANCH  33  34
ATOM     34  CG  GLN A   9      37.651 -25.573  11.637  0.00  0.00    +0.000 C 
BRANCH  34  35
ATOM     35  CD  GLN A   9      37.868 -25.301  10.148  0.00  0.00    +0.000 C 
ATOM     36  OE1 GLN A   9      37.633 -24.191   9.694  0.00  0.00    +0.000 OA
ATOM     37  NE2 GLN A   9      38.939 -25.907   9.671  0.00  0.00    +0.000 N 
ATOM     38 HE21 GLN A   9      39.321 -27.031   9.569  0.00  0.00    +0.000 HD
ATOM     39 HE22 GLN A   9      39.543 -25.336   8.815  0.00  0.00    +0.000 HD
ENDBRANCH  34  35
ENDBRANCH  33  34
ENDBRANCH  21  33
ENDBRANCH  19  21
ENDBRANCH  16  17
BRANCH  16  40
ATOM     40  CB  HIS A   8      38.792 -26.139  16.045  0.00  0.00    +0.000 C 
BRANCH  40  41
ATOM     41  CG  HIS A   8      38.485 -27.415  15.265  0.00  0.00    +0.000 C 
ATOM     42  ND1 HIS A   8      38.458 -28.443  14.324  0.00  0.00    +0.000 N 
ATOM     43  HD1 HIS A   8      39.013 -29.463  14.575  0.00  0.00    +0.000 HD
ATOM     44  CE1 HIS A   8      37.728 -28.216  13.186  0.00  0.00    +0.000 C 
ATOM     45  NE2 HIS A   8      37.009 -27.105  13.271  0.00  0.00    +0.000 NA
ATOM     46  CD2 HIS A   8      37.735 -26.673  14.364  0.00  0.00    +0.000 C 
ENDBRANCH  40  41
ENDBRANCH  16  40
ENDBRANCH  14  16
ENDBRANCH  12  14
ENDBRANCH  11  12
BRANCH  11  47
ATOM     47  CB  LEU A   7      41.814 -27.539  19.888  0.00  0.00    +0.000 C 
BRANCH  47  48
ATOM     48  CG  LEU A   7      41.622 -28.196  21.246  0.00  0.00    +0.000 C 
ATOM     49  CD1 LEU A   7      42.449 -29.416  21.539  0.00  0.00    +0.000 C 
ATOM     50  CD2 LEU A   7      42.185 -27.291  22.309  0.00  0.00    +0.000 C 
ENDBRANCH  47  48
ENDBRANCH  11  47
ENDBRANCH   9  11
ENDBRANCH   5   7
ENDBRANCH   3   5
BRANCH   1  51
ATOM     51  CA  GLU A   5      51.014 -29.958  23.159  0.00  0.00    +0.000 C 
BRANCH  51  54
ATOM     52  C   VAL A   4      53.606 -30.827  23.422  0.00  0.00    +0.000 C 
ATOM     53  O   VAL A   4      53.727 -30.039  24.362  0.00  0.00    +0.000 OA
ATOM     54  N   GLU A   5      52.207 -30.974  23.108  0.00  0.00    +0.000 N 
ATOM     55  H   GLU A   5      52.013 -31.723  22.204  0.00  0.00    +0.000 HD
BRANCH  52  56
ATOM     56  CA  VAL A   4      54.893 -31.811  23.564  0.00  0.00    +0.000 C 
BRANCH  56  57
ATOM     57  CB  VAL A   4      55.609 -32.886  22.656  0.00  0.00    +0.000 C 
ATOM     58  CG1 VAL A   4      56.890 -33.499  23.222  0.00  0.00    +0.000 C 
ATOM     59  CG2 VAL A   4      55.048 -34.193  22.125  0.00  0.00    +0.000 C 
ENDBRANCH  56  57
BRANCH  56  60
ATOM     60  N   VAL A   4      56.148 -31.333  24.288  0.00  0.00    +0.000 NA
ATOM     61  H   VAL A   4      56.575 -30.364  23.739  0.00  0.00    +0.000 HD
BRANCH  60  62
ATOM     62  C   LYS A   3      56.661 -31.413  25.581  0.00  0.00    +0.000 C 
ATOM     63  O   LYS A   3      57.661 -30.698  25.771  0.00  0.00    +0.000 OA
BRANCH  62  64
ATOM     64  CA  LYS A   3      57.013 -32.758  26.255  0.00  0.00    +0.000 C 
BRANCH  64  67
ATOM     65  C   THR A   2      57.992 -33.181  28.705  0.00  0.00    +0.000 C 
ATOM     66  O   THR A   2      58.705 -32.382  29.351  0.00  0.00    +0.000 OA
ATOM     67  N   LYS A   3      57.344 -32.516  27.692  0.00  0.00    +0.000 N 
ATOM     68  H   LYS A   3      57.144 -31.407  28.081  0.00  0.00    +0.000 HD
BRANCH  65  69
ATOM     69  CA  THR A   2      57.806 -34.562  29.401  0.00  0.00    +0.000 C 
BRANCH  69  70
ATOM     70  CB  THR A   2      56.565 -34.404  30.304  0.00  0.00    +0.000 C 
ATOM     71  CG2 THR A   2      56.859 -34.595  31.794  0.00  0.00    +0.000 C 
BRANCH  70  72
ATOM     72  OG1 THR A   2      55.616 -33.374  30.135  0.00  0.00    +0.000 OA
ATOM     73  HG1 THR A   2      55.805 -32.494  30.905  0.00  0.00    +0.000 HD
ENDBRANCH  70  72
ENDBRANCH  69  70
BRANCH  69  74
ATOM     74  N   THR A   2      58.892 -34.331  30.339  0.00  0.00    +0.000 NA
ATOM     75  H   THR A   2      58.678 -33.347  30.980  0.00  0.00    +0.000 HD
BRANCH  74  76
ATOM     76  C   SER A   1      59.655 -35.036  31.201  0.00  0.00    +0.000 C 
ATOM     77  O   SER A   1      60.122 -36.128  30.880  0.00  0.00    +0.000 OA
BRANCH  76  78
ATOM     78  CA  SER A   1      60.675 -34.029  31.756  0.00  0.00    +0.000 C 
BRANCH  78  79
ATOM     79  N   SER A   1      61.686 -33.721  30.727  0.00  0.00    +0.000 N 
ATOM     80  H   SER A   1      61.506 -34.008  29.578  0.00  0.00    +0.000 HD
ATOM     81  H2  SER A   1      61.920 -32.547  30.655  0.00  0.00    +0.000 HD
ATOM     82  H3  SER A   1      62.812 -34.130  30.778  0.00  0.00    +0.000 HD
ENDBRANCH  78  79
BRANCH  78  83
ATOM     83  CB  SER A   1      61.427 -34.381  33.034  0.00  0.00    +0.000 C 
BRANCH  83  84
ATOM     84  OG  SER A   1      62.541 -35.215  32.861  0.00  0.00    +0.000 OA
ATOM     85  HG  SER A   1      63.418 -34.915  33.600  0.00  0.00    +0.000 HD
ENDBRANCH  83  84
ENDBRANCH  78  83
ENDBRANCH  76  78
ENDBRANCH  74  76
ENDBRANCH  69  74
ENDBRANCH  65  69
ENDBRANCH  64  67
BRANCH  64  86
ATOM     86  CB  LYS A   3      55.620 -33.299  26.096  0.00  0.00    +0.000 C 
BRANCH  86  87
ATOM     87  CG  LYS A   3      55.493 -34.672  26.683  0.00  0.00    +0.000 C 
BRANCH  87  88
ATOM     88  CD  LYS A   3      54.078 -35.094  26.392  0.00  0.00    +0.000 C 
BRANCH  88  89
ATOM     89  CE  LYS A   3      53.885 -36.470  27.026  0.00  0.00    +0.000 C 
BRANCH  89  90
ATOM     90  NZ  LYS A   3      53.355 -37.580  26.202  0.00  0.00    +0.000 N 
ATOM     91  HZ1 LYS A   3      53.849 -37.811  25.135  0.00  0.00    +0.000 HD
ATOM     92  HZ2 LYS A   3      53.436 -38.671  26.701  0.00  0.00    +0.000 HD
ATOM     93  HZ3 LYS A   3      52.179 -37.535  25.987  0.00  0.00    +0.000 HD
ENDBRANCH  89  90
ENDBRANCH  88  89
ENDBRANCH  87  88
ENDBRANCH  86  87
ENDBRANCH  64  86
ENDBRANCH  62  64
ENDBRANCH  60  62
ENDBRANCH  56  60
ENDBRANCH  52  56
ENDBRANCH  51  54
BRANCH  51  94
ATOM     94  CB  GLU A   5      50.713 -30.387  24.617  0.00  0.00    +0.000 C 
BRANCH  94  95
ATOM     95  CG  GLU A   5      51.989 -30.422  25.499  0.00  0.00    +0.000 C 
BRANCH  95  96
ATOM     96  CD  GLU A   5      52.287 -31.269  26.775  0.00  0.00    +0.000 C 
ATOM     97  OE1 GLU A   5      51.910 -30.805  27.875  0.00  0.00    +0.000 OA
ATOM     98  OE2 GLU A   5      53.362 -31.922  26.823  0.00  0.00    +0.000 OA
ENDBRANCH  95  96
ENDBRANCH  94  95
ENDBRANCH  51  94
ENDBRANCH   1  51
TORSDOF 44
REMARK  Name = /Users/acegid/Desktop/Smoking_Research/Docking/Docking_All_PDB/All_PDB/2MKN_H.pdb
REMARK  553 active torsions:
REMARK  status: ('A' for Active; 'I' for Inactive)
REMARK    1  A    between atoms: N_1  and  CA_5
REMARK    2  A    between atoms: CA_5  and  CB_7
REMARK    3  A    between atoms: CA_5  and  C_12
REMARK    4  A    between atoms: CB_7  and  OG_10
REMARK    5  A    between atoms: C_12  and  N_14
REMARK    6  A    between atoms: N_14  and  CA_16
REMARK    7  A    between atoms: CA_16  and  CB_18
REMARK    8  A    between atoms: CA_16  and  C_26
REMARK    9  A    between atoms: CB_18  and  CG2_20
REMARK   10  A    between atoms: CB_18  and  OG1_24
REMARK   11  A    between atoms: N_28  and  CA_30
REMARK   12  A    between atoms: CA_30  and  CB_32
REMARK   13  A    between atoms: CA_30  and  C_48
REMARK   14  A    between atoms: CB_32  and  CG_35
REMARK   15  A    between atoms: CG_35  and  CD_38
REMARK   16  A    between atoms: CD_38  and  CE_41
REMARK   17  A    between atoms: CE_41  and  NZ_44
REMARK   18  A    between atoms: C_48  and  N_50
REMARK   19  A    between atoms: N_50  and  CA_52
REMARK   20  A    between atoms: CA_52  and  CB_54
REMARK   21  A    between atoms: CA_52  and  C_64
REMARK   22  A    between atoms: CB_54  and  CG1_56
REMARK   23  A    between atoms: CB_54  and  CG2_60
REMARK   24  A    between atoms: N_66  and  CA_68
REMARK   25  A    between atoms: CA_68  and  CB_70
REMARK   26  A    between atoms: CA_68  and  C_79
REMARK   27  A    between atoms: CB_70  and  CG_73
REMARK   28  A    between atoms: CG_73  and  CD_76
REMARK   29  A    between atoms: N_81  and  CA_83
REMARK   30  A    between atoms: CA_83  and  CB_85
REMARK   31  A    between atoms: CA_83  and  C_89
REMARK   32  A    between atoms: N_91  and  CA_93
REMARK   33  A    between atoms: CA_93  and  CB_95
REMARK   34  A    between atoms: CA_93  and  C_108
REMARK   35  A    between atoms: CB_95  and  CG_98
REMARK   36  A    between atoms: CG_98  and  CD1_100
REMARK   37  A    between atoms: CG_98  and  CD2_104
REMARK   38  A    between atoms: C_108  and  N_110
REMARK   39  A    between atoms: N_110  and  CA_112
REMARK   40  A    between atoms: CA_112  and  CB_114
REMARK   41  A    between atoms: CA_112  and  C_125
REMARK   42  A    between atoms: CB_114  and  CG_117
REMARK   43  A    between atoms: N_127  and  CA_129
REMARK   44  A    between atoms: CA_129  and  CB_131
REMARK   45  A    between atoms: CA_129  and  C_142
REMARK   46  A    between atoms: CB_131  and  CG_134
REMARK   47  A    between atoms: CG_134  and  CD_137
REMARK   48  A    between atoms: N_144  and  CA_146
REMARK   49  A    between atoms: CA_146  and  CB_148
REMARK   50  A    between atoms: CB_148  and  CG_151
REMARK   51  A    between atoms: N_158  and  CA_160
REMARK   52  A    between atoms: CA_160  and  CB_162
REMARK   53  A    between atoms: CA_160  and  C_180
REMARK   54  A    between atoms: CB_162  and  CG_165
REMARK   55  A    between atoms: CG_165  and  CD_168
REMARK   56  A    between atoms: CD_168  and  NE_171
REMARK   57  A    between atoms: N_182  and  CA_184
REMARK   58  A    between atoms: CA_184  and  CB_186
REMARK   59  A    between atoms: CA_184  and  C_195
REMARK   60  A    between atoms: CB_186  and  CG_189
REMARK   61  A    between atoms: CG_189  and  CD_192
REMARK   62  A    between atoms: N_197  and  CA_199
REMARK   63  A    between atoms: CA_199  and  CB_201
REMARK   64  A    between atoms: CB_201  and  CG_204
REMARK   65  A    between atoms: CG_204  and  SD_207
REMARK   66  A    between atoms: SD_207  and  CE_208
REMARK   67  A    between atoms: CA_215  and  C_217
REMARK   68  A    between atoms: CA_215  and  CB_219
REMARK   69  A    between atoms: CB_219  and  CG1_221
REMARK   70  A    between atoms: CB_219  and  CG2_224
REMARK   71  A    between atoms: CG1_221  and  CD1_228
REMARK   72  A    between atoms: N_233  and  CA_234
REMARK   73  A    between atoms: CA_234  and  C_236
REMARK   74  A    between atoms: CA_234  and  CB_238
REMARK   75  A    between atoms: CB_238  and  CG_241
REMARK   76  A    between atoms: CA_246  and  C_248
REMARK   77  A    between atoms: N_259  and  CA_260
REMARK   78  A    between atoms: CA_260  and  C_262
REMARK   79  A    between atoms: CA_260  and  CB_264
REMARK   80  A    between atoms: CB_264  and  CG_267
REMARK   81  A    between atoms: N_271  and  CA_272
REMARK   82  A    between atoms: CA_272  and  C_274
REMARK   83  A    between atoms: CA_272  and  CB_276
REMARK   84  A    between atoms: CB_276  and  CG_279
REMARK   85  A    between atoms: CG_279  and  CD_282
REMARK   86  A    between atoms: CD_282  and  CE_285
REMARK   87  A    between atoms: CE_285  and  NZ_288
REMARK   88  A    between atoms: N_293  and  CA_294
REMARK   89  A    between atoms: CA_294  and  C_296
REMARK   90  A    between atoms: CA_294  and  CB_298
REMARK   91  A    between atoms: CB_298  and  CG_301
REMARK   92  A    between atoms: N_313  and  CA_314
REMARK   93  A    between atoms: CA_314  and  C_316
REMARK   94  A    between atoms: CA_314  and  CB_318
REMARK   95  A    between atoms: CB_318  and  SG_321
REMARK   96  A    between atoms: N_324  and  CA_325
REMARK   97  A    between atoms: CA_325  and  C_327
REMARK   98  A    between atoms: CA_325  and  CB_329
REMARK   99  A    between atoms: CB_329  and  OG_332
REMARK  100  A    between atoms: N_335  and  CA_336
REMARK  101  A    between atoms: CA_336  and  C_338
REMARK  102  A    between atoms: CA_336  and  CB_340
REMARK  103  A    between atoms: CB_340  and  CG_343
REMARK  104  A    between atoms: CG_343  and  CD1_345
REMARK  105  A    between atoms: CG_343  and  CD2_349
REMARK  106  A    between atoms: N_354  and  CA_355
REMARK  107  A    between atoms: CA_355  and  C_357
REMARK  108  A    between atoms: CA_355  and  CB_359
REMARK  109  A    between atoms: CB_359  and  SG_362
REMARK  110  A    between atoms: N_365  and  CA_366
REMARK  111  A    between atoms: CA_366  and  C_368
REMARK  112  A    between atoms: CA_366  and  CB_370
REMARK  113  A    between atoms: CB_370  and  CG_373
REMARK  114  A    between atoms: N_383  and  CA_384
REMARK  115  A    between atoms: CA_384  and  C_386
REMARK  116  A    between atoms: CA_384  and  CB_388
REMARK  117  A    between atoms: N_393  and  CA_394
REMARK  118  A    between atoms: CA_394  and  C_396
REMARK  119  A    between atoms: CA_394  and  CB_398
REMARK  120  A    between atoms: CB_398  and  OG1_400
REMARK  121  A    between atoms: CB_398  and  CG2_401
REMARK  122  A    between atoms: N_407  and  CA_408
REMARK  123  A    between atoms: CA_408  and  C_410
REMARK  124  A    between atoms: CA_408  and  CB_412
REMARK  125  A    between atoms: CB_412  and  CG_415
REMARK  126  A    between atoms: N_427  and  CA_428
REMARK  127  A    between atoms: CA_428  and  C_430
REMARK  128  A    between atoms: CA_428  and  CB_432
REMARK  129  A    between atoms: CB_432  and  CG_435
REMARK  130  A    between atoms: N_441  and  CA_442
REMARK  131  A    between atoms: CA_442  and  C_444
REMARK  132  A    between atoms: CA_442  and  CB_446
REMARK  133  A    between atoms: CB_446  and  CG_449
REMARK  134  A    between atoms: CA_454  and  C_456
REMARK  135  A    between atoms: N_467  and  CA_468
REMARK  136  A    between atoms: CA_468  and  C_470
REMARK  137  A    between atoms: CA_468  and  CB_472
REMARK  138  A    between atoms: CB_472  and  CG1_474
REMARK  139  A    between atoms: CB_472  and  CG2_478
REMARK  140  A    between atoms: N_483  and  CA_484
REMARK  141  A    between atoms: CA_484  and  C_486
REMARK  142  A    between atoms: CA_484  and  CB_488
REMARK  143  A    between atoms: CB_488  and  CG_491
REMARK  144  A    between atoms: CG_491  and  SD_494
REMARK  145  A    between atoms: SD_494  and  CE_495
REMARK  146  A    between atoms: N_500  and  CA_501
REMARK  147  A    between atoms: CA_501  and  C_503
REMARK  148  A    between atoms: CA_501  and  CB_505
REMARK  149  A    between atoms: N_510  and  CA_511
REMARK  150  A    between atoms: CA_511  and  C_513
REMARK  151  A    between atoms: CA_511  and  CB_515
REMARK  152  A    between atoms: CB_515  and  CG_518
REMARK  153  A    between atoms: CG_518  and  CD_521
REMARK  154  A    between atoms: N_527  and  CA_528
REMARK  155  A    between atoms: CA_528  and  C_530
REMARK  156  A    between atoms: CA_528  and  CB_532
REMARK  157  A    between atoms: CB_532  and  CG_535
REMARK  158  A    between atoms: CG_535  and  CD_538
REMARK  159  A    between atoms: N_544  and  CA_545
REMARK  160  A    between atoms: CA_545  and  C_547
REMARK  161  A    between atoms: CA_545  and  CB_549
REMARK  162  A    between atoms: CB_549  and  CG_552
REMARK  163  A    between atoms: N_561  and  CA_562
REMARK  164  A    between atoms: CA_562  and  C_564
REMARK  165  A    between atoms: CA_562  and  CB_566
REMARK  166  A    between atoms: CB_566  and  CG_569
REMARK  167  A    between atoms: CZ_578  and  OH_579
REMARK  168  A    between atoms: N_582  and  CA_583
REMARK  169  A    between atoms: CA_583  and  C_585
REMARK  170  A    between atoms: CA_583  and  CB_587
REMARK  171  A    between atoms: CB_587  and  CG1_589
REMARK  172  A    between atoms: CB_587  and  CG2_593
REMARK  173  A    between atoms: N_598  and  CA_599
REMARK  174  A    between atoms: CA_599  and  C_602
REMARK  175  A    between atoms: N_605  and  CA_606
REMARK  176  A    between atoms: CA_606  and  C_608
REMARK  177  A    between atoms: CA_606  and  CB_610
REMARK  178  A    between atoms: CB_610  and  CG_613
REMARK  179  A    between atoms: CG_613  and  CD_616
REMARK  180  A    between atoms: CD_616  and  CE_619
REMARK  181  A    between atoms: CE_619  and  NZ_622
REMARK  182  A    between atoms: N_627  and  CA_628
REMARK  183  A    between atoms: CA_628  and  C_630
REMARK  184  A    between atoms: CA_628  and  CB_632
REMARK  185  A    between atoms: CB_632  and  CG_635
REMARK  186  A    between atoms: CG_635  and  CD_638
REMARK  187  A    between atoms: CD_638  and  CE_641
REMARK  188  A    between atoms: CE_641  and  NZ_644
REMARK  189  A    between atoms: N_649  and  CA_650
REMARK  190  A    between atoms: CA_650  and  C_652
REMARK  191  A    between atoms: CA_650  and  CB_654
REMARK  192  A    between atoms: CB_654  and  CG_657
REMARK  193  A    between atoms: N_666  and  CA_667
REMARK  194  A    between atoms: CA_667  and  C_669
REMARK  195  A    between atoms: CA_667  and  CB_671
REMARK  196  A    between atoms: CB_671  and  CG_674
REMARK  197  A    between atoms: CG_674  and  CD_677
REMARK  198  A    between atoms: CD_677  and  NE_680
REMARK  199  A    between atoms: N_690  and  CA_691
REMARK  200  A    between atoms: CA_691  and  C_693
REMARK  201  A    between atoms: CA_691  and  CB_695
REMARK  202  A    between atoms: CB_695  and  CG_698
REMARK  203  A    between atoms: CG_698  and  CD_701
REMARK  204  A    between atoms: CD_701  and  CE_704
REMARK  205  A    between atoms: CE_704  and  NZ_707
REMARK  206  A    between atoms: N_712  and  CA_713
REMARK  207  A    between atoms: CA_713  and  C_715
REMARK  208  A    between atoms: CA_713  and  CB_717
REMARK  209  A    between atoms: CB_717  and  CG_720
REMARK  210  A    between atoms: CG_720  and  CD_723
REMARK  211  A    between atoms: N_729  and  CA_730
REMARK  212  A    between atoms: CA_730  and  C_732
REMARK  213  A    between atoms: CA_730  and  CB_734
REMARK  214  A    between atoms: CB_734  and  CG_737
REMARK  215  A    between atoms: CG_737  and  CD_740
REMARK  216  A    between atoms: N_744  and  CA_745
REMARK  217  A    between atoms: CA_745  and  C_747
REMARK  218  A    between atoms: CA_745  and  CB_749
REMARK  219  A    between atoms: CB_749  and  OG1_751
REMARK  220  A    between atoms: CB_749  and  CG2_752
REMARK  221  A    between atoms: N_758  and  CA_759
REMARK  222  A    between atoms: CA_759  and  C_761
REMARK  223  A    between atoms: CA_759  and  CB_763
REMARK  224  A    between atoms: CB_763  and  CG_766
REMARK  225  A    between atoms: CG_766  and  CD_769
REMARK  226  A    between atoms: CD_769  and  CE_772
REMARK  227  A    between atoms: CE_772  and  NZ_775
REMARK  228  A    between atoms: N_780  and  CA_781
REMARK  229  A    between atoms: CA_781  and  C_783
REMARK  230  A    between atoms: CA_781  and  CB_785
REMARK  231  A    between atoms: CB_785  and  CG_788
REMARK  232  A    between atoms: CG_788  and  CD1_790
REMARK  233  A    between atoms: CG_788  and  CD2_794
REMARK  234  A    between atoms: N_799  and  CA_800
REMARK  235  A    between atoms: CA_800  and  C_802
REMARK  236  A    between atoms: CA_800  and  CB_804
REMARK  237  A    between atoms: CB_804  and  CG_807
REMARK  238  A    between atoms: CG_807  and  CD_810
REMARK  239  A    between atoms: CD_810  and  CE_813
REMARK  240  A    between atoms: CE_813  and  NZ_816
REMARK  241  A    between atoms: N_821  and  CA_822
REMARK  242  A    between atoms: CA_822  and  C_824
REMARK  243  A    between atoms: CA_822  and  CB_826
REMARK  244  A    between atoms: CB_826  and  CG_829
REMARK  245  A    between atoms: CG_829  and  CD1_831
REMARK  246  A    between atoms: CG_829  and  CD2_835
REMARK  247  A    between atoms: N_840  and  CA_841
REMARK  248  A    between atoms: CA_841  and  C_843
REMARK  249  A    between atoms: CA_841  and  CB_845
REMARK  250  A    between atoms: CB_845  and  CG_848
REMARK  251  A    between atoms: CG_848  and  SD_851
REMARK  252  A    between atoms: SD_851  and  CE_852
REMARK  253  A    between atoms: N_857  and  CA_858
REMARK  254  A    between atoms: CA_858  and  C_860
REMARK  255  A    between atoms: CA_858  and  CB_862
REMARK  256  A    between atoms: N_867  and  CA_868
REMARK  257  A    between atoms: CA_868  and  C_870
REMARK  258  A    between atoms: CA_868  and  CB_872
REMARK  259  A    between atoms: CB_872  and  CG_875
REMARK  260  A    between atoms: CG_875  and  CD_878
REMARK  261  A    between atoms: CD_878  and  NE_881
REMARK  262  A    between atoms: N_891  and  CA_892
REMARK  263  A    between atoms: CA_892  and  C_894
REMARK  264  A    between atoms: CA_892  and  CB_896
REMARK  265  A    between atoms: CB_896  and  CG_899
REMARK  266  A    between atoms: CZ_908  and  OH_909
REMARK  267  A    between atoms: N_912  and  CA_913
REMARK  268  A    between atoms: CA_913  and  C_916
REMARK  269  A    between atoms: N_919  and  CA_920
REMARK  270  A    between atoms: CA_920  and  CB_924
REMARK  271  A    between atoms: O_923  and  N_943
REMARK  272  A    between atoms: CB_924  and  CG_927
REMARK  273  A    between atoms: CG_927  and  CD_930
REMARK  274  A    between atoms: CD_930  and  NE_933
REMARK  275  A    between atoms: N_943  and  CA_945
REMARK  276  A    between atoms: CA_945  and  CB_947
REMARK  277  A    between atoms: CA_945  and  C_960
REMARK  278  A    between atoms: CB_947  and  CG_950
REMARK  279  A    between atoms: CG_950  and  CD1_952
REMARK  280  A    between atoms: CG_950  and  CD2_956
REMARK  281  A    between atoms: N_962  and  CA_964
REMARK  282  A    between atoms: CA_964  and  CB_966
REMARK  283  A    between atoms: CA_964  and  C_970
REMARK  284  A    between atoms: N_972  and  CA_974
REMARK  285  A    between atoms: CA_974  and  CB_976
REMARK  286  A    between atoms: CA_974  and  C_982
REMARK  287  A    between atoms: CB_976  and  CG_979
REMARK  288  A    between atoms: O5'_985  and  C5'_986
REMARK  289  A    between atoms: C5'_986  and  C4'_987
REMARK  290  A    between atoms: C3'_989  and  O3'_990
REMARK  291  A    between atoms: O3'_990  and  P_1017
REMARK  292  A    between atoms: C2'_991  and  O2'_992
REMARK  293  A    between atoms: C1'_993  and  N9_994
REMARK  294  A    between atoms: P_1017  and  O5'_1020
REMARK  295  A    between atoms: O5'_1020  and  C5'_1021
REMARK  296  A    between atoms: C5'_1021  and  C4'_1022
REMARK  297  A    between atoms: C3'_1024  and  O3'_1025
REMARK  298  A    between atoms: O3'_1025  and  P_1048
REMARK  299  A    between atoms: C2'_1026  and  O2'_1027
REMARK  300  A    between atoms: C1'_1028  and  N1_1029
REMARK  301  A    between atoms: P_1048  and  O5'_1051
REMARK  302  A    between atoms: O5'_1051  and  C5'_1052
REMARK  303  A    between atoms: C5'_1052  and  C4'_1053
REMARK  304  A    between atoms: C3'_1055  and  O3'_1056
REMARK  305  A    between atoms: O3'_1056  and  P_1079
REMARK  306  A    between atoms: C2'_1057  and  O2'_1058
REMARK  307  A    between atoms: C1'_1059  and  N1_1060
REMARK  308  A    between atoms: P_1079  and  O5'_1082
REMARK  309  A    between atoms: O5'_1082  and  C5'_1083
REMARK  310  A    between atoms: C5'_1083  and  C4'_1084
REMARK  311  A    between atoms: C3'_1086  and  O3'_1087
REMARK  312  A    between atoms: O3'_1087  and  P_1113
REMARK  313  A    between atoms: C2'_1088  and  O2'_1089
REMARK  314  A    between atoms: C1'_1090  and  N9_1091
REMARK  315  A    between atoms: P_1113  and  O5'_1116
REMARK  316  A    between atoms: O5'_1116  and  C5'_1117
REMARK  317  A    between atoms: C5'_1117  and  C4'_1118
REMARK  318  A    between atoms: C3'_1120  and  O3'_1121
REMARK  319  A    between atoms: O3'_1121  and  P_1143
REMARK  320  A    between atoms: C2'_1122  and  O2'_1123
REMARK  321  A    between atoms: C1'_1124  and  N1_1125
REMARK  322  A    between atoms: P_1143  and  O5'_1146
REMARK  323  A    between atoms: O5'_1146  and  C5'_1147
REMARK  324  A    between atoms: C5'_1147  and  C4'_1148
REMARK  325  A    between atoms: C3'_1150  and  O3'_1151
REMARK  326  A    between atoms: O3'_1151  and  P_1177
REMARK  327  A    between atoms: C2'_1152  and  O2'_1153
REMARK  328  A    between atoms: C1'_1154  and  N9_1155
REMARK  329  A    between atoms: P_1177  and  O5'_1180
REMARK  330  A    between atoms: O5'_1180  and  C5'_1181
REMARK  331  A    between atoms: C5'_1181  and  C4'_1182
REMARK  332  A    between atoms: C3'_1184  and  O3'_1185
REMARK  333  A    between atoms: O3'_1185  and  P_1211
REMARK  334  A    between atoms: C2'_1186  and  O2'_1187
REMARK  335  A    between atoms: C1'_1188  and  N9_1189
REMARK  336  A    between atoms: P_1211  and  O5'_1214
REMARK  337  A    between atoms: O5'_1214  and  C5'_1215
REMARK  338  A    between atoms: C5'_1215  and  C4'_1216
REMARK  339  A    between atoms: C3'_1218  and  O3'_1219
REMARK  340  A    between atoms: O3'_1219  and  P_1241
REMARK  341  A    between atoms: C2'_1220  and  O2'_1221
REMARK  342  A    between atoms: C1'_1222  and  N1_1223
REMARK  343  A    between atoms: P_1241  and  O5'_1244
REMARK  344  A    between atoms: O5'_1244  and  C5'_1245
REMARK  345  A    between atoms: C5'_1245  and  C4'_1246
REMARK  346  A    between atoms: C3'_1248  and  O3'_1249
REMARK  347  A    between atoms: O3'_1249  and  P_1272
REMARK  348  A    between atoms: C2'_1250  and  O2'_1251
REMARK  349  A    between atoms: C1'_1252  and  N1_1253
REMARK  350  A    between atoms: P_1272  and  O5'_1275
REMARK  351  A    between atoms: O5'_1275  and  C5'_1276
REMARK  352  A    between atoms: C5'_1276  and  C4'_1277
REMARK  353  A    between atoms: C3'_1279  and  O3'_1280
REMARK  354  A    between atoms: O3'_1280  and  P_1302
REMARK  355  A    between atoms: C2'_1281  and  O2'_1282
REMARK  356  A    between atoms: C1'_1283  and  N1_1284
REMARK  357  A    between atoms: P_1302  and  O5'_1305
REMARK  358  A    between atoms: O5'_1305  and  C5'_1306
REMARK  359  A    between atoms: C5'_1306  and  C4'_1307
REMARK  360  A    between atoms: C3'_1309  and  O3'_1310
REMARK  361  A    between atoms: O3'_1310  and  P_1336
REMARK  362  A    between atoms: C2'_1311  and  O2'_1312
REMARK  363  A    between atoms: C1'_1313  and  N9_1314
REMARK  364  A    between atoms: P_1336  and  O5'_1339
REMARK  365  A    between atoms: O5'_1339  and  C5'_1340
REMARK  366  A    between atoms: C5'_1340  and  C4'_1341
REMARK  367  A    between atoms: C3'_1343  and  O3'_1344
REMARK  368  A    between atoms: O3'_1344  and  P_1370
REMARK  369  A    between atoms: C2'_1345  and  O2'_1346
REMARK  370  A    between atoms: C1'_1347  and  N9_1348
REMARK  371  A    between atoms: P_1370  and  O5'_1373
REMARK  372  A    between atoms: O5'_1373  and  C5'_1374
REMARK  373  A    between atoms: C5'_1374  and  C4'_1375
REMARK  374  A    between atoms: C3'_1377  and  O3'_1378
REMARK  375  A    between atoms: O3'_1378  and  P_1400
REMARK  376  A    between atoms: C2'_1379  and  O2'_1380
REMARK  377  A    between atoms: C1'_1381  and  N1_1382
REMARK  378  A    between atoms: P_1400  and  O5'_1403
REMARK  379  A    between atoms: O5'_1403  and  C5'_1404
REMARK  380  A    between atoms: C5'_1404  and  C4'_1405
REMARK  381  A    between atoms: C3'_1407  and  O3'_1408
REMARK  382  A    between atoms: O3'_1408  and  P_1434
REMARK  383  A    between atoms: C2'_1409  and  O2'_1410
REMARK  384  A    between atoms: C1'_1411  and  N9_1412
REMARK  385  A    between atoms: P_1434  and  O5'_1437
REMARK  386  A    between atoms: O5'_1437  and  C5'_1438
REMARK  387  A    between atoms: C5'_1438  and  C4'_1439
REMARK  388  A    between atoms: C3'_1441  and  O3'_1442
REMARK  389  A    between atoms: O3'_1442  and  P_1468
REMARK  390  A    between atoms: C2'_1443  and  O2'_1444
REMARK  391  A    between atoms: C1'_1445  and  N9_1446
REMARK  392  A    between atoms: P_1468  and  O5'_1471
REMARK  393  A    between atoms: O5'_1471  and  C5'_1472
REMARK  394  A    between atoms: C5'_1472  and  C4'_1473
REMARK  395  A    between atoms: C3'_1475  and  O3'_1476
REMARK  396  A    between atoms: O3'_1476  and  P_1499
REMARK  397  A    between atoms: C2'_1477  and  O2'_1478
REMARK  398  A    between atoms: C1'_1479  and  N1_1480
REMARK  399  A    between atoms: P_1499  and  O5'_1502
REMARK  400  A    between atoms: O5'_1502  and  C5'_1503
REMARK  401  A    between atoms: C5'_1503  and  C4'_1504
REMARK  402  A    between atoms: C3'_1506  and  O3'_1507
REMARK  403  A    between atoms: O3'_1507  and  P_1530
REMARK  404  A    between atoms: C2'_1508  and  O2'_1509
REMARK  405  A    between atoms: C1'_1510  and  N1_1511
REMARK  406  A    between atoms: P_1530  and  O5'_1533
REMARK  407  A    between atoms: O5'_1533  and  C5'_1534
REMARK  408  A    between atoms: C5'_1534  and  C4'_1535
REMARK  409  A    between atoms: C3'_1537  and  O3'_1538
REMARK  410  A    between atoms: O3'_1538  and  P_1564
REMARK  411  A    between atoms: C2'_1539  and  O2'_1540
REMARK  412  A    between atoms: C1'_1541  and  N9_1542
REMARK  413  A    between atoms: P_1564  and  O5'_1567
REMARK  414  A    between atoms: O5'_1567  and  C5'_1568
REMARK  415  A    between atoms: C5'_1568  and  C4'_1569
REMARK  416  A    between atoms: C3'_1571  and  O3'_1572
REMARK  417  A    between atoms: C2'_1574  and  O2'_1575
REMARK  418  A    between atoms: C1'_1576  and  N9_1577
REMARK  419  A    between atoms: O5'_1602  and  C5'_1604
REMARK  420  A    between atoms: C5'_1604  and  C4'_1605
REMARK  421  A    between atoms: C3'_1607  and  O3'_1608
REMARK  422  A    between atoms: O3'_1608  and  P_1631
REMARK  423  A    between atoms: C2'_1609  and  O2'_1610
REMARK  424  A    between atoms: C1'_1611  and  N1_1612
REMARK  425  A    between atoms: P_1631  and  O5'_1634
REMARK  426  A    between atoms: O5'_1634  and  C5'_1635
REMARK  427  A    between atoms: C5'_1635  and  C4'_1636
REMARK  428  A    between atoms: C3'_1638  and  O3'_1639
REMARK  429  A    between atoms: O3'_1639  and  P_1662
REMARK  430  A    between atoms: C2'_1640  and  O2'_1641
REMARK  431  A    between atoms: C1'_1642  and  N1_1643
REMARK  432  A    between atoms: P_1662  and  O5'_1665
REMARK  433  A    between atoms: O5'_1665  and  C5'_1666
REMARK  434  A    between atoms: C5'_1666  and  C4'_1667
REMARK  435  A    between atoms: C3'_1669  and  O3'_1670
REMARK  436  A    between atoms: O3'_1670  and  P_1696
REMARK  437  A    between atoms: C2'_1671  and  O2'_1672
REMARK  438  A    between atoms: C1'_1673  and  N9_1674
REMARK  439  A    between atoms: P_1696  and  O5'_1699
REMARK  440  A    between atoms: O5'_1699  and  C5'_1700
REMARK  441  A    between atoms: C5'_1700  and  C4'_1701
REMARK  442  A    between atoms: C3'_1703  and  O3'_1704
REMARK  443  A    between atoms: O3'_1704  and  P_1730
REMARK  444  A    between atoms: C2'_1705  and  O2'_1706
REMARK  445  A    between atoms: C1'_1707  and  N9_1708
REMARK  446  A    between atoms: P_1730  and  O5'_1733
REMARK  447  A    between atoms: O5'_1733  and  C5'_1734
REMARK  448  A    between atoms: C5'_1734  and  C4'_1735
REMARK  449  A    between atoms: C3'_1737  and  O3'_1738
REMARK  450  A    between atoms: O3'_1738  and  P_1761
REMARK  451  A    between atoms: C2'_1739  and  O2'_1740
REMARK  452  A    between atoms: C1'_1741  and  N1_1742
REMARK  453  A    between atoms: P_1761  and  O5'_1764
REMARK  454  A    between atoms: O5'_1764  and  C5'_1765
REMARK  455  A    between atoms: C5'_1765  and  C4'_1766
REMARK  456  A    between atoms: C3'_1768  and  O3'_1769
REMARK  457  A    between atoms: O3'_1769  and  P_1792
REMARK  458  A    between atoms: C2'_1770  and  O2'_1771
REMARK  459  A    between atoms: C1'_1772  and  N1_1773
REMARK  460  A    between atoms: P_1792  and  O5'_1795
REMARK  461  A    between atoms: O5'_1795  and  C5'_1796
REMARK  462  A    between atoms: C5'_1796  and  C4'_1797
REMARK  463  A    between atoms: C3'_1799  and  O3'_1800
REMARK  464  A    between atoms: O3'_1800  and  P_1825
REMARK  465  A    between atoms: C2'_1801  and  O2'_1802
REMARK  466  A    between atoms: C1'_1803  and  N9_1804
REMARK  467  A    between atoms: C6_1808  and  N6_1809
REMARK  468  A    between atoms: P_1825  and  O5'_1828
REMARK  469  A    between atoms: O5'_1828  and  C5'_1829
REMARK  470  A    between atoms: C5'_1829  and  C4'_1830
REMARK  471  A    between atoms: C3'_1832  and  O3'_1833
REMARK  472  A    between atoms: O3'_1833  and  P_1856
REMARK  473  A    between atoms: C2'_1834  and  O2'_1835
REMARK  474  A    between atoms: C1'_1836  and  N1_1837
REMARK  475  A    between atoms: P_1856  and  O5'_1859
REMARK  476  A    between atoms: O5'_1859  and  C5'_1860
REMARK  477  A    between atoms: C5'_1860  and  C4'_1861
REMARK  478  A    between atoms: C3'_1863  and  O3'_1864
REMARK  479  A    between atoms: O3'_1864  and  P_1887
REMARK  480  A    between atoms: C2'_1865  and  O2'_1866
REMARK  481  A    between atoms: C1'_1867  and  N1_1868
REMARK  482  A    between atoms: P_1887  and  O5'_1890
REMARK  483  A    between atoms: O5'_1890  and  C5'_1891
REMARK  484  A    between atoms: C5'_1891  and  C4'_1892
REMARK  485  A    between atoms: C3'_1894  and  O3'_1895
REMARK  486  A    between atoms: O3'_1895  and  P_1920
REMARK  487  A    between atoms: C2'_1896  and  O2'_1897
REMARK  488  A    between atoms: C1'_1898  and  N9_1899
REMARK  489  A    between atoms: C6_1903  and  N6_1904
REMARK  490  A    between atoms: P_1920  and  O5'_1923
REMARK  491  A    between atoms: O5'_1923  and  C5'_1924
REMARK  492  A    between atoms: C5'_1924  and  C4'_1925
REMARK  493  A    between atoms: C3'_1927  and  O3'_1928
REMARK  494  A    between atoms: O3'_1928  and  P_1954
REMARK  495  A    between atoms: C2'_1929  and  O2'_1930
REMARK  496  A    between atoms: C1'_1931  and  N9_1932
REMARK  497  A    between atoms: P_1954  and  O5'_1957
REMARK  498  A    between atoms: O5'_1957  and  C5'_1958
REMARK  499  A    between atoms: C5'_1958  and  C4'_1959
REMARK  500  A    between atoms: C3'_1961  and  O3'_1962
REMARK  501  A    between atoms: O3'_1962  and  P_1987
REMARK  502  A    between atoms: C2'_1963  and  O2'_1964
REMARK  503  A    between atoms: C1'_1965  and  N9_1966
REMARK  504  A    between atoms: C6_1970  and  N6_1971
REMARK  505  A    between atoms: P_1987  and  O5'_1990
REMARK  506  A    between atoms: O5'_1990  and  C5'_1991
REMARK  507  A    between atoms: C5'_1991  and  C4'_1992
REMARK  508  A    between atoms: C3'_1994  and  O3'_1995
REMARK  509  A    between atoms: O3'_1995  and  P_2018
REMARK  510  A    between atoms: C2'_1996  and  O2'_1997
REMARK  511  A    between atoms: C1'_1998  and  N1_1999
REMARK  512  A    between atoms: P_2018  and  O5'_2021
REMARK  513  A    between atoms: O5'_2021  and  C5'_2022
REMARK  514  A    between atoms: C5'_2022  and  C4'_2023
REMARK  515  A    between atoms: C3'_2025  and  O3'_2026
REMARK  516  A    between atoms: O3'_2026  and  P_2049
REMARK  517  A    between atoms: C2'_2027  and  O2'_2028
REMARK  518  A    between atoms: C1'_2029  and  N1_2030
REMARK  519  A    between atoms: P_2049  and  O5'_2052
REMARK  520  A    between atoms: O5'_2052  and  C5'_2053
REMARK  521  A    between atoms: C5'_2053  and  C4'_2054
REMARK  522  A    between atoms: C3'_2056  and  O3'_2057
REMARK  523  A    between atoms: O3'_2057  and  P_2082
REMARK  524  A    between atoms: C2'_2058  and  O2'_2059
REMARK  525  A    between atoms: C1'_2060  and  N9_2061
REMARK  526  A    between atoms: C6_2065  and  N6_2066
REMARK  527  A    between atoms: P_2082  and  O5'_2085
REMARK  528  A    between atoms: O5'_2085  and  C5'_2086
REMARK  529  A    between atoms: C5'_2086  and  C4'_2087
REMARK  530  A    between atoms: C3'_2089  and  O3'_2090
REMARK  531  A    between atoms: O3'_2090  and  P_2113
REMARK  532  A    between atoms: C2'_2091  and  O2'_2092
REMARK  533  A    between atoms: C1'_2093  and  N1_2094
REMARK  534  A    between atoms: P_2113  and  O5'_2116
REMARK  535  A    between atoms: O5'_2116  and  C5'_2117
REMARK  536  A    between atoms: C5'_2117  and  C4'_2118
REMARK  537  A    between atoms: C3'_2120  and  O3'_2121
REMARK  538  A    between atoms: O3'_2121  and  P_2147
REMARK  539  A    between atoms: C2'_2122  and  O2'_2123
REMARK  540  A    between atoms: C1'_2124  and  N9_2125
REMARK  541  A    between atoms: P_2147  and  O5'_2150
REMARK  542  A    between atoms: O5'_2150  and  C5'_2151
REMARK  543  A    between atoms: C5'_2151  and  C4'_2152
REMARK  544  A    between atoms: C3'_2154  and  O3'_2155
REMARK  545  A    between atoms: O3'_2155  and  P_2181
REMARK  546  A    between atoms: C2'_2156  and  O2'_2157
REMARK  547  A    between atoms: C1'_2158  and  N9_2159
REMARK  548  A    between atoms: P_2181  and  O5'_2184
REMARK  549  A    between atoms: O5'_2184  and  C5'_2185
REMARK  550  A    between atoms: C5'_2185  and  C4'_2186
REMARK  551  A    between atoms: C3'_2188  and  O3'_2189
REMARK  552  A    between atoms: C2'_2190  and  O2'_2191
REMARK  553  A    between atoms: C1'_2192  and  N1_2193
REMARK                            x       y       z     vdW  Elec       q    Type
REMARK                         _______ _______ _______ _____ _____    ______ ____
ROOT
ATOM      1  C   ASN A  10      32.125 -19.638   9.988  0.00  0.00    +0.000 C 
ATOM      2  O   ASN A  10      32.155 -18.906  10.999  0.00  0.00    +0.000 OA
ENDROOT
TORSDOF 0
REMARK  Name = /Users/acegid/Desktop/Smoking_Research/Docking/Docking_All_PDB/All_PDB/2MKN_H.pdb
REMARK  553 active torsions:
REMARK  status: ('A' for Active; 'I' for Inactive)
REMARK    1  A    between atoms: N_1  and  CA_5
REMARK    2  A    between atoms: CA_5  and  CB_7
REMARK    3  A    between atoms: CA_5  and  C_12
REMARK    4  A    between atoms: CB_7  and  OG_10
REMARK    5  A    between atoms: C_12  and  N_14
REMARK    6  A    between atoms: N_14  and  CA_16
REMARK    7  A    between atoms: CA_16  and  CB_18
REMARK    8  A    between atoms: CA_16  and  C_26
REMARK    9  A    between atoms: CB_18  and  CG2_20
REMARK   10  A    between atoms: CB_18  and  OG1_24
REMARK   11  A    between atoms: N_28  and  CA_30
REMARK   12  A    between atoms: CA_30  and  CB_32
REMARK   13  A    between atoms: CA_30  and  C_48
REMARK   14  A    between atoms: CB_32  and  CG_35
REMARK   15  A    between atoms: CG_35  and  CD_38
REMARK   16  A    between atoms: CD_38  and  CE_41
REMARK   17  A    between atoms: CE_41  and  NZ_44
REMARK   18  A    between atoms: C_48  and  N_50
REMARK   19  A    between atoms: N_50  and  CA_52
REMARK   20  A    between atoms: CA_52  and  CB_54
REMARK   21  A    between atoms: CA_52  and  C_64
REMARK   22  A    between atoms: CB_54  and  CG1_56
REMARK   23  A    between atoms: CB_54  and  CG2_60
REMARK   24  A    between atoms: N_66  and  CA_68
REMARK   25  A    between atoms: CA_68  and  CB_70
REMARK   26  A    between atoms: CA_68  and  C_79
REMARK   27  A    between atoms: CB_70  and  CG_73
REMARK   28  A    between atoms: CG_73  and  CD_76
REMARK   29  A    between atoms: N_81  and  CA_83
REMARK   30  A    between atoms: CA_83  and  CB_85
REMARK   31  A    between atoms: CA_83  and  C_89
REMARK   32  A    between atoms: N_91  and  CA_93
REMARK   33  A    between atoms: CA_93  and  CB_95
REMARK   34  A    between atoms: CA_93  and  C_108
REMARK   35  A    between atoms: CB_95  and  CG_98
REMARK   36  A    between atoms: CG_98  and  CD1_100
REMARK   37  A    between atoms: CG_98  and  CD2_104
REMARK   38  A    between atoms: C_108  and  N_110
REMARK   39  A    between atoms: N_110  and  CA_112
REMARK   40  A    between atoms: CA_112  and  CB_114
REMARK   41  A    between atoms: CA_112  and  C_125
REMARK   42  A    between atoms: CB_114  and  CG_117
REMARK   43  A    between atoms: N_127  and  CA_129
REMARK   44  A    between atoms: CA_129  and  CB_131
REMARK   45  A    between atoms: CA_129  and  C_142
REMARK   46  A    between atoms: CB_131  and  CG_134
REMARK   47  A    between atoms: CG_134  and  CD_137
REMARK   48  A    between atoms: N_144  and  CA_146
REMARK   49  A    between atoms: CA_146  and  CB_148
REMARK   50  A    between atoms: CB_148  and  CG_151
REMARK   51  A    between atoms: N_158  and  CA_160
REMARK   52  A    between atoms: CA_160  and  CB_162
REMARK   53  A    between atoms: CA_160  and  C_180
REMARK   54  A    between atoms: CB_162  and  CG_165
REMARK   55  A    between atoms: CG_165  and  CD_168
REMARK   56  A    between atoms: CD_168  and  NE_171
REMARK   57  A    between atoms: N_182  and  CA_184
REMARK   58  A    between atoms: CA_184  and  CB_186
REMARK   59  A    between atoms: CA_184  and  C_195
REMARK   60  A    between atoms: CB_186  and  CG_189
REMARK   61  A    between atoms: CG_189  and  CD_192
REMARK   62  A    between atoms: N_197  and  CA_199
REMARK   63  A    between atoms: CA_199  and  CB_201
REMARK   64  A    between atoms: CB_201  and  CG_204
REMARK   65  A    between atoms: CG_204  and  SD_207
REMARK   66  A    between atoms: SD_207  and  CE_208
REMARK   67  A    between atoms: CA_215  and  C_217
REMARK   68  A    between atoms: CA_215  and  CB_219
REMARK   69  A    between atoms: CB_219  and  CG1_221
REMARK   70  A    between atoms: CB_219  and  CG2_224
REMARK   71  A    between atoms: CG1_221  and  CD1_228
REMARK   72  A    between atoms: N_233  and  CA_234
REMARK   73  A    between atoms: CA_234  and  C_236
REMARK   74  A    between atoms: CA_234  and  CB_238
REMARK   75  A    between atoms: CB_238  and  CG_241
REMARK   76  A    between atoms: CA_246  and  C_248
REMARK   77  A    between atoms: N_259  and  CA_260
REMARK   78  A    between atoms: CA_260  and  C_262
REMARK   79  A    between atoms: CA_260  and  CB_264
REMARK   80  A    between atoms: CB_264  and  CG_267
REMARK   81  A    between atoms: N_271  and  CA_272
REMARK   82  A    between atoms: CA_272  and  C_274
REMARK   83  A    between atoms: CA_272  and  CB_276
REMARK   84  A    between atoms: CB_276  and  CG_279
REMARK   85  A    between atoms: CG_279  and  CD_282
REMARK   86  A    between atoms: CD_282  and  CE_285
REMARK   87  A    between atoms: CE_285  and  NZ_288
REMARK   88  A    between atoms: N_293  and  CA_294
REMARK   89  A    between atoms: CA_294  and  C_296
REMARK   90  A    between atoms: CA_294  and  CB_298
REMARK   91  A    between atoms: CB_298  and  CG_301
REMARK   92  A    between atoms: N_313  and  CA_314
REMARK   93  A    between atoms: CA_314  and  C_316
REMARK   94  A    between atoms: CA_314  and  CB_318
REMARK   95  A    between atoms: CB_318  and  SG_321
REMARK   96  A    between atoms: N_324  and  CA_325
REMARK   97  A    between atoms: CA_325  and  C_327
REMARK   98  A    between atoms: CA_325  and  CB_329
REMARK   99  A    between atoms: CB_329  and  OG_332
REMARK  100  A    between atoms: N_335  and  CA_336
REMARK  101  A    between atoms: CA_336  and  C_338
REMARK  102  A    between atoms: CA_336  and  CB_340
REMARK  103  A    between atoms: CB_340  and  CG_343
REMARK  104  A    between atoms: CG_343  and  CD1_345
REMARK  105  A    between atoms: CG_343  and  CD2_349
REMARK  106  A    between atoms: N_354  and  CA_355
REMARK  107  A    between atoms: CA_355  and  C_357
REMARK  108  A    between atoms: CA_355  and  CB_359
REMARK  109  A    between atoms: CB_359  and  SG_362
REMARK  110  A    between atoms: N_365  and  CA_366
REMARK  111  A    between atoms: CA_366  and  C_368
REMARK  112  A    between atoms: CA_366  and  CB_370
REMARK  113  A    between atoms: CB_370  and  CG_373
REMARK  114  A    between atoms: N_383  and  CA_384
REMARK  115  A    between atoms: CA_384  and  C_386
REMARK  116  A    between atoms: CA_384  and  CB_388
REMARK  117  A    between atoms: N_393  and  CA_394
REMARK  118  A    between atoms: CA_394  and  C_396
REMARK  119  A    between atoms: CA_394  and  CB_398
REMARK  120  A    between atoms: CB_398  and  OG1_400
REMARK  121  A    between atoms: CB_398  and  CG2_401
REMARK  122  A    between atoms: N_407  and  CA_408
REMARK  123  A    between atoms: CA_408  and  C_410
REMARK  124  A    between atoms: CA_408  and  CB_412
REMARK  125  A    between atoms: CB_412  and  CG_415
REMARK  126  A    between atoms: N_427  and  CA_428
REMARK  127  A    between atoms: CA_428  and  C_430
REMARK  128  A    between atoms: CA_428  and  CB_432
REMARK  129  A    between atoms: CB_432  and  CG_435
REMARK  130  A    between atoms: N_441  and  CA_442
REMARK  131  A    between atoms: CA_442  and  C_444
REMARK  132  A    between atoms: CA_442  and  CB_446
REMARK  133  A    between atoms: CB_446  and  CG_449
REMARK  134  A    between atoms: CA_454  and  C_456
REMARK  135  A    between atoms: N_467  and  CA_468
REMARK  136  A    between atoms: CA_468  and  C_470
REMARK  137  A    between atoms: CA_468  and  CB_472
REMARK  138  A    between atoms: CB_472  and  CG1_474
REMARK  139  A    between atoms: CB_472  and  CG2_478
REMARK  140  A    between atoms: N_483  and  CA_484
REMARK  141  A    between atoms: CA_484  and  C_486
REMARK  142  A    between atoms: CA_484  and  CB_488
REMARK  143  A    between atoms: CB_488  and  CG_491
REMARK  144  A    between atoms: CG_491  and  SD_494
REMARK  145  A    between atoms: SD_494  and  CE_495
REMARK  146  A    between atoms: N_500  and  CA_501
REMARK  147  A    between atoms: CA_501  and  C_503
REMARK  148  A    between atoms: CA_501  and  CB_505
REMARK  149  A    between atoms: N_510  and  CA_511
REMARK  150  A    between atoms: CA_511  and  C_513
REMARK  151  A    between atoms: CA_511  and  CB_515
REMARK  152  A    between atoms: CB_515  and  CG_518
REMARK  153  A    between atoms: CG_518  and  CD_521
REMARK  154  A    between atoms: N_527  and  CA_528
REMARK  155  A    between atoms: CA_528  and  C_530
REMARK  156  A    between atoms: CA_528  and  CB_532
REMARK  157  A    between atoms: CB_532  and  CG_535
REMARK  158  A    between atoms: CG_535  and  CD_538
REMARK  159  A    between atoms: N_544  and  CA_545
REMARK  160  A    between atoms: CA_545  and  C_547
REMARK  161  A    between atoms: CA_545  and  CB_549
REMARK  162  A    between atoms: CB_549  and  CG_552
REMARK  163  A    between atoms: N_561  and  CA_562
REMARK  164  A    between atoms: CA_562  and  C_564
REMARK  165  A    between atoms: CA_562  and  CB_566
REMARK  166  A    between atoms: CB_566  and  CG_569
REMARK  167  A    between atoms: CZ_578  and  OH_579
REMARK  168  A    between atoms: N_582  and  CA_583
REMARK  169  A    between atoms: CA_583  and  C_585
REMARK  170  A    between atoms: CA_583  and  CB_587
REMARK  171  A    between atoms: CB_587  and  CG1_589
REMARK  172  A    between atoms: CB_587  and  CG2_593
REMARK  173  A    between atoms: N_598  and  CA_599
REMARK  174  A    between atoms: CA_599  and  C_602
REMARK  175  A    between atoms: N_605  and  CA_606
REMARK  176  A    between atoms: CA_606  and  C_608
REMARK  177  A    between atoms: CA_606  and  CB_610
REMARK  178  A    between atoms: CB_610  and  CG_613
REMARK  179  A    between atoms: CG_613  and  CD_616
REMARK  180  A    between atoms: CD_616  and  CE_619
REMARK  181  A    between atoms: CE_619  and  NZ_622
REMARK  182  A    between atoms: N_627  and  CA_628
REMARK  183  A    between atoms: CA_628  and  C_630
REMARK  184  A    between atoms: CA_628  and  CB_632
REMARK  185  A    between atoms: CB_632  and  CG_635
REMARK  186  A    between atoms: CG_635  and  CD_638
REMARK  187  A    between atoms: CD_638  and  CE_641
REMARK  188  A    between atoms: CE_641  and  NZ_644
REMARK  189  A    between atoms: N_649  and  CA_650
REMARK  190  A    between atoms: CA_650  and  C_652
REMARK  191  A    between atoms: CA_650  and  CB_654
REMARK  192  A    between atoms: CB_654  and  CG_657
REMARK  193  A    between atoms: N_666  and  CA_667
REMARK  194  A    between atoms: CA_667  and  C_669
REMARK  195  A    between atoms: CA_667  and  CB_671
REMARK  196  A    between atoms: CB_671  and  CG_674
REMARK  197  A    between atoms: CG_674  and  CD_677
REMARK  198  A    between atoms: CD_677  and  NE_680
REMARK  199  A    between atoms: N_690  and  CA_691
REMARK  200  A    between atoms: CA_691  and  C_693
REMARK  201  A    between atoms: CA_691  and  CB_695
REMARK  202  A    between atoms: CB_695  and  CG_698
REMARK  203  A    between atoms: CG_698  and  CD_701
REMARK  204  A    between atoms: CD_701  and  CE_704
REMARK  205  A    between atoms: CE_704  and  NZ_707
REMARK  206  A    between atoms: N_712  and  CA_713
REMARK  207  A    between atoms: CA_713  and  C_715
REMARK  208  A    between atoms: CA_713  and  CB_717
REMARK  209  A    between atoms: CB_717  and  CG_720
REMARK  210  A    between atoms: CG_720  and  CD_723
REMARK  211  A    between atoms: N_729  and  CA_730
REMARK  212  A    between atoms: CA_730  and  C_732
REMARK  213  A    between atoms: CA_730  and  CB_734
REMARK  214  A    between atoms: CB_734  and  CG_737
REMARK  215  A    between atoms: CG_737  and  CD_740
REMARK  216  A    between atoms: N_744  and  CA_745
REMARK  217  A    between atoms: CA_745  and  C_747
REMARK  218  A    between atoms: CA_745  and  CB_749
REMARK  219  A    between atoms: CB_749  and  OG1_751
REMARK  220  A    between atoms: CB_749  and  CG2_752
REMARK  221  A    between atoms: N_758  and  CA_759
REMARK  222  A    between atoms: CA_759  and  C_761
REMARK  223  A    between atoms: CA_759  and  CB_763
REMARK  224  A    between atoms: CB_763  and  CG_766
REMARK  225  A    between atoms: CG_766  and  CD_769
REMARK  226  A    between atoms: CD_769  and  CE_772
REMARK  227  A    between atoms: CE_772  and  NZ_775
REMARK  228  A    between atoms: N_780  and  CA_781
REMARK  229  A    between atoms: CA_781  and  C_783
REMARK  230  A    between atoms: CA_781  and  CB_785
REMARK  231  A    between atoms: CB_785  and  CG_788
REMARK  232  A    between atoms: CG_788  and  CD1_790
REMARK  233  A    between atoms: CG_788  and  CD2_794
REMARK  234  A    between atoms: N_799  and  CA_800
REMARK  235  A    between atoms: CA_800  and  C_802
REMARK  236  A    between atoms: CA_800  and  CB_804
REMARK  237  A    between atoms: CB_804  and  CG_807
REMARK  238  A    between atoms: CG_807  and  CD_810
REMARK  239  A    between atoms: CD_810  and  CE_813
REMARK  240  A    between atoms: CE_813  and  NZ_816
REMARK  241  A    between atoms: N_821  and  CA_822
REMARK  242  A    between atoms: CA_822  and  C_824
REMARK  243  A    between atoms: CA_822  and  CB_826
REMARK  244  A    between atoms: CB_826  and  CG_829
REMARK  245  A    between atoms: CG_829  and  CD1_831
REMARK  246  A    between atoms: CG_829  and  CD2_835
REMARK  247  A    between atoms: N_840  and  CA_841
REMARK  248  A    between atoms: CA_841  and  C_843
REMARK  249  A    between atoms: CA_841  and  CB_845
REMARK  250  A    between atoms: CB_845  and  CG_848
REMARK  251  A    between atoms: CG_848  and  SD_851
REMARK  252  A    between atoms: SD_851  and  CE_852
REMARK  253  A    between atoms: N_857  and  CA_858
REMARK  254  A    between atoms: CA_858  and  C_860
REMARK  255  A    between atoms: CA_858  and  CB_862
REMARK  256  A    between atoms: N_867  and  CA_868
REMARK  257  A    between atoms: CA_868  and  C_870
REMARK  258  A    between atoms: CA_868  and  CB_872
REMARK  259  A    between atoms: CB_872  and  CG_875
REMARK  260  A    between atoms: CG_875  and  CD_878
REMARK  261  A    between atoms: CD_878  and  NE_881
REMARK  262  A    between atoms: N_891  and  CA_892
REMARK  263  A    between atoms: CA_892  and  C_894
REMARK  264  A    between atoms: CA_892  and  CB_896
REMARK  265  A    between atoms: CB_896  and  CG_899
REMARK  266  A    between atoms: CZ_908  and  OH_909
REMARK  267  A    between atoms: N_912  and  CA_913
REMARK  268  A    between atoms: CA_913  and  C_916
REMARK  269  A    between atoms: N_919  and  CA_920
REMARK  270  A    between atoms: CA_920  and  CB_924
REMARK  271  A    between atoms: O_923  and  N_943
REMARK  272  A    between atoms: CB_924  and  CG_927
REMARK  273  A    between atoms: CG_927  and  CD_930
REMARK  274  A    between atoms: CD_930  and  NE_933
REMARK  275  A    between atoms: N_943  and  CA_945
REMARK  276  A    between atoms: CA_945  and  CB_947
REMARK  277  A    between atoms: CA_945  and  C_960
REMARK  278  A    between atoms: CB_947  and  CG_950
REMARK  279  A    between atoms: CG_950  and  CD1_952
REMARK  280  A    between atoms: CG_950  and  CD2_956
REMARK  281  A    between atoms: N_962  and  CA_964
REMARK  282  A    between atoms: CA_964  and  CB_966
REMARK  283  A    between atoms: CA_964  and  C_970
REMARK  284  A    between atoms: N_972  and  CA_974
REMARK  285  A    between atoms: CA_974  and  CB_976
REMARK  286  A    between atoms: CA_974  and  C_982
REMARK  287  A    between atoms: CB_976  and  CG_979
REMARK  288  A    between atoms: O5'_985  and  C5'_986
REMARK  289  A    between atoms: C5'_986  and  C4'_987
REMARK  290  A    between atoms: C3'_989  and  O3'_990
REMARK  291  A    between atoms: O3'_990  and  P_1017
REMARK  292  A    between atoms: C2'_991  and  O2'_992
REMARK  293  A    between atoms: C1'_993  and  N9_994
REMARK  294  A    between atoms: P_1017  and  O5'_1020
REMARK  295  A    between atoms: O5'_1020  and  C5'_1021
REMARK  296  A    between atoms: C5'_1021  and  C4'_1022
REMARK  297  A    between atoms: C3'_1024  and  O3'_1025
REMARK  298  A    between atoms: O3'_1025  and  P_1048
REMARK  299  A    between atoms: C2'_1026  and  O2'_1027
REMARK  300  A    between atoms: C1'_1028  and  N1_1029
REMARK  301  A    between atoms: P_1048  and  O5'_1051
REMARK  302  A    between atoms: O5'_1051  and  C5'_1052
REMARK  303  A    between atoms: C5'_1052  and  C4'_1053
REMARK  304  A    between atoms: C3'_1055  and  O3'_1056
REMARK  305  A    between atoms: O3'_1056  and  P_1079
REMARK  306  A    between atoms: C2'_1057  and  O2'_1058
REMARK  307  A    between atoms: C1'_1059  and  N1_1060
REMARK  308  A    between atoms: P_1079  and  O5'_1082
REMARK  309  A    between atoms: O5'_1082  and  C5'_1083
REMARK  310  A    between atoms: C5'_1083  and  C4'_1084
REMARK  311  A    between atoms: C3'_1086  and  O3'_1087
REMARK  312  A    between atoms: O3'_1087  and  P_1113
REMARK  313  A    between atoms: C2'_1088  and  O2'_1089
REMARK  314  A    between atoms: C1'_1090  and  N9_1091
REMARK  315  A    between atoms: P_1113  and  O5'_1116
REMARK  316  A    between atoms: O5'_1116  and  C5'_1117
REMARK  317  A    between atoms: C5'_1117  and  C4'_1118
REMARK  318  A    between atoms: C3'_1120  and  O3'_1121
REMARK  319  A    between atoms: O3'_1121  and  P_1143
REMARK  320  A    between atoms: C2'_1122  and  O2'_1123
REMARK  321  A    between atoms: C1'_1124  and  N1_1125
REMARK  322  A    between atoms: P_1143  and  O5'_1146
REMARK  323  A    between atoms: O5'_1146  and  C5'_1147
REMARK  324  A    between atoms: C5'_1147  and  C4'_1148
REMARK  325  A    between atoms: C3'_1150  and  O3'_1151
REMARK  326  A    between atoms: O3'_1151  and  P_1177
REMARK  327  A    between atoms: C2'_1152  and  O2'_1153
REMARK  328  A    between atoms: C1'_1154  and  N9_1155
REMARK  329  A    between atoms: P_1177  and  O5'_1180
REMARK  330  A    between atoms: O5'_1180  and  C5'_1181
REMARK  331  A    between atoms: C5'_1181  and  C4'_1182
REMARK  332  A    between atoms: C3'_1184  and  O3'_1185
REMARK  333  A    between atoms: O3'_1185  and  P_1211
REMARK  334  A    between atoms: C2'_1186  and  O2'_1187
REMARK  335  A    between atoms: C1'_1188  and  N9_1189
REMARK  336  A    between atoms: P_1211  and  O5'_1214
REMARK  337  A    between atoms: O5'_1214  and  C5'_1215
REMARK  338  A    between atoms: C5'_1215  and  C4'_1216
REMARK  339  A    between atoms: C3'_1218  and  O3'_1219
REMARK  340  A    between atoms: O3'_1219  and  P_1241
REMARK  341  A    between atoms: C2'_1220  and  O2'_1221
REMARK  342  A    between atoms: C1'_1222  and  N1_1223
REMARK  343  A    between atoms: P_1241  and  O5'_1244
REMARK  344  A    between atoms: O5'_1244  and  C5'_1245
REMARK  345  A    between atoms: C5'_1245  and  C4'_1246
REMARK  346  A    between atoms: C3'_1248  and  O3'_1249
REMARK  347  A    between atoms: O3'_1249  and  P_1272
REMARK  348  A    between atoms: C2'_1250  and  O2'_1251
REMARK  349  A    between atoms: C1'_1252  and  N1_1253
REMARK  350  A    between atoms: P_1272  and  O5'_1275
REMARK  351  A    between atoms: O5'_1275  and  C5'_1276
REMARK  352  A    between atoms: C5'_1276  and  C4'_1277
REMARK  353  A    between atoms: C3'_1279  and  O3'_1280
REMARK  354  A    between atoms: O3'_1280  and  P_1302
REMARK  355  A    between atoms: C2'_1281  and  O2'_1282
REMARK  356  A    between atoms: C1'_1283  and  N1_1284
REMARK  357  A    between atoms: P_1302  and  O5'_1305
REMARK  358  A    between atoms: O5'_1305  and  C5'_1306
REMARK  359  A    between atoms: C5'_1306  and  C4'_1307
REMARK  360  A    between atoms: C3'_1309  and  O3'_1310
REMARK  361  A    between atoms: O3'_1310  and  P_1336
REMARK  362  A    between atoms: C2'_1311  and  O2'_1312
REMARK  363  A    between atoms: C1'_1313  and  N9_1314
REMARK  364  A    between atoms: P_1336  and  O5'_1339
REMARK  365  A    between atoms: O5'_1339  and  C5'_1340
REMARK  366  A    between atoms: C5'_1340  and  C4'_1341
REMARK  367  A    between atoms: C3'_1343  and  O3'_1344
REMARK  368  A    between atoms: O3'_1344  and  P_1370
REMARK  369  A    between atoms: C2'_1345  and  O2'_1346
REMARK  370  A    between atoms: C1'_1347  and  N9_1348
REMARK  371  A    between atoms: P_1370  and  O5'_1373
REMARK  372  A    between atoms: O5'_1373  and  C5'_1374
REMARK  373  A    between atoms: C5'_1374  and  C4'_1375
REMARK  374  A    between atoms: C3'_1377  and  O3'_1378
REMARK  375  A    between atoms: O3'_1378  and  P_1400
REMARK  376  A    between atoms: C2'_1379  and  O2'_1380
REMARK  377  A    between atoms: C1'_1381  and  N1_1382
REMARK  378  A    between atoms: P_1400  and  O5'_1403
REMARK  379  A    between atoms: O5'_1403  and  C5'_1404
REMARK  380  A    between atoms: C5'_1404  and  C4'_1405
REMARK  381  A    between atoms: C3'_1407  and  O3'_1408
REMARK  382  A    between atoms: O3'_1408  and  P_1434
REMARK  383  A    between atoms: C2'_1409  and  O2'_1410
REMARK  384  A    between atoms: C1'_1411  and  N9_1412
REMARK  385  A    between atoms: P_1434  and  O5'_1437
REMARK  386  A    between atoms: O5'_1437  and  C5'_1438
REMARK  387  A    between atoms: C5'_1438  and  C4'_1439
REMARK  388  A    between atoms: C3'_1441  and  O3'_1442
REMARK  389  A    between atoms: O3'_1442  and  P_1468
REMARK  390  A    between atoms: C2'_1443  and  O2'_1444
REMARK  391  A    between atoms: C1'_1445  and  N9_1446
REMARK  392  A    between atoms: P_1468  and  O5'_1471
REMARK  393  A    between atoms: O5'_1471  and  C5'_1472
REMARK  394  A    between atoms: C5'_1472  and  C4'_1473
REMARK  395  A    between atoms: C3'_1475  and  O3'_1476
REMARK  396  A    between atoms: O3'_1476  and  P_1499
REMARK  397  A    between atoms: C2'_1477  and  O2'_1478
REMARK  398  A    between atoms: C1'_1479  and  N1_1480
REMARK  399  A    between atoms: P_1499  and  O5'_1502
REMARK  400  A    between atoms: O5'_1502  and  C5'_1503
REMARK  401  A    between atoms: C5'_1503  and  C4'_1504
REMARK  402  A    between atoms: C3'_1506  and  O3'_1507
REMARK  403  A    between atoms: O3'_1507  and  P_1530
REMARK  404  A    between atoms: C2'_1508  and  O2'_1509
REMARK  405  A    between atoms: C1'_1510  and  N1_1511
REMARK  406  A    between atoms: P_1530  and  O5'_1533
REMARK  407  A    between atoms: O5'_1533  and  C5'_1534
REMARK  408  A    between atoms: C5'_1534  and  C4'_1535
REMARK  409  A    between atoms: C3'_1537  and  O3'_1538
REMARK  410  A    between atoms: O3'_1538  and  P_1564
REMARK  411  A    between atoms: C2'_1539  and  O2'_1540
REMARK  412  A    between atoms: C1'_1541  and  N9_1542
REMARK  413  A    between atoms: P_1564  and  O5'_1567
REMARK  414  A    between atoms: O5'_1567  and  C5'_1568
REMARK  415  A    between atoms: C5'_1568  and  C4'_1569
REMARK  416  A    between atoms: C3'_1571  and  O3'_1572
REMARK  417  A    between atoms: C2'_1574  and  O2'_1575
REMARK  418  A    between atoms: C1'_1576  and  N9_1577
REMARK  419  A    between atoms: O5'_1602  and  C5'_1604
REMARK  420  A    between atoms: C5'_1604  and  C4'_1605
REMARK  421  A    between atoms: C3'_1607  and  O3'_1608
REMARK  422  A    between atoms: O3'_1608  and  P_1631
REMARK  423  A    between atoms: C2'_1609  and  O2'_1610
REMARK  424  A    between atoms: C1'_1611  and  N1_1612
REMARK  425  A    between atoms: P_1631  and  O5'_1634
REMARK  426  A    between atoms: O5'_1634  and  C5'_1635
REMARK  427  A    between atoms: C5'_1635  and  C4'_1636
REMARK  428  A    between atoms: C3'_1638  and  O3'_1639
REMARK  429  A    between atoms: O3'_1639  and  P_1662
REMARK  430  A    between atoms: C2'_1640  and  O2'_1641
REMARK  431  A    between atoms: C1'_1642  and  N1_1643
REMARK  432  A    between atoms: P_1662  and  O5'_1665
REMARK  433  A    between atoms: O5'_1665  and  C5'_1666
REMARK  434  A    between atoms: C5'_1666  and  C4'_1667
REMARK  435  A    between atoms: C3'_1669  and  O3'_1670
REMARK  436  A    between atoms: O3'_1670  and  P_1696
REMARK  437  A    between atoms: C2'_1671  and  O2'_1672
REMARK  438  A    between atoms: C1'_1673  and  N9_1674
REMARK  439  A    between atoms: P_1696  and  O5'_1699
REMARK  440  A    between atoms: O5'_1699  and  C5'_1700
REMARK  441  A    between atoms: C5'_1700  and  C4'_1701
REMARK  442  A    between atoms: C3'_1703  and  O3'_1704
REMARK  443  A    between atoms: O3'_1704  and  P_1730
REMARK  444  A    between atoms: C2'_1705  and  O2'_1706
REMARK  445  A    between atoms: C1'_1707  and  N9_1708
REMARK  446  A    between atoms: P_1730  and  O5'_1733
REMARK  447  A    between atoms: O5'_1733  and  C5'_1734
REMARK  448  A    between atoms: C5'_1734  and  C4'_1735
REMARK  449  A    between atoms: C3'_1737  and  O3'_1738
REMARK  450  A    between atoms: O3'_1738  and  P_1761
REMARK  451  A    between atoms: C2'_1739  and  O2'_1740
REMARK  452  A    between atoms: C1'_1741  and  N1_1742
REMARK  453  A    between atoms: P_1761  and  O5'_1764
REMARK  454  A    between atoms: O5'_1764  and  C5'_1765
REMARK  455  A    between atoms: C5'_1765  and  C4'_1766
REMARK  456  A    between atoms: C3'_1768  and  O3'_1769
REMARK  457  A    between atoms: O3'_1769  and  P_1792
REMARK  458  A    between atoms: C2'_1770  and  O2'_1771
REMARK  459  A    between atoms: C1'_1772  and  N1_1773
REMARK  460  A    between atoms: P_1792  and  O5'_1795
REMARK  461  A    between atoms: O5'_1795  and  C5'_1796
REMARK  462  A    between atoms: C5'_1796  and  C4'_1797
REMARK  463  A    between atoms: C3'_1799  and  O3'_1800
REMARK  464  A    between atoms: O3'_1800  and  P_1825
REMARK  465  A    between atoms: C2'_1801  and  O2'_1802
REMARK  466  A    between atoms: C1'_1803  and  N9_1804
REMARK  467  A    between atoms: C6_1808  and  N6_1809
REMARK  468  A    between atoms: P_1825  and  O5'_1828
REMARK  469  A    between atoms: O5'_1828  and  C5'_1829
REMARK  470  A    between atoms: C5'_1829  and  C4'_1830
REMARK  471  A    between atoms: C3'_1832  and  O3'_1833
REMARK  472  A    between atoms: O3'_1833  and  P_1856
REMARK  473  A    between atoms: C2'_1834  and  O2'_1835
REMARK  474  A    between atoms: C1'_1836  and  N1_1837
REMARK  475  A    between atoms: P_1856  and  O5'_1859
REMARK  476  A    between atoms: O5'_1859  and  C5'_1860
REMARK  477  A    between atoms: C5'_1860  and  C4'_1861
REMARK  478  A    between atoms: C3'_1863  and  O3'_1864
REMARK  479  A    between atoms: O3'_1864  and  P_1887
REMARK  480  A    between atoms: C2'_1865  and  O2'_1866
REMARK  481  A    between atoms: C1'_1867  and  N1_1868
REMARK  482  A    between atoms: P_1887  and  O5'_1890
REMARK  483  A    between atoms: O5'_1890  and  C5'_1891
REMARK  484  A    between atoms: C5'_1891  and  C4'_1892
REMARK  485  A    between atoms: C3'_1894  and  O3'_1895
REMARK  486  A    between atoms: O3'_1895  and  P_1920
REMARK  487  A    between atoms: C2'_1896  and  O2'_1897
REMARK  488  A    between atoms: C1'_1898  and  N9_1899
REMARK  489  A    between atoms: C6_1903  and  N6_1904
REMARK  490  A    between atoms: P_1920  and  O5'_1923
REMARK  491  A    between atoms: O5'_1923  and  C5'_1924
REMARK  492  A    between atoms: C5'_1924  and  C4'_1925
REMARK  493  A    between atoms: C3'_1927  and  O3'_1928
REMARK  494  A    between atoms: O3'_1928  and  P_1954
REMARK  495  A    between atoms: C2'_1929  and  O2'_1930
REMARK  496  A    between atoms: C1'_1931  and  N9_1932
REMARK  497  A    between atoms: P_1954  and  O5'_1957
REMARK  498  A    between atoms: O5'_1957  and  C5'_1958
REMARK  499  A    between atoms: C5'_1958  and  C4'_1959
REMARK  500  A    between atoms: C3'_1961  and  O3'_1962
REMARK  501  A    between atoms: O3'_1962  and  P_1987
REMARK  502  A    between atoms: C2'_1963  and  O2'_1964
REMARK  503  A    between atoms: C1'_1965  and  N9_1966
REMARK  504  A    between atoms: C6_1970  and  N6_1971
REMARK  505  A    between atoms: P_1987  and  O5'_1990
REMARK  506  A    between atoms: O5'_1990  and  C5'_1991
REMARK  507  A    between atoms: C5'_1991  and  C4'_1992
REMARK  508  A    between atoms: C3'_1994  and  O3'_1995
REMARK  509  A    between atoms: O3'_1995  and  P_2018
REMARK  510  A    between atoms: C2'_1996  and  O2'_1997
REMARK  511  A    between atoms: C1'_1998  and  N1_1999
REMARK  512  A    between atoms: P_2018  and  O5'_2021
REMARK  513  A    between atoms: O5'_2021  and  C5'_2022
REMARK  514  A    between atoms: C5'_2022  and  C4'_2023
REMARK  515  A    between atoms: C3'_2025  and  O3'_2026
REMARK  516  A    between atoms: O3'_2026  and  P_2049
REMARK  517  A    between atoms: C2'_2027  and  O2'_2028
REMARK  518  A    between atoms: C1'_2029  and  N1_2030
REMARK  519  A    between atoms: P_2049  and  O5'_2052
REMARK  520  A    between atoms: O5'_2052  and  C5'_2053
REMARK  521  A    between atoms: C5'_2053  and  C4'_2054
REMARK  522  A    between atoms: C3'_2056  and  O3'_2057
REMARK  523  A    between atoms: O3'_2057  and  P_2082
REMARK  524  A    between atoms: C2'_2058  and  O2'_2059
REMARK  525  A    between atoms: C1'_2060  and  N9_2061
REMARK  526  A    between atoms: C6_2065  and  N6_2066
REMARK  527  A    between atoms: P_2082  and  O5'_2085
REMARK  528  A    between atoms: O5'_2085  and  C5'_2086
REMARK  529  A    between atoms: C5'_2086  and  C4'_2087
REMARK  530  A    between atoms: C3'_2089  and  O3'_2090
REMARK  531  A    between atoms: O3'_2090  and  P_2113
REMARK  532  A    between atoms: C2'_2091  and  O2'_2092
REMARK  533  A    between atoms: C1'_2093  and  N1_2094
REMARK  534  A    between atoms: P_2113  and  O5'_2116
REMARK  535  A    between atoms: O5'_2116  and  C5'_2117
REMARK  536  A    between atoms: C5'_2117  and  C4'_2118
REMARK  537  A    between atoms: C3'_2120  and  O3'_2121
REMARK  538  A    between atoms: O3'_2121  and  P_2147
REMARK  539  A    between atoms: C2'_2122  and  O2'_2123
REMARK  540  A    between atoms: C1'_2124  and  N9_2125
REMARK  541  A    between atoms: P_2147  and  O5'_2150
REMARK  542  A    between atoms: O5'_2150  and  C5'_2151
REMARK  543  A    between atoms: C5'_2151  and  C4'_2152
REMARK  544  A    between atoms: C3'_2154  and  O3'_2155
REMARK  545  A    between atoms: O3'_2155  and  P_2181
REMARK  546  A    between atoms: C2'_2156  and  O2'_2157
REMARK  547  A    between atoms: C1'_2158  and  N9_2159
REMARK  548  A    between atoms: P_2181  and  O5'_2184
REMARK  549  A    between atoms: O5'_2184  and  C5'_2185
REMARK  550  A    between atoms: C5'_2185  and  C4'_2186
REMARK  551  A    between atoms: C3'_2188  and  O3'_2189
REMARK  552  A    between atoms: C2'_2190  and  O2'_2191
REMARK  553  A    between atoms: C1'_2192  and  N1_2193
REMARK                            x       y       z     vdW  Elec       q    Type
REMARK                         _______ _______ _______ _____ _____    ______ ____
ROOT
ATOM      1  C   ARG A  11      28.753 -16.815   7.313  0.00  0.00    +0.000 C 
ATOM      2  O   ARG A  11      29.220 -15.842   7.853  0.00  0.00    +0.000 OA
ATOM      3  N   GLU A  12      27.597 -16.086   6.307  0.00  0.00    +0.000 N 
ATOM      4  H   GLU A  12      28.007 -14.970   6.264  0.00  0.00    +0.000 HD
ENDROOT
BRANCH   3   5
ATOM      5  CA  GLU A  12      26.407 -15.657   5.033  0.00  0.00    +0.000 C 
BRANCH   5   6
ATOM      6  C   GLU A  12      25.260 -14.313   4.380  0.00  0.00    +0.000 C 
ATOM      7  O   GLU A  12      26.003 -13.313   4.445  0.00  0.00    +0.000 OA
ATOM      8  N   MET A  13      23.902 -13.828   3.482  0.00  0.00    +0.000 N 
ATOM      9  H   MET A  13      23.119 -14.087   4.333  0.00  0.00    +0.000 HD
BRANCH   8  10
ATOM     10  CA  MET A  13      22.635 -13.031   2.397  0.00  0.00    +0.000 C 
BRANCH  10  11
ATOM     11  CB  MET A  13      23.009 -13.922   1.202  0.00  0.00    +0.000 C 
BRANCH  11  12
ATOM     12  CG  MET A  13      22.259 -15.265   1.022  0.00  0.00    +0.000 C 
BRANCH  12  13
ATOM     13  SD  MET A  13      21.493 -16.467   2.177  0.00  0.00    +0.000 S 
ATOM     14  CE  MET A  13      22.163 -18.107   1.747  0.00  0.00    +0.000 C 
ENDBRANCH  12  13
ENDBRANCH  11  12
ENDBRANCH  10  11
ENDBRANCH   8  10
ENDBRANCH   5   6
BRANCH   5  15
ATOM     15  CB  GLU A  12      25.137 -16.210   5.713  0.00  0.00    +0.000 C 
BRANCH  15  16
ATOM     16  CG  GLU A  12      24.905 -15.901   7.182  0.00  0.00    +0.000 C 
BRANCH  16  17
ATOM     17  CD  GLU A  12      25.730 -16.856   8.050  0.00  0.00    +0.000 C 
ATOM     18  OE1 GLU A  12      26.259 -16.290   9.024  0.00  0.00    +0.000 OA
ATOM     19  OE2 GLU A  12      26.261 -17.852   7.506  0.00  0.00    +0.000 OA
ENDBRANCH  16  17
ENDBRANCH  15  16
ENDBRANCH   5  15
ENDBRANCH   3   5
BRANCH   1  20
ATOM     20  CA  ARG A  11      29.963 -17.844   8.241  0.00  0.00    +0.000 C 
BRANCH  20  21
ATOM     21  N   ARG A  11      31.017 -19.099   8.894  0.00  0.00    +0.000 NA
ATOM     22  H   ARG A  11      32.150 -19.135   8.560  0.00  0.00    +0.000 HD
ENDBRANCH  20  21
BRANCH  20  23
ATOM     23  CB  ARG A  11      31.137 -17.667   7.236  0.00  0.00    +0.000 C 
BRANCH  23  24
ATOM     24  CG  ARG A  11      32.108 -18.816   6.894  0.00  0.00    +0.000 C 
BRANCH  24  25
ATOM     25  CD  ARG A  11      31.401 -20.162   6.626  0.00  0.00    +0.000 C 
BRANCH  25  26
ATOM     26  NE  ARG A  11      30.560 -20.735   7.708  0.00  0.00    +0.000 N 
ATOM     27  HE  ARG A  11      31.171 -21.565   8.314  0.00  0.00    +0.000 HD
ATOM     28  CZ  ARG A  11      29.398 -21.413   7.596  0.00  0.00    +0.000 C 
ATOM     29  NH1 ARG A  11      29.264 -22.332   6.617  0.00  0.00    +0.000 N 
ATOM     30 HH11 ARG A  11      28.920 -23.436   6.904  0.00  0.00    +0.000 HD
ATOM     31 HH12 ARG A  11      29.216 -22.268   5.430  0.00  0.00    +0.000 HD
ATOM     32  NH2 ARG A  11      28.407 -21.192   8.476  0.00  0.00    +0.000 N 
ATOM     33 HH21 ARG A  11      27.434 -20.536   8.285  0.00  0.00    +0.000 HD
ATOM     34 HH22 ARG A  11      28.227 -21.883   9.429  0.00  0.00    +0.000 HD
ENDBRANCH  25  26
ENDBRANCH  24  25
ENDBRANCH  23  24
ENDBRANCH  20  23
ENDBRANCH   1  20
TORSDOF 15
REMARK  Name = /Users/acegid/Desktop/Smoking_Research/Docking/Docking_All_PDB/All_PDB/2MKN_H.pdb
REMARK  553 active torsions:
REMARK  status: ('A' for Active; 'I' for Inactive)
REMARK    1  A    between atoms: N_1  and  CA_5
REMARK    2  A    between atoms: CA_5  and  CB_7
REMARK    3  A    between atoms: CA_5  and  C_12
REMARK    4  A    between atoms: CB_7  and  OG_10
REMARK    5  A    between atoms: C_12  and  N_14
REMARK    6  A    between atoms: N_14  and  CA_16
REMARK    7  A    between atoms: CA_16  and  CB_18
REMARK    8  A    between atoms: CA_16  and  C_26
REMARK    9  A    between atoms: CB_18  and  CG2_20
REMARK   10  A    between atoms: CB_18  and  OG1_24
REMARK   11  A    between atoms: N_28  and  CA_30
REMARK   12  A    between atoms: CA_30  and  CB_32
REMARK   13  A    between atoms: CA_30  and  C_48
REMARK   14  A    between atoms: CB_32  and  CG_35
REMARK   15  A    between atoms: CG_35  and  CD_38
REMARK   16  A    between atoms: CD_38  and  CE_41
REMARK   17  A    between atoms: CE_41  and  NZ_44
REMARK   18  A    between atoms: C_48  and  N_50
REMARK   19  A    between atoms: N_50  and  CA_52
REMARK   20  A    between atoms: CA_52  and  CB_54
REMARK   21  A    between atoms: CA_52  and  C_64
REMARK   22  A    between atoms: CB_54  and  CG1_56
REMARK   23  A    between atoms: CB_54  and  CG2_60
REMARK   24  A    between atoms: N_66  and  CA_68
REMARK   25  A    between atoms: CA_68  and  CB_70
REMARK   26  A    between atoms: CA_68  and  C_79
REMARK   27  A    between atoms: CB_70  and  CG_73
REMARK   28  A    between atoms: CG_73  and  CD_76
REMARK   29  A    between atoms: N_81  and  CA_83
REMARK   30  A    between atoms: CA_83  and  CB_85
REMARK   31  A    between atoms: CA_83  and  C_89
REMARK   32  A    between atoms: N_91  and  CA_93
REMARK   33  A    between atoms: CA_93  and  CB_95
REMARK   34  A    between atoms: CA_93  and  C_108
REMARK   35  A    between atoms: CB_95  and  CG_98
REMARK   36  A    between atoms: CG_98  and  CD1_100
REMARK   37  A    between atoms: CG_98  and  CD2_104
REMARK   38  A    between atoms: C_108  and  N_110
REMARK   39  A    between atoms: N_110  and  CA_112
REMARK   40  A    between atoms: CA_112  and  CB_114
REMARK   41  A    between atoms: CA_112  and  C_125
REMARK   42  A    between atoms: CB_114  and  CG_117
REMARK   43  A    between atoms: N_127  and  CA_129
REMARK   44  A    between atoms: CA_129  and  CB_131
REMARK   45  A    between atoms: CA_129  and  C_142
REMARK   46  A    between atoms: CB_131  and  CG_134
REMARK   47  A    between atoms: CG_134  and  CD_137
REMARK   48  A    between atoms: N_144  and  CA_146
REMARK   49  A    between atoms: CA_146  and  CB_148
REMARK   50  A    between atoms: CB_148  and  CG_151
REMARK   51  A    between atoms: N_158  and  CA_160
REMARK   52  A    between atoms: CA_160  and  CB_162
REMARK   53  A    between atoms: CA_160  and  C_180
REMARK   54  A    between atoms: CB_162  and  CG_165
REMARK   55  A    between atoms: CG_165  and  CD_168
REMARK   56  A    between atoms: CD_168  and  NE_171
REMARK   57  A    between atoms: N_182  and  CA_184
REMARK   58  A    between atoms: CA_184  and  CB_186
REMARK   59  A    between atoms: CA_184  and  C_195
REMARK   60  A    between atoms: CB_186  and  CG_189
REMARK   61  A    between atoms: CG_189  and  CD_192
REMARK   62  A    between atoms: N_197  and  CA_199
REMARK   63  A    between atoms: CA_199  and  CB_201
REMARK   64  A    between atoms: CB_201  and  CG_204
REMARK   65  A    between atoms: CG_204  and  SD_207
REMARK   66  A    between atoms: SD_207  and  CE_208
REMARK   67  A    between atoms: CA_215  and  C_217
REMARK   68  A    between atoms: CA_215  and  CB_219
REMARK   69  A    between atoms: CB_219  and  CG1_221
REMARK   70  A    between atoms: CB_219  and  CG2_224
REMARK   71  A    between atoms: CG1_221  and  CD1_228
REMARK   72  A    between atoms: N_233  and  CA_234
REMARK   73  A    between atoms: CA_234  and  C_236
REMARK   74  A    between atoms: CA_234  and  CB_238
REMARK   75  A    between atoms: CB_238  and  CG_241
REMARK   76  A    between atoms: CA_246  and  C_248
REMARK   77  A    between atoms: N_259  and  CA_260
REMARK   78  A    between atoms: CA_260  and  C_262
REMARK   79  A    between atoms: CA_260  and  CB_264
REMARK   80  A    between atoms: CB_264  and  CG_267
REMARK   81  A    between atoms: N_271  and  CA_272
REMARK   82  A    between atoms: CA_272  and  C_274
REMARK   83  A    between atoms: CA_272  and  CB_276
REMARK   84  A    between atoms: CB_276  and  CG_279
REMARK   85  A    between atoms: CG_279  and  CD_282
REMARK   86  A    between atoms: CD_282  and  CE_285
REMARK   87  A    between atoms: CE_285  and  NZ_288
REMARK   88  A    between atoms: N_293  and  CA_294
REMARK   89  A    between atoms: CA_294  and  C_296
REMARK   90  A    between atoms: CA_294  and  CB_298
REMARK   91  A    between atoms: CB_298  and  CG_301
REMARK   92  A    between atoms: N_313  and  CA_314
REMARK   93  A    between atoms: CA_314  and  C_316
REMARK   94  A    between atoms: CA_314  and  CB_318
REMARK   95  A    between atoms: CB_318  and  SG_321
REMARK   96  A    between atoms: N_324  and  CA_325
REMARK   97  A    between atoms: CA_325  and  C_327
REMARK   98  A    between atoms: CA_325  and  CB_329
REMARK   99  A    between atoms: CB_329  and  OG_332
REMARK  100  A    between atoms: N_335  and  CA_336
REMARK  101  A    between atoms: CA_336  and  C_338
REMARK  102  A    between atoms: CA_336  and  CB_340
REMARK  103  A    between atoms: CB_340  and  CG_343
REMARK  104  A    between atoms: CG_343  and  CD1_345
REMARK  105  A    between atoms: CG_343  and  CD2_349
REMARK  106  A    between atoms: N_354  and  CA_355
REMARK  107  A    between atoms: CA_355  and  C_357
REMARK  108  A    between atoms: CA_355  and  CB_359
REMARK  109  A    between atoms: CB_359  and  SG_362
REMARK  110  A    between atoms: N_365  and  CA_366
REMARK  111  A    between atoms: CA_366  and  C_368
REMARK  112  A    between atoms: CA_366  and  CB_370
REMARK  113  A    between atoms: CB_370  and  CG_373
REMARK  114  A    between atoms: N_383  and  CA_384
REMARK  115  A    between atoms: CA_384  and  C_386
REMARK  116  A    between atoms: CA_384  and  CB_388
REMARK  117  A    between atoms: N_393  and  CA_394
REMARK  118  A    between atoms: CA_394  and  C_396
REMARK  119  A    between atoms: CA_394  and  CB_398
REMARK  120  A    between atoms: CB_398  and  OG1_400
REMARK  121  A    between atoms: CB_398  and  CG2_401
REMARK  122  A    between atoms: N_407  and  CA_408
REMARK  123  A    between atoms: CA_408  and  C_410
REMARK  124  A    between atoms: CA_408  and  CB_412
REMARK  125  A    between atoms: CB_412  and  CG_415
REMARK  126  A    between atoms: N_427  and  CA_428
REMARK  127  A    between atoms: CA_428  and  C_430
REMARK  128  A    between atoms: CA_428  and  CB_432
REMARK  129  A    between atoms: CB_432  and  CG_435
REMARK  130  A    between atoms: N_441  and  CA_442
REMARK  131  A    between atoms: CA_442  and  C_444
REMARK  132  A    between atoms: CA_442  and  CB_446
REMARK  133  A    between atoms: CB_446  and  CG_449
REMARK  134  A    between atoms: CA_454  and  C_456
REMARK  135  A    between atoms: N_467  and  CA_468
REMARK  136  A    between atoms: CA_468  and  C_470
REMARK  137  A    between atoms: CA_468  and  CB_472
REMARK  138  A    between atoms: CB_472  and  CG1_474
REMARK  139  A    between atoms: CB_472  and  CG2_478
REMARK  140  A    between atoms: N_483  and  CA_484
REMARK  141  A    between atoms: CA_484  and  C_486
REMARK  142  A    between atoms: CA_484  and  CB_488
REMARK  143  A    between atoms: CB_488  and  CG_491
REMARK  144  A    between atoms: CG_491  and  SD_494
REMARK  145  A    between atoms: SD_494  and  CE_495
REMARK  146  A    between atoms: N_500  and  CA_501
REMARK  147  A    between atoms: CA_501  and  C_503
REMARK  148  A    between atoms: CA_501  and  CB_505
REMARK  149  A    between atoms: N_510  and  CA_511
REMARK  150  A    between atoms: CA_511  and  C_513
REMARK  151  A    between atoms: CA_511  and  CB_515
REMARK  152  A    between atoms: CB_515  and  CG_518
REMARK  153  A    between atoms: CG_518  and  CD_521
REMARK  154  A    between atoms: N_527  and  CA_528
REMARK  155  A    between atoms: CA_528  and  C_530
REMARK  156  A    between atoms: CA_528  and  CB_532
REMARK  157  A    between atoms: CB_532  and  CG_535
REMARK  158  A    between atoms: CG_535  and  CD_538
REMARK  159  A    between atoms: N_544  and  CA_545
REMARK  160  A    between atoms: CA_545  and  C_547
REMARK  161  A    between atoms: CA_545  and  CB_549
REMARK  162  A    between atoms: CB_549  and  CG_552
REMARK  163  A    between atoms: N_561  and  CA_562
REMARK  164  A    between atoms: CA_562  and  C_564
REMARK  165  A    between atoms: CA_562  and  CB_566
REMARK  166  A    between atoms: CB_566  and  CG_569
REMARK  167  A    between atoms: CZ_578  and  OH_579
REMARK  168  A    between atoms: N_582  and  CA_583
REMARK  169  A    between atoms: CA_583  and  C_585
REMARK  170  A    between atoms: CA_583  and  CB_587
REMARK  171  A    between atoms: CB_587  and  CG1_589
REMARK  172  A    between atoms: CB_587  and  CG2_593
REMARK  173  A    between atoms: N_598  and  CA_599
REMARK  174  A    between atoms: CA_599  and  C_602
REMARK  175  A    between atoms: N_605  and  CA_606
REMARK  176  A    between atoms: CA_606  and  C_608
REMARK  177  A    between atoms: CA_606  and  CB_610
REMARK  178  A    between atoms: CB_610  and  CG_613
REMARK  179  A    between atoms: CG_613  and  CD_616
REMARK  180  A    between atoms: CD_616  and  CE_619
REMARK  181  A    between atoms: CE_619  and  NZ_622
REMARK  182  A    between atoms: N_627  and  CA_628
REMARK  183  A    between atoms: CA_628  and  C_630
REMARK  184  A    between atoms: CA_628  and  CB_632
REMARK  185  A    between atoms: CB_632  and  CG_635
REMARK  186  A    between atoms: CG_635  and  CD_638
REMARK  187  A    between atoms: CD_638  and  CE_641
REMARK  188  A    between atoms: CE_641  and  NZ_644
REMARK  189  A    between atoms: N_649  and  CA_650
REMARK  190  A    between atoms: CA_650  and  C_652
REMARK  191  A    between atoms: CA_650  and  CB_654
REMARK  192  A    between atoms: CB_654  and  CG_657
REMARK  193  A    between atoms: N_666  and  CA_667
REMARK  194  A    between atoms: CA_667  and  C_669
REMARK  195  A    between atoms: CA_667  and  CB_671
REMARK  196  A    between atoms: CB_671  and  CG_674
REMARK  197  A    between atoms: CG_674  and  CD_677
REMARK  198  A    between atoms: CD_677  and  NE_680
REMARK  199  A    between atoms: N_690  and  CA_691
REMARK  200  A    between atoms: CA_691  and  C_693
REMARK  201  A    between atoms: CA_691  and  CB_695
REMARK  202  A    between atoms: CB_695  and  CG_698
REMARK  203  A    between atoms: CG_698  and  CD_701
REMARK  204  A    between atoms: CD_701  and  CE_704
REMARK  205  A    between atoms: CE_704  and  NZ_707
REMARK  206  A    between atoms: N_712  and  CA_713
REMARK  207  A    between atoms: CA_713  and  C_715
REMARK  208  A    between atoms: CA_713  and  CB_717
REMARK  209  A    between atoms: CB_717  and  CG_720
REMARK  210  A    between atoms: CG_720  and  CD_723
REMARK  211  A    between atoms: N_729  and  CA_730
REMARK  212  A    between atoms: CA_730  and  C_732
REMARK  213  A    between atoms: CA_730  and  CB_734
REMARK  214  A    between atoms: CB_734  and  CG_737
REMARK  215  A    between atoms: CG_737  and  CD_740
REMARK  216  A    between atoms: N_744  and  CA_745
REMARK  217  A    between atoms: CA_745  and  C_747
REMARK  218  A    between atoms: CA_745  and  CB_749
REMARK  219  A    between atoms: CB_749  and  OG1_751
REMARK  220  A    between atoms: CB_749  and  CG2_752
REMARK  221  A    between atoms: N_758  and  CA_759
REMARK  222  A    between atoms: CA_759  and  C_761
REMARK  223  A    between atoms: CA_759  and  CB_763
REMARK  224  A    between atoms: CB_763  and  CG_766
REMARK  225  A    between atoms: CG_766  and  CD_769
REMARK  226  A    between atoms: CD_769  and  CE_772
REMARK  227  A    between atoms: CE_772  and  NZ_775
REMARK  228  A    between atoms: N_780  and  CA_781
REMARK  229  A    between atoms: CA_781  and  C_783
REMARK  230  A    between atoms: CA_781  and  CB_785
REMARK  231  A    between atoms: CB_785  and  CG_788
REMARK  232  A    between atoms: CG_788  and  CD1_790
REMARK  233  A    between atoms: CG_788  and  CD2_794
REMARK  234  A    between atoms: N_799  and  CA_800
REMARK  235  A    between atoms: CA_800  and  C_802
REMARK  236  A    between atoms: CA_800  and  CB_804
REMARK  237  A    between atoms: CB_804  and  CG_807
REMARK  238  A    between atoms: CG_807  and  CD_810
REMARK  239  A    between atoms: CD_810  and  CE_813
REMARK  240  A    between atoms: CE_813  and  NZ_816
REMARK  241  A    between atoms: N_821  and  CA_822
REMARK  242  A    between atoms: CA_822  and  C_824
REMARK  243  A    between atoms: CA_822  and  CB_826
REMARK  244  A    between atoms: CB_826  and  CG_829
REMARK  245  A    between atoms: CG_829  and  CD1_831
REMARK  246  A    between atoms: CG_829  and  CD2_835
REMARK  247  A    between atoms: N_840  and  CA_841
REMARK  248  A    between atoms: CA_841  and  C_843
REMARK  249  A    between atoms: CA_841  and  CB_845
REMARK  250  A    between atoms: CB_845  and  CG_848
REMARK  251  A    between atoms: CG_848  and  SD_851
REMARK  252  A    between atoms: SD_851  and  CE_852
REMARK  253  A    between atoms: N_857  and  CA_858
REMARK  254  A    between atoms: CA_858  and  C_860
REMARK  255  A    between atoms: CA_858  and  CB_862
REMARK  256  A    between atoms: N_867  and  CA_868
REMARK  257  A    between atoms: CA_868  and  C_870
REMARK  258  A    between atoms: CA_868  and  CB_872
REMARK  259  A    between atoms: CB_872  and  CG_875
REMARK  260  A    between atoms: CG_875  and  CD_878
REMARK  261  A    between atoms: CD_878  and  NE_881
REMARK  262  A    between atoms: N_891  and  CA_892
REMARK  263  A    between atoms: CA_892  and  C_894
REMARK  264  A    between atoms: CA_892  and  CB_896
REMARK  265  A    between atoms: CB_896  and  CG_899
REMARK  266  A    between atoms: CZ_908  and  OH_909
REMARK  267  A    between atoms: N_912  and  CA_913
REMARK  268  A    between atoms: CA_913  and  C_916
REMARK  269  A    between atoms: N_919  and  CA_920
REMARK  270  A    between atoms: CA_920  and  CB_924
REMARK  271  A    between atoms: O_923  and  N_943
REMARK  272  A    between atoms: CB_924  and  CG_927
REMARK  273  A    between atoms: CG_927  and  CD_930
REMARK  274  A    between atoms: CD_930  and  NE_933
REMARK  275  A    between atoms: N_943  and  CA_945
REMARK  276  A    between atoms: CA_945  and  CB_947
REMARK  277  A    between atoms: CA_945  and  C_960
REMARK  278  A    between atoms: CB_947  and  CG_950
REMARK  279  A    between atoms: CG_950  and  CD1_952
REMARK  280  A    between atoms: CG_950  and  CD2_956
REMARK  281  A    between atoms: N_962  and  CA_964
REMARK  282  A    between atoms: CA_964  and  CB_966
REMARK  283  A    between atoms: CA_964  and  C_970
REMARK  284  A    between atoms: N_972  and  CA_974
REMARK  285  A    between atoms: CA_974  and  CB_976
REMARK  286  A    between atoms: CA_974  and  C_982
REMARK  287  A    between atoms: CB_976  and  CG_979
REMARK  288  A    between atoms: O5'_985  and  C5'_986
REMARK  289  A    between atoms: C5'_986  and  C4'_987
REMARK  290  A    between atoms: C3'_989  and  O3'_990
REMARK  291  A    between atoms: O3'_990  and  P_1017
REMARK  292  A    between atoms: C2'_991  and  O2'_992
REMARK  293  A    between atoms: C1'_993  and  N9_994
REMARK  294  A    between atoms: P_1017  and  O5'_1020
REMARK  295  A    between atoms: O5'_1020  and  C5'_1021
REMARK  296  A    between atoms: C5'_1021  and  C4'_1022
REMARK  297  A    between atoms: C3'_1024  and  O3'_1025
REMARK  298  A    between atoms: O3'_1025  and  P_1048
REMARK  299  A    between atoms: C2'_1026  and  O2'_1027
REMARK  300  A    between atoms: C1'_1028  and  N1_1029
REMARK  301  A    between atoms: P_1048  and  O5'_1051
REMARK  302  A    between atoms: O5'_1051  and  C5'_1052
REMARK  303  A    between atoms: C5'_1052  and  C4'_1053
REMARK  304  A    between atoms: C3'_1055  and  O3'_1056
REMARK  305  A    between atoms: O3'_1056  and  P_1079
REMARK  306  A    between atoms: C2'_1057  and  O2'_1058
REMARK  307  A    between atoms: C1'_1059  and  N1_1060
REMARK  308  A    between atoms: P_1079  and  O5'_1082
REMARK  309  A    between atoms: O5'_1082  and  C5'_1083
REMARK  310  A    between atoms: C5'_1083  and  C4'_1084
REMARK  311  A    between atoms: C3'_1086  and  O3'_1087
REMARK  312  A    between atoms: O3'_1087  and  P_1113
REMARK  313  A    between atoms: C2'_1088  and  O2'_1089
REMARK  314  A    between atoms: C1'_1090  and  N9_1091
REMARK  315  A    between atoms: P_1113  and  O5'_1116
REMARK  316  A    between atoms: O5'_1116  and  C5'_1117
REMARK  317  A    between atoms: C5'_1117  and  C4'_1118
REMARK  318  A    between atoms: C3'_1120  and  O3'_1121
REMARK  319  A    between atoms: O3'_1121  and  P_1143
REMARK  320  A    between atoms: C2'_1122  and  O2'_1123
REMARK  321  A    between atoms: C1'_1124  and  N1_1125
REMARK  322  A    between atoms: P_1143  and  O5'_1146
REMARK  323  A    between atoms: O5'_1146  and  C5'_1147
REMARK  324  A    between atoms: C5'_1147  and  C4'_1148
REMARK  325  A    between atoms: C3'_1150  and  O3'_1151
REMARK  326  A    between atoms: O3'_1151  and  P_1177
REMARK  327  A    between atoms: C2'_1152  and  O2'_1153
REMARK  328  A    between atoms: C1'_1154  and  N9_1155
REMARK  329  A    between atoms: P_1177  and  O5'_1180
REMARK  330  A    between atoms: O5'_1180  and  C5'_1181
REMARK  331  A    between atoms: C5'_1181  and  C4'_1182
REMARK  332  A    between atoms: C3'_1184  and  O3'_1185
REMARK  333  A    between atoms: O3'_1185  and  P_1211
REMARK  334  A    between atoms: C2'_1186  and  O2'_1187
REMARK  335  A    between atoms: C1'_1188  and  N9_1189
REMARK  336  A    between atoms: P_1211  and  O5'_1214
REMARK  337  A    between atoms: O5'_1214  and  C5'_1215
REMARK  338  A    between atoms: C5'_1215  and  C4'_1216
REMARK  339  A    between atoms: C3'_1218  and  O3'_1219
REMARK  340  A    between atoms: O3'_1219  and  P_1241
REMARK  341  A    between atoms: C2'_1220  and  O2'_1221
REMARK  342  A    between atoms: C1'_1222  and  N1_1223
REMARK  343  A    between atoms: P_1241  and  O5'_1244
REMARK  344  A    between atoms: O5'_1244  and  C5'_1245
REMARK  345  A    between atoms: C5'_1245  and  C4'_1246
REMARK  346  A    between atoms: C3'_1248  and  O3'_1249
REMARK  347  A    between atoms: O3'_1249  and  P_1272
REMARK  348  A    between atoms: C2'_1250  and  O2'_1251
REMARK  349  A    between atoms: C1'_1252  and  N1_1253
REMARK  350  A    between atoms: P_1272  and  O5'_1275
REMARK  351  A    between atoms: O5'_1275  and  C5'_1276
REMARK  352  A    between atoms: C5'_1276  and  C4'_1277
REMARK  353  A    between atoms: C3'_1279  and  O3'_1280
REMARK  354  A    between atoms: O3'_1280  and  P_1302
REMARK  355  A    between atoms: C2'_1281  and  O2'_1282
REMARK  356  A    between atoms: C1'_1283  and  N1_1284
REMARK  357  A    between atoms: P_1302  and  O5'_1305
REMARK  358  A    between atoms: O5'_1305  and  C5'_1306
REMARK  359  A    between atoms: C5'_1306  and  C4'_1307
REMARK  360  A    between atoms: C3'_1309  and  O3'_1310
REMARK  361  A    between atoms: O3'_1310  and  P_1336
REMARK  362  A    between atoms: C2'_1311  and  O2'_1312
REMARK  363  A    between atoms: C1'_1313  and  N9_1314
REMARK  364  A    between atoms: P_1336  and  O5'_1339
REMARK  365  A    between atoms: O5'_1339  and  C5'_1340
REMARK  366  A    between atoms: C5'_1340  and  C4'_1341
REMARK  367  A    between atoms: C3'_1343  and  O3'_1344
REMARK  368  A    between atoms: O3'_1344  and  P_1370
REMARK  369  A    between atoms: C2'_1345  and  O2'_1346
REMARK  370  A    between atoms: C1'_1347  and  N9_1348
REMARK  371  A    between atoms: P_1370  and  O5'_1373
REMARK  372  A    between atoms: O5'_1373  and  C5'_1374
REMARK  373  A    between atoms: C5'_1374  and  C4'_1375
REMARK  374  A    between atoms: C3'_1377  and  O3'_1378
REMARK  375  A    between atoms: O3'_1378  and  P_1400
REMARK  376  A    between atoms: C2'_1379  and  O2'_1380
REMARK  377  A    between atoms: C1'_1381  and  N1_1382
REMARK  378  A    between atoms: P_1400  and  O5'_1403
REMARK  379  A    between atoms: O5'_1403  and  C5'_1404
REMARK  380  A    between atoms: C5'_1404  and  C4'_1405
REMARK  381  A    between atoms: C3'_1407  and  O3'_1408
REMARK  382  A    between atoms: O3'_1408  and  P_1434
REMARK  383  A    between atoms: C2'_1409  and  O2'_1410
REMARK  384  A    between atoms: C1'_1411  and  N9_1412
REMARK  385  A    between atoms: P_1434  and  O5'_1437
REMARK  386  A    between atoms: O5'_1437  and  C5'_1438
REMARK  387  A    between atoms: C5'_1438  and  C4'_1439
REMARK  388  A    between atoms: C3'_1441  and  O3'_1442
REMARK  389  A    between atoms: O3'_1442  and  P_1468
REMARK  390  A    between atoms: C2'_1443  and  O2'_1444
REMARK  391  A    between atoms: C1'_1445  and  N9_1446
REMARK  392  A    between atoms: P_1468  and  O5'_1471
REMARK  393  A    between atoms: O5'_1471  and  C5'_1472
REMARK  394  A    between atoms: C5'_1472  and  C4'_1473
REMARK  395  A    between atoms: C3'_1475  and  O3'_1476
REMARK  396  A    between atoms: O3'_1476  and  P_1499
REMARK  397  A    between atoms: C2'_1477  and  O2'_1478
REMARK  398  A    between atoms: C1'_1479  and  N1_1480
REMARK  399  A    between atoms: P_1499  and  O5'_1502
REMARK  400  A    between atoms: O5'_1502  and  C5'_1503
REMARK  401  A    between atoms: C5'_1503  and  C4'_1504
REMARK  402  A    between atoms: C3'_1506  and  O3'_1507
REMARK  403  A    between atoms: O3'_1507  and  P_1530
REMARK  404  A    between atoms: C2'_1508  and  O2'_1509
REMARK  405  A    between atoms: C1'_1510  and  N1_1511
REMARK  406  A    between atoms: P_1530  and  O5'_1533
REMARK  407  A    between atoms: O5'_1533  and  C5'_1534
REMARK  408  A    between atoms: C5'_1534  and  C4'_1535
REMARK  409  A    between atoms: C3'_1537  and  O3'_1538
REMARK  410  A    between atoms: O3'_1538  and  P_1564
REMARK  411  A    between atoms: C2'_1539  and  O2'_1540
REMARK  412  A    between atoms: C1'_1541  and  N9_1542
REMARK  413  A    between atoms: P_1564  and  O5'_1567
REMARK  414  A    between atoms: O5'_1567  and  C5'_1568
REMARK  415  A    between atoms: C5'_1568  and  C4'_1569
REMARK  416  A    between atoms: C3'_1571  and  O3'_1572
REMARK  417  A    between atoms: C2'_1574  and  O2'_1575
REMARK  418  A    between atoms: C1'_1576  and  N9_1577
REMARK  419  A    between atoms: O5'_1602  and  C5'_1604
REMARK  420  A    between atoms: C5'_1604  and  C4'_1605
REMARK  421  A    between atoms: C3'_1607  and  O3'_1608
REMARK  422  A    between atoms: O3'_1608  and  P_1631
REMARK  423  A    between atoms: C2'_1609  and  O2'_1610
REMARK  424  A    between atoms: C1'_1611  and  N1_1612
REMARK  425  A    between atoms: P_1631  and  O5'_1634
REMARK  426  A    between atoms: O5'_1634  and  C5'_1635
REMARK  427  A    between atoms: C5'_1635  and  C4'_1636
REMARK  428  A    between atoms: C3'_1638  and  O3'_1639
REMARK  429  A    between atoms: O3'_1639  and  P_1662
REMARK  430  A    between atoms: C2'_1640  and  O2'_1641
REMARK  431  A    between atoms: C1'_1642  and  N1_1643
REMARK  432  A    between atoms: P_1662  and  O5'_1665
REMARK  433  A    between atoms: O5'_1665  and  C5'_1666
REMARK  434  A    between atoms: C5'_1666  and  C4'_1667
REMARK  435  A    between atoms: C3'_1669  and  O3'_1670
REMARK  436  A    between atoms: O3'_1670  and  P_1696
REMARK  437  A    between atoms: C2'_1671  and  O2'_1672
REMARK  438  A    between atoms: C1'_1673  and  N9_1674
REMARK  439  A    between atoms: P_1696  and  O5'_1699
REMARK  440  A    between atoms: O5'_1699  and  C5'_1700
REMARK  441  A    between atoms: C5'_1700  and  C4'_1701
REMARK  442  A    between atoms: C3'_1703  and  O3'_1704
REMARK  443  A    between atoms: O3'_1704  and  P_1730
REMARK  444  A    between atoms: C2'_1705  and  O2'_1706
REMARK  445  A    between atoms: C1'_1707  and  N9_1708
REMARK  446  A    between atoms: P_1730  and  O5'_1733
REMARK  447  A    between atoms: O5'_1733  and  C5'_1734
REMARK  448  A    between atoms: C5'_1734  and  C4'_1735
REMARK  449  A    between atoms: C3'_1737  and  O3'_1738
REMARK  450  A    between atoms: O3'_1738  and  P_1761
REMARK  451  A    between atoms: C2'_1739  and  O2'_1740
REMARK  452  A    between atoms: C1'_1741  and  N1_1742
REMARK  453  A    between atoms: P_1761  and  O5'_1764
REMARK  454  A    between atoms: O5'_1764  and  C5'_1765
REMARK  455  A    between atoms: C5'_1765  and  C4'_1766
REMARK  456  A    between atoms: C3'_1768  and  O3'_1769
REMARK  457  A    between atoms: O3'_1769  and  P_1792
REMARK  458  A    between atoms: C2'_1770  and  O2'_1771
REMARK  459  A    between atoms: C1'_1772  and  N1_1773
REMARK  460  A    between atoms: P_1792  and  O5'_1795
REMARK  461  A    between atoms: O5'_1795  and  C5'_1796
REMARK  462  A    between atoms: C5'_1796  and  C4'_1797
REMARK  463  A    between atoms: C3'_1799  and  O3'_1800
REMARK  464  A    between atoms: O3'_1800  and  P_1825
REMARK  465  A    between atoms: C2'_1801  and  O2'_1802
REMARK  466  A    between atoms: C1'_1803  and  N9_1804
REMARK  467  A    between atoms: C6_1808  and  N6_1809
REMARK  468  A    between atoms: P_1825  and  O5'_1828
REMARK  469  A    between atoms: O5'_1828  and  C5'_1829
REMARK  470  A    between atoms: C5'_1829  and  C4'_1830
REMARK  471  A    between atoms: C3'_1832  and  O3'_1833
REMARK  472  A    between atoms: O3'_1833  and  P_1856
REMARK  473  A    between atoms: C2'_1834  and  O2'_1835
REMARK  474  A    between atoms: C1'_1836  and  N1_1837
REMARK  475  A    between atoms: P_1856  and  O5'_1859
REMARK  476  A    between atoms: O5'_1859  and  C5'_1860
REMARK  477  A    between atoms: C5'_1860  and  C4'_1861
REMARK  478  A    between atoms: C3'_1863  and  O3'_1864
REMARK  479  A    between atoms: O3'_1864  and  P_1887
REMARK  480  A    between atoms: C2'_1865  and  O2'_1866
REMARK  481  A    between atoms: C1'_1867  and  N1_1868
REMARK  482  A    between atoms: P_1887  and  O5'_1890
REMARK  483  A    between atoms: O5'_1890  and  C5'_1891
REMARK  484  A    between atoms: C5'_1891  and  C4'_1892
REMARK  485  A    between atoms: C3'_1894  and  O3'_1895
REMARK  486  A    between atoms: O3'_1895  and  P_1920
REMARK  487  A    between atoms: C2'_1896  and  O2'_1897
REMARK  488  A    between atoms: C1'_1898  and  N9_1899
REMARK  489  A    between atoms: C6_1903  and  N6_1904
REMARK  490  A    between atoms: P_1920  and  O5'_1923
REMARK  491  A    between atoms: O5'_1923  and  C5'_1924
REMARK  492  A    between atoms: C5'_1924  and  C4'_1925
REMARK  493  A    between atoms: C3'_1927  and  O3'_1928
REMARK  494  A    between atoms: O3'_1928  and  P_1954
REMARK  495  A    between atoms: C2'_1929  and  O2'_1930
REMARK  496  A    between atoms: C1'_1931  and  N9_1932
REMARK  497  A    between atoms: P_1954  and  O5'_1957
REMARK  498  A    between atoms: O5'_1957  and  C5'_1958
REMARK  499  A    between atoms: C5'_1958  and  C4'_1959
REMARK  500  A    between atoms: C3'_1961  and  O3'_1962
REMARK  501  A    between atoms: O3'_1962  and  P_1987
REMARK  502  A    between atoms: C2'_1963  and  O2'_1964
REMARK  503  A    between atoms: C1'_1965  and  N9_1966
REMARK  504  A    between atoms: C6_1970  and  N6_1971
REMARK  505  A    between atoms: P_1987  and  O5'_1990
REMARK  506  A    between atoms: O5'_1990  and  C5'_1991
REMARK  507  A    between atoms: C5'_1991  and  C4'_1992
REMARK  508  A    between atoms: C3'_1994  and  O3'_1995
REMARK  509  A    between atoms: O3'_1995  and  P_2018
REMARK  510  A    between atoms: C2'_1996  and  O2'_1997
REMARK  511  A    between atoms: C1'_1998  and  N1_1999
REMARK  512  A    between atoms: P_2018  and  O5'_2021
REMARK  513  A    between atoms: O5'_2021  and  C5'_2022
REMARK  514  A    between atoms: C5'_2022  and  C4'_2023
REMARK  515  A    between atoms: C3'_2025  and  O3'_2026
REMARK  516  A    between atoms: O3'_2026  and  P_2049
REMARK  517  A    between atoms: C2'_2027  and  O2'_2028
REMARK  518  A    between atoms: C1'_2029  and  N1_2030
REMARK  519  A    between atoms: P_2049  and  O5'_2052
REMARK  520  A    between atoms: O5'_2052  and  C5'_2053
REMARK  521  A    between atoms: C5'_2053  and  C4'_2054
REMARK  522  A    between atoms: C3'_2056  and  O3'_2057
REMARK  523  A    between atoms: O3'_2057  and  P_2082
REMARK  524  A    between atoms: C2'_2058  and  O2'_2059
REMARK  525  A    between atoms: C1'_2060  and  N9_2061
REMARK  526  A    between atoms: C6_2065  and  N6_2066
REMARK  527  A    between atoms: P_2082  and  O5'_2085
REMARK  528  A    between atoms: O5'_2085  and  C5'_2086
REMARK  529  A    between atoms: C5'_2086  and  C4'_2087
REMARK  530  A    between atoms: C3'_2089  and  O3'_2090
REMARK  531  A    between atoms: O3'_2090  and  P_2113
REMARK  532  A    between atoms: C2'_2091  and  O2'_2092
REMARK  533  A    between atoms: C1'_2093  and  N1_2094
REMARK  534  A    between atoms: P_2113  and  O5'_2116
REMARK  535  A    between atoms: O5'_2116  and  C5'_2117
REMARK  536  A    between atoms: C5'_2117  and  C4'_2118
REMARK  537  A    between atoms: C3'_2120  and  O3'_2121
REMARK  538  A    between atoms: O3'_2121  and  P_2147
REMARK  539  A    between atoms: C2'_2122  and  O2'_2123
REMARK  540  A    between atoms: C1'_2124  and  N9_2125
REMARK  541  A    between atoms: P_2147  and  O5'_2150
REMARK  542  A    between atoms: O5'_2150  and  C5'_2151
REMARK  543  A    between atoms: C5'_2151  and  C4'_2152
REMARK  544  A    between atoms: C3'_2154  and  O3'_2155
REMARK  545  A    between atoms: O3'_2155  and  P_2181
REMARK  546  A    between atoms: C2'_2156  and  O2'_2157
REMARK  547  A    between atoms: C1'_2158  and  N9_2159
REMARK  548  A    between atoms: P_2181  and  O5'_2184
REMARK  549  A    between atoms: O5'_2184  and  C5'_2185
REMARK  550  A    between atoms: C5'_2185  and  C4'_2186
REMARK  551  A    between atoms: C3'_2188  and  O3'_2189
REMARK  552  A    between atoms: C2'_2190  and  O2'_2191
REMARK  553  A    between atoms: C1'_2192  and  N1_2193
REMARK                            x       y       z     vdW  Elec       q    Type
REMARK                         _______ _______ _______ _____ _____    ______ ____
ROOT
ATOM      1  C   MET A  13      21.478 -11.699   1.717  0.00  0.00    +0.000 C 
ATOM      2  O   MET A  13      21.374 -10.969   2.701  0.00  0.00    +0.000 OA
ENDROOT
TORSDOF 0
REMARK  Name = /Users/acegid/Desktop/Smoking_Research/Docking/Docking_All_PDB/All_PDB/2MKN_H.pdb
REMARK  553 active torsions:
REMARK  status: ('A' for Active; 'I' for Inactive)
REMARK    1  A    between atoms: N_1  and  CA_5
REMARK    2  A    between atoms: CA_5  and  CB_7
REMARK    3  A    between atoms: CA_5  and  C_12
REMARK    4  A    between atoms: CB_7  and  OG_10
REMARK    5  A    between atoms: C_12  and  N_14
REMARK    6  A    between atoms: N_14  and  CA_16
REMARK    7  A    between atoms: CA_16  and  CB_18
REMARK    8  A    between atoms: CA_16  and  C_26
REMARK    9  A    between atoms: CB_18  and  CG2_20
REMARK   10  A    between atoms: CB_18  and  OG1_24
REMARK   11  A    between atoms: N_28  and  CA_30
REMARK   12  A    between atoms: CA_30  and  CB_32
REMARK   13  A    between atoms: CA_30  and  C_48
REMARK   14  A    between atoms: CB_32  and  CG_35
REMARK   15  A    between atoms: CG_35  and  CD_38
REMARK   16  A    between atoms: CD_38  and  CE_41
REMARK   17  A    between atoms: CE_41  and  NZ_44
REMARK   18  A    between atoms: C_48  and  N_50
REMARK   19  A    between atoms: N_50  and  CA_52
REMARK   20  A    between atoms: CA_52  and  CB_54
REMARK   21  A    between atoms: CA_52  and  C_64
REMARK   22  A    between atoms: CB_54  and  CG1_56
REMARK   23  A    between atoms: CB_54  and  CG2_60
REMARK   24  A    between atoms: N_66  and  CA_68
REMARK   25  A    between atoms: CA_68  and  CB_70
REMARK   26  A    between atoms: CA_68  and  C_79
REMARK   27  A    between atoms: CB_70  and  CG_73
REMARK   28  A    between atoms: CG_73  and  CD_76
REMARK   29  A    between atoms: N_81  and  CA_83
REMARK   30  A    between atoms: CA_83  and  CB_85
REMARK   31  A    between atoms: CA_83  and  C_89
REMARK   32  A    between atoms: N_91  and  CA_93
REMARK   33  A    between atoms: CA_93  and  CB_95
REMARK   34  A    between atoms: CA_93  and  C_108
REMARK   35  A    between atoms: CB_95  and  CG_98
REMARK   36  A    between atoms: CG_98  and  CD1_100
REMARK   37  A    between atoms: CG_98  and  CD2_104
REMARK   38  A    between atoms: C_108  and  N_110
REMARK   39  A    between atoms: N_110  and  CA_112
REMARK   40  A    between atoms: CA_112  and  CB_114
REMARK   41  A    between atoms: CA_112  and  C_125
REMARK   42  A    between atoms: CB_114  and  CG_117
REMARK   43  A    between atoms: N_127  and  CA_129
REMARK   44  A    between atoms: CA_129  and  CB_131
REMARK   45  A    between atoms: CA_129  and  C_142
REMARK   46  A    between atoms: CB_131  and  CG_134
REMARK   47  A    between atoms: CG_134  and  CD_137
REMARK   48  A    between atoms: N_144  and  CA_146
REMARK   49  A    between atoms: CA_146  and  CB_148
REMARK   50  A    between atoms: CB_148  and  CG_151
REMARK   51  A    between atoms: N_158  and  CA_160
REMARK   52  A    between atoms: CA_160  and  CB_162
REMARK   53  A    between atoms: CA_160  and  C_180
REMARK   54  A    between atoms: CB_162  and  CG_165
REMARK   55  A    between atoms: CG_165  and  CD_168
REMARK   56  A    between atoms: CD_168  and  NE_171
REMARK   57  A    between atoms: N_182  and  CA_184
REMARK   58  A    between atoms: CA_184  and  CB_186
REMARK   59  A    between atoms: CA_184  and  C_195
REMARK   60  A    between atoms: CB_186  and  CG_189
REMARK   61  A    between atoms: CG_189  and  CD_192
REMARK   62  A    between atoms: N_197  and  CA_199
REMARK   63  A    between atoms: CA_199  and  CB_201
REMARK   64  A    between atoms: CB_201  and  CG_204
REMARK   65  A    between atoms: CG_204  and  SD_207
REMARK   66  A    between atoms: SD_207  and  CE_208
REMARK   67  A    between atoms: CA_215  and  C_217
REMARK   68  A    between atoms: CA_215  and  CB_219
REMARK   69  A    between atoms: CB_219  and  CG1_221
REMARK   70  A    between atoms: CB_219  and  CG2_224
REMARK   71  A    between atoms: CG1_221  and  CD1_228
REMARK   72  A    between atoms: N_233  and  CA_234
REMARK   73  A    between atoms: CA_234  and  C_236
REMARK   74  A    between atoms: CA_234  and  CB_238
REMARK   75  A    between atoms: CB_238  and  CG_241
REMARK   76  A    between atoms: CA_246  and  C_248
REMARK   77  A    between atoms: N_259  and  CA_260
REMARK   78  A    between atoms: CA_260  and  C_262
REMARK   79  A    between atoms: CA_260  and  CB_264
REMARK   80  A    between atoms: CB_264  and  CG_267
REMARK   81  A    between atoms: N_271  and  CA_272
REMARK   82  A    between atoms: CA_272  and  C_274
REMARK   83  A    between atoms: CA_272  and  CB_276
REMARK   84  A    between atoms: CB_276  and  CG_279
REMARK   85  A    between atoms: CG_279  and  CD_282
REMARK   86  A    between atoms: CD_282  and  CE_285
REMARK   87  A    between atoms: CE_285  and  NZ_288
REMARK   88  A    between atoms: N_293  and  CA_294
REMARK   89  A    between atoms: CA_294  and  C_296
REMARK   90  A    between atoms: CA_294  and  CB_298
REMARK   91  A    between atoms: CB_298  and  CG_301
REMARK   92  A    between atoms: N_313  and  CA_314
REMARK   93  A    between atoms: CA_314  and  C_316
REMARK   94  A    between atoms: CA_314  and  CB_318
REMARK   95  A    between atoms: CB_318  and  SG_321
REMARK   96  A    between atoms: N_324  and  CA_325
REMARK   97  A    between atoms: CA_325  and  C_327
REMARK   98  A    between atoms: CA_325  and  CB_329
REMARK   99  A    between atoms: CB_329  and  OG_332
REMARK  100  A    between atoms: N_335  and  CA_336
REMARK  101  A    between atoms: CA_336  and  C_338
REMARK  102  A    between atoms: CA_336  and  CB_340
REMARK  103  A    between atoms: CB_340  and  CG_343
REMARK  104  A    between atoms: CG_343  and  CD1_345
REMARK  105  A    between atoms: CG_343  and  CD2_349
REMARK  106  A    between atoms: N_354  and  CA_355
REMARK  107  A    between atoms: CA_355  and  C_357
REMARK  108  A    between atoms: CA_355  and  CB_359
REMARK  109  A    between atoms: CB_359  and  SG_362
REMARK  110  A    between atoms: N_365  and  CA_366
REMARK  111  A    between atoms: CA_366  and  C_368
REMARK  112  A    between atoms: CA_366  and  CB_370
REMARK  113  A    between atoms: CB_370  and  CG_373
REMARK  114  A    between atoms: N_383  and  CA_384
REMARK  115  A    between atoms: CA_384  and  C_386
REMARK  116  A    between atoms: CA_384  and  CB_388
REMARK  117  A    between atoms: N_393  and  CA_394
REMARK  118  A    between atoms: CA_394  and  C_396
REMARK  119  A    between atoms: CA_394  and  CB_398
REMARK  120  A    between atoms: CB_398  and  OG1_400
REMARK  121  A    between atoms: CB_398  and  CG2_401
REMARK  122  A    between atoms: N_407  and  CA_408
REMARK  123  A    between atoms: CA_408  and  C_410
REMARK  124  A    between atoms: CA_408  and  CB_412
REMARK  125  A    between atoms: CB_412  and  CG_415
REMARK  126  A    between atoms: N_427  and  CA_428
REMARK  127  A    between atoms: CA_428  and  C_430
REMARK  128  A    between atoms: CA_428  and  CB_432
REMARK  129  A    between atoms: CB_432  and  CG_435
REMARK  130  A    between atoms: N_441  and  CA_442
REMARK  131  A    between atoms: CA_442  and  C_444
REMARK  132  A    between atoms: CA_442  and  CB_446
REMARK  133  A    between atoms: CB_446  and  CG_449
REMARK  134  A    between atoms: CA_454  and  C_456
REMARK  135  A    between atoms: N_467  and  CA_468
REMARK  136  A    between atoms: CA_468  and  C_470
REMARK  137  A    between atoms: CA_468  and  CB_472
REMARK  138  A    between atoms: CB_472  and  CG1_474
REMARK  139  A    between atoms: CB_472  and  CG2_478
REMARK  140  A    between atoms: N_483  and  CA_484
REMARK  141  A    between atoms: CA_484  and  C_486
REMARK  142  A    between atoms: CA_484  and  CB_488
REMARK  143  A    between atoms: CB_488  and  CG_491
REMARK  144  A    between atoms: CG_491  and  SD_494
REMARK  145  A    between atoms: SD_494  and  CE_495
REMARK  146  A    between atoms: N_500  and  CA_501
REMARK  147  A    between atoms: CA_501  and  C_503
REMARK  148  A    between atoms: CA_501  and  CB_505
REMARK  149  A    between atoms: N_510  and  CA_511
REMARK  150  A    between atoms: CA_511  and  C_513
REMARK  151  A    between atoms: CA_511  and  CB_515
REMARK  152  A    between atoms: CB_515  and  CG_518
REMARK  153  A    between atoms: CG_518  and  CD_521
REMARK  154  A    between atoms: N_527  and  CA_528
REMARK  155  A    between atoms: CA_528  and  C_530
REMARK  156  A    between atoms: CA_528  and  CB_532
REMARK  157  A    between atoms: CB_532  and  CG_535
REMARK  158  A    between atoms: CG_535  and  CD_538
REMARK  159  A    between atoms: N_544  and  CA_545
REMARK  160  A    between atoms: CA_545  and  C_547
REMARK  161  A    between atoms: CA_545  and  CB_549
REMARK  162  A    between atoms: CB_549  and  CG_552
REMARK  163  A    between atoms: N_561  and  CA_562
REMARK  164  A    between atoms: CA_562  and  C_564
REMARK  165  A    between atoms: CA_562  and  CB_566
REMARK  166  A    between atoms: CB_566  and  CG_569
REMARK  167  A    between atoms: CZ_578  and  OH_579
REMARK  168  A    between atoms: N_582  and  CA_583
REMARK  169  A    between atoms: CA_583  and  C_585
REMARK  170  A    between atoms: CA_583  and  CB_587
REMARK  171  A    between atoms: CB_587  and  CG1_589
REMARK  172  A    between atoms: CB_587  and  CG2_593
REMARK  173  A    between atoms: N_598  and  CA_599
REMARK  174  A    between atoms: CA_599  and  C_602
REMARK  175  A    between atoms: N_605  and  CA_606
REMARK  176  A    between atoms: CA_606  and  C_608
REMARK  177  A    between atoms: CA_606  and  CB_610
REMARK  178  A    between atoms: CB_610  and  CG_613
REMARK  179  A    between atoms: CG_613  and  CD_616
REMARK  180  A    between atoms: CD_616  and  CE_619
REMARK  181  A    between atoms: CE_619  and  NZ_622
REMARK  182  A    between atoms: N_627  and  CA_628
REMARK  183  A    between atoms: CA_628  and  C_630
REMARK  184  A    between atoms: CA_628  and  CB_632
REMARK  185  A    between atoms: CB_632  and  CG_635
REMARK  186  A    between atoms: CG_635  and  CD_638
REMARK  187  A    between atoms: CD_638  and  CE_641
REMARK  188  A    between atoms: CE_641  and  NZ_644
REMARK  189  A    between atoms: N_649  and  CA_650
REMARK  190  A    between atoms: CA_650  and  C_652
REMARK  191  A    between atoms: CA_650  and  CB_654
REMARK  192  A    between atoms: CB_654  and  CG_657
REMARK  193  A    between atoms: N_666  and  CA_667
REMARK  194  A    between atoms: CA_667  and  C_669
REMARK  195  A    between atoms: CA_667  and  CB_671
REMARK  196  A    between atoms: CB_671  and  CG_674
REMARK  197  A    between atoms: CG_674  and  CD_677
REMARK  198  A    between atoms: CD_677  and  NE_680
REMARK  199  A    between atoms: N_690  and  CA_691
REMARK  200  A    between atoms: CA_691  and  C_693
REMARK  201  A    between atoms: CA_691  and  CB_695
REMARK  202  A    between atoms: CB_695  and  CG_698
REMARK  203  A    between atoms: CG_698  and  CD_701
REMARK  204  A    between atoms: CD_701  and  CE_704
REMARK  205  A    between atoms: CE_704  and  NZ_707
REMARK  206  A    between atoms: N_712  and  CA_713
REMARK  207  A    between atoms: CA_713  and  C_715
REMARK  208  A    between atoms: CA_713  and  CB_717
REMARK  209  A    between atoms: CB_717  and  CG_720
REMARK  210  A    between atoms: CG_720  and  CD_723
REMARK  211  A    between atoms: N_729  and  CA_730
REMARK  212  A    between atoms: CA_730  and  C_732
REMARK  213  A    between atoms: CA_730  and  CB_734
REMARK  214  A    between atoms: CB_734  and  CG_737
REMARK  215  A    between atoms: CG_737  and  CD_740
REMARK  216  A    between atoms: N_744  and  CA_745
REMARK  217  A    between atoms: CA_745  and  C_747
REMARK  218  A    between atoms: CA_745  and  CB_749
REMARK  219  A    between atoms: CB_749  and  OG1_751
REMARK  220  A    between atoms: CB_749  and  CG2_752
REMARK  221  A    between atoms: N_758  and  CA_759
REMARK  222  A    between atoms: CA_759  and  C_761
REMARK  223  A    between atoms: CA_759  and  CB_763
REMARK  224  A    between atoms: CB_763  and  CG_766
REMARK  225  A    between atoms: CG_766  and  CD_769
REMARK  226  A    between atoms: CD_769  and  CE_772
REMARK  227  A    between atoms: CE_772  and  NZ_775
REMARK  228  A    between atoms: N_780  and  CA_781
REMARK  229  A    between atoms: CA_781  and  C_783
REMARK  230  A    between atoms: CA_781  and  CB_785
REMARK  231  A    between atoms: CB_785  and  CG_788
REMARK  232  A    between atoms: CG_788  and  CD1_790
REMARK  233  A    between atoms: CG_788  and  CD2_794
REMARK  234  A    between atoms: N_799  and  CA_800
REMARK  235  A    between atoms: CA_800  and  C_802
REMARK  236  A    between atoms: CA_800  and  CB_804
REMARK  237  A    between atoms: CB_804  and  CG_807
REMARK  238  A    between atoms: CG_807  and  CD_810
REMARK  239  A    between atoms: CD_810  and  CE_813
REMARK  240  A    between atoms: CE_813  and  NZ_816
REMARK  241  A    between atoms: N_821  and  CA_822
REMARK  242  A    between atoms: CA_822  and  C_824
REMARK  243  A    between atoms: CA_822  and  CB_826
REMARK  244  A    between atoms: CB_826  and  CG_829
REMARK  245  A    between atoms: CG_829  and  CD1_831
REMARK  246  A    between atoms: CG_829  and  CD2_835
REMARK  247  A    between atoms: N_840  and  CA_841
REMARK  248  A    between atoms: CA_841  and  C_843
REMARK  249  A    between atoms: CA_841  and  CB_845
REMARK  250  A    between atoms: CB_845  and  CG_848
REMARK  251  A    between atoms: CG_848  and  SD_851
REMARK  252  A    between atoms: SD_851  and  CE_852
REMARK  253  A    between atoms: N_857  and  CA_858
REMARK  254  A    between atoms: CA_858  and  C_860
REMARK  255  A    between atoms: CA_858  and  CB_862
REMARK  256  A    between atoms: N_867  and  CA_868
REMARK  257  A    between atoms: CA_868  and  C_870
REMARK  258  A    between atoms: CA_868  and  CB_872
REMARK  259  A    between atoms: CB_872  and  CG_875
REMARK  260  A    between atoms: CG_875  and  CD_878
REMARK  261  A    between atoms: CD_878  and  NE_881
REMARK  262  A    between atoms: N_891  and  CA_892
REMARK  263  A    between atoms: CA_892  and  C_894
REMARK  264  A    between atoms: CA_892  and  CB_896
REMARK  265  A    between atoms: CB_896  and  CG_899
REMARK  266  A    between atoms: CZ_908  and  OH_909
REMARK  267  A    between atoms: N_912  and  CA_913
REMARK  268  A    between atoms: CA_913  and  C_916
REMARK  269  A    between atoms: N_919  and  CA_920
REMARK  270  A    between atoms: CA_920  and  CB_924
REMARK  271  A    between atoms: O_923  and  N_943
REMARK  272  A    between atoms: CB_924  and  CG_927
REMARK  273  A    between atoms: CG_927  and  CD_930
REMARK  274  A    between atoms: CD_930  and  NE_933
REMARK  275  A    between atoms: N_943  and  CA_945
REMARK  276  A    between atoms: CA_945  and  CB_947
REMARK  277  A    between atoms: CA_945  and  C_960
REMARK  278  A    between atoms: CB_947  and  CG_950
REMARK  279  A    between atoms: CG_950  and  CD1_952
REMARK  280  A    between atoms: CG_950  and  CD2_956
REMARK  281  A    between atoms: N_962  and  CA_964
REMARK  282  A    between atoms: CA_964  and  CB_966
REMARK  283  A    between atoms: CA_964  and  C_970
REMARK  284  A    between atoms: N_972  and  CA_974
REMARK  285  A    between atoms: CA_974  and  CB_976
REMARK  286  A    between atoms: CA_974  and  C_982
REMARK  287  A    between atoms: CB_976  and  CG_979
REMARK  288  A    between atoms: O5'_985  and  C5'_986
REMARK  289  A    between atoms: C5'_986  and  C4'_987
REMARK  290  A    between atoms: C3'_989  and  O3'_990
REMARK  291  A    between atoms: O3'_990  and  P_1017
REMARK  292  A    between atoms: C2'_991  and  O2'_992
REMARK  293  A    between atoms: C1'_993  and  N9_994
REMARK  294  A    between atoms: P_1017  and  O5'_1020
REMARK  295  A    between atoms: O5'_1020  and  C5'_1021
REMARK  296  A    between atoms: C5'_1021  and  C4'_1022
REMARK  297  A    between atoms: C3'_1024  and  O3'_1025
REMARK  298  A    between atoms: O3'_1025  and  P_1048
REMARK  299  A    between atoms: C2'_1026  and  O2'_1027
REMARK  300  A    between atoms: C1'_1028  and  N1_1029
REMARK  301  A    between atoms: P_1048  and  O5'_1051
REMARK  302  A    between atoms: O5'_1051  and  C5'_1052
REMARK  303  A    between atoms: C5'_1052  and  C4'_1053
REMARK  304  A    between atoms: C3'_1055  and  O3'_1056
REMARK  305  A    between atoms: O3'_1056  and  P_1079
REMARK  306  A    between atoms: C2'_1057  and  O2'_1058
REMARK  307  A    between atoms: C1'_1059  and  N1_1060
REMARK  308  A    between atoms: P_1079  and  O5'_1082
REMARK  309  A    between atoms: O5'_1082  and  C5'_1083
REMARK  310  A    between atoms: C5'_1083  and  C4'_1084
REMARK  311  A    between atoms: C3'_1086  and  O3'_1087
REMARK  312  A    between atoms: O3'_1087  and  P_1113
REMARK  313  A    between atoms: C2'_1088  and  O2'_1089
REMARK  314  A    between atoms: C1'_1090  and  N9_1091
REMARK  315  A    between atoms: P_1113  and  O5'_1116
REMARK  316  A    between atoms: O5'_1116  and  C5'_1117
REMARK  317  A    between atoms: C5'_1117  and  C4'_1118
REMARK  318  A    between atoms: C3'_1120  and  O3'_1121
REMARK  319  A    between atoms: O3'_1121  and  P_1143
REMARK  320  A    between atoms: C2'_1122  and  O2'_1123
REMARK  321  A    between atoms: C1'_1124  and  N1_1125
REMARK  322  A    between atoms: P_1143  and  O5'_1146
REMARK  323  A    between atoms: O5'_1146  and  C5'_1147
REMARK  324  A    between atoms: C5'_1147  and  C4'_1148
REMARK  325  A    between atoms: C3'_1150  and  O3'_1151
REMARK  326  A    between atoms: O3'_1151  and  P_1177
REMARK  327  A    between atoms: C2'_1152  and  O2'_1153
REMARK  328  A    between atoms: C1'_1154  and  N9_1155
REMARK  329  A    between atoms: P_1177  and  O5'_1180
REMARK  330  A    between atoms: O5'_1180  and  C5'_1181
REMARK  331  A    between atoms: C5'_1181  and  C4'_1182
REMARK  332  A    between atoms: C3'_1184  and  O3'_1185
REMARK  333  A    between atoms: O3'_1185  and  P_1211
REMARK  334  A    between atoms: C2'_1186  and  O2'_1187
REMARK  335  A    between atoms: C1'_1188  and  N9_1189
REMARK  336  A    between atoms: P_1211  and  O5'_1214
REMARK  337  A    between atoms: O5'_1214  and  C5'_1215
REMARK  338  A    between atoms: C5'_1215  and  C4'_1216
REMARK  339  A    between atoms: C3'_1218  and  O3'_1219
REMARK  340  A    between atoms: O3'_1219  and  P_1241
REMARK  341  A    between atoms: C2'_1220  and  O2'_1221
REMARK  342  A    between atoms: C1'_1222  and  N1_1223
REMARK  343  A    between atoms: P_1241  and  O5'_1244
REMARK  344  A    between atoms: O5'_1244  and  C5'_1245
REMARK  345  A    between atoms: C5'_1245  and  C4'_1246
REMARK  346  A    between atoms: C3'_1248  and  O3'_1249
REMARK  347  A    between atoms: O3'_1249  and  P_1272
REMARK  348  A    between atoms: C2'_1250  and  O2'_1251
REMARK  349  A    between atoms: C1'_1252  and  N1_1253
REMARK  350  A    between atoms: P_1272  and  O5'_1275
REMARK  351  A    between atoms: O5'_1275  and  C5'_1276
REMARK  352  A    between atoms: C5'_1276  and  C4'_1277
REMARK  353  A    between atoms: C3'_1279  and  O3'_1280
REMARK  354  A    between atoms: O3'_1280  and  P_1302
REMARK  355  A    between atoms: C2'_1281  and  O2'_1282
REMARK  356  A    between atoms: C1'_1283  and  N1_1284
REMARK  357  A    between atoms: P_1302  and  O5'_1305
REMARK  358  A    between atoms: O5'_1305  and  C5'_1306
REMARK  359  A    between atoms: C5'_1306  and  C4'_1307
REMARK  360  A    between atoms: C3'_1309  and  O3'_1310
REMARK  361  A    between atoms: O3'_1310  and  P_1336
REMARK  362  A    between atoms: C2'_1311  and  O2'_1312
REMARK  363  A    between atoms: C1'_1313  and  N9_1314
REMARK  364  A    between atoms: P_1336  and  O5'_1339
REMARK  365  A    between atoms: O5'_1339  and  C5'_1340
REMARK  366  A    between atoms: C5'_1340  and  C4'_1341
REMARK  367  A    between atoms: C3'_1343  and  O3'_1344
REMARK  368  A    between atoms: O3'_1344  and  P_1370
REMARK  369  A    between atoms: C2'_1345  and  O2'_1346
REMARK  370  A    between atoms: C1'_1347  and  N9_1348
REMARK  371  A    between atoms: P_1370  and  O5'_1373
REMARK  372  A    between atoms: O5'_1373  and  C5'_1374
REMARK  373  A    between atoms: C5'_1374  and  C4'_1375
REMARK  374  A    between atoms: C3'_1377  and  O3'_1378
REMARK  375  A    between atoms: O3'_1378  and  P_1400
REMARK  376  A    between atoms: C2'_1379  and  O2'_1380
REMARK  377  A    between atoms: C1'_1381  and  N1_1382
REMARK  378  A    between atoms: P_1400  and  O5'_1403
REMARK  379  A    between atoms: O5'_1403  and  C5'_1404
REMARK  380  A    between atoms: C5'_1404  and  C4'_1405
REMARK  381  A    between atoms: C3'_1407  and  O3'_1408
REMARK  382  A    between atoms: O3'_1408  and  P_1434
REMARK  383  A    between atoms: C2'_1409  and  O2'_1410
REMARK  384  A    between atoms: C1'_1411  and  N9_1412
REMARK  385  A    between atoms: P_1434  and  O5'_1437
REMARK  386  A    between atoms: O5'_1437  and  C5'_1438
REMARK  387  A    between atoms: C5'_1438  and  C4'_1439
REMARK  388  A    between atoms: C3'_1441  and  O3'_1442
REMARK  389  A    between atoms: O3'_1442  and  P_1468
REMARK  390  A    between atoms: C2'_1443  and  O2'_1444
REMARK  391  A    between atoms: C1'_1445  and  N9_1446
REMARK  392  A    between atoms: P_1468  and  O5'_1471
REMARK  393  A    between atoms: O5'_1471  and  C5'_1472
REMARK  394  A    between atoms: C5'_1472  and  C4'_1473
REMARK  395  A    between atoms: C3'_1475  and  O3'_1476
REMARK  396  A    between atoms: O3'_1476  and  P_1499
REMARK  397  A    between atoms: C2'_1477  and  O2'_1478
REMARK  398  A    between atoms: C1'_1479  and  N1_1480
REMARK  399  A    between atoms: P_1499  and  O5'_1502
REMARK  400  A    between atoms: O5'_1502  and  C5'_1503
REMARK  401  A    between atoms: C5'_1503  and  C4'_1504
REMARK  402  A    between atoms: C3'_1506  and  O3'_1507
REMARK  403  A    between atoms: O3'_1507  and  P_1530
REMARK  404  A    between atoms: C2'_1508  and  O2'_1509
REMARK  405  A    between atoms: C1'_1510  and  N1_1511
REMARK  406  A    between atoms: P_1530  and  O5'_1533
REMARK  407  A    between atoms: O5'_1533  and  C5'_1534
REMARK  408  A    between atoms: C5'_1534  and  C4'_1535
REMARK  409  A    between atoms: C3'_1537  and  O3'_1538
REMARK  410  A    between atoms: O3'_1538  and  P_1564
REMARK  411  A    between atoms: C2'_1539  and  O2'_1540
REMARK  412  A    between atoms: C1'_1541  and  N9_1542
REMARK  413  A    between atoms: P_1564  and  O5'_1567
REMARK  414  A    between atoms: O5'_1567  and  C5'_1568
REMARK  415  A    between atoms: C5'_1568  and  C4'_1569
REMARK  416  A    between atoms: C3'_1571  and  O3'_1572
REMARK  417  A    between atoms: C2'_1574  and  O2'_1575
REMARK  418  A    between atoms: C1'_1576  and  N9_1577
REMARK  419  A    between atoms: O5'_1602  and  C5'_1604
REMARK  420  A    between atoms: C5'_1604  and  C4'_1605
REMARK  421  A    between atoms: C3'_1607  and  O3'_1608
REMARK  422  A    between atoms: O3'_1608  and  P_1631
REMARK  423  A    between atoms: C2'_1609  and  O2'_1610
REMARK  424  A    between atoms: C1'_1611  and  N1_1612
REMARK  425  A    between atoms: P_1631  and  O5'_1634
REMARK  426  A    between atoms: O5'_1634  and  C5'_1635
REMARK  427  A    between atoms: C5'_1635  and  C4'_1636
REMARK  428  A    between atoms: C3'_1638  and  O3'_1639
REMARK  429  A    between atoms: O3'_1639  and  P_1662
REMARK  430  A    between atoms: C2'_1640  and  O2'_1641
REMARK  431  A    between atoms: C1'_1642  and  N1_1643
REMARK  432  A    between atoms: P_1662  and  O5'_1665
REMARK  433  A    between atoms: O5'_1665  and  C5'_1666
REMARK  434  A    between atoms: C5'_1666  and  C4'_1667
REMARK  435  A    between atoms: C3'_1669  and  O3'_1670
REMARK  436  A    between atoms: O3'_1670  and  P_1696
REMARK  437  A    between atoms: C2'_1671  and  O2'_1672
REMARK  438  A    between atoms: C1'_1673  and  N9_1674
REMARK  439  A    between atoms: P_1696  and  O5'_1699
REMARK  440  A    between atoms: O5'_1699  and  C5'_1700
REMARK  441  A    between atoms: C5'_1700  and  C4'_1701
REMARK  442  A    between atoms: C3'_1703  and  O3'_1704
REMARK  443  A    between atoms: O3'_1704  and  P_1730
REMARK  444  A    between atoms: C2'_1705  and  O2'_1706
REMARK  445  A    between atoms: C1'_1707  and  N9_1708
REMARK  446  A    between atoms: P_1730  and  O5'_1733
REMARK  447  A    between atoms: O5'_1733  and  C5'_1734
REMARK  448  A    between atoms: C5'_1734  and  C4'_1735
REMARK  449  A    between atoms: C3'_1737  and  O3'_1738
REMARK  450  A    between atoms: O3'_1738  and  P_1761
REMARK  451  A    between atoms: C2'_1739  and  O2'_1740
REMARK  452  A    between atoms: C1'_1741  and  N1_1742
REMARK  453  A    between atoms: P_1761  and  O5'_1764
REMARK  454  A    between atoms: O5'_1764  and  C5'_1765
REMARK  455  A    between atoms: C5'_1765  and  C4'_1766
REMARK  456  A    between atoms: C3'_1768  and  O3'_1769
REMARK  457  A    between atoms: O3'_1769  and  P_1792
REMARK  458  A    between atoms: C2'_1770  and  O2'_1771
REMARK  459  A    between atoms: C1'_1772  and  N1_1773
REMARK  460  A    between atoms: P_1792  and  O5'_1795
REMARK  461  A    between atoms: O5'_1795  and  C5'_1796
REMARK  462  A    between atoms: C5'_1796  and  C4'_1797
REMARK  463  A    between atoms: C3'_1799  and  O3'_1800
REMARK  464  A    between atoms: O3'_1800  and  P_1825
REMARK  465  A    between atoms: C2'_1801  and  O2'_1802
REMARK  466  A    between atoms: C1'_1803  and  N9_1804
REMARK  467  A    between atoms: C6_1808  and  N6_1809
REMARK  468  A    between atoms: P_1825  and  O5'_1828
REMARK  469  A    between atoms: O5'_1828  and  C5'_1829
REMARK  470  A    between atoms: C5'_1829  and  C4'_1830
REMARK  471  A    between atoms: C3'_1832  and  O3'_1833
REMARK  472  A    between atoms: O3'_1833  and  P_1856
REMARK  473  A    between atoms: C2'_1834  and  O2'_1835
REMARK  474  A    between atoms: C1'_1836  and  N1_1837
REMARK  475  A    between atoms: P_1856  and  O5'_1859
REMARK  476  A    between atoms: O5'_1859  and  C5'_1860
REMARK  477  A    between atoms: C5'_1860  and  C4'_1861
REMARK  478  A    between atoms: C3'_1863  and  O3'_1864
REMARK  479  A    between atoms: O3'_1864  and  P_1887
REMARK  480  A    between atoms: C2'_1865  and  O2'_1866
REMARK  481  A    between atoms: C1'_1867  and  N1_1868
REMARK  482  A    between atoms: P_1887  and  O5'_1890
REMARK  483  A    between atoms: O5'_1890  and  C5'_1891
REMARK  484  A    between atoms: C5'_1891  and  C4'_1892
REMARK  485  A    between atoms: C3'_1894  and  O3'_1895
REMARK  486  A    between atoms: O3'_1895  and  P_1920
REMARK  487  A    between atoms: C2'_1896  and  O2'_1897
REMARK  488  A    between atoms: C1'_1898  and  N9_1899
REMARK  489  A    between atoms: C6_1903  and  N6_1904
REMARK  490  A    between atoms: P_1920  and  O5'_1923
REMARK  491  A    between atoms: O5'_1923  and  C5'_1924
REMARK  492  A    between atoms: C5'_1924  and  C4'_1925
REMARK  493  A    between atoms: C3'_1927  and  O3'_1928
REMARK  494  A    between atoms: O3'_1928  and  P_1954
REMARK  495  A    between atoms: C2'_1929  and  O2'_1930
REMARK  496  A    between atoms: C1'_1931  and  N9_1932
REMARK  497  A    between atoms: P_1954  and  O5'_1957
REMARK  498  A    between atoms: O5'_1957  and  C5'_1958
REMARK  499  A    between atoms: C5'_1958  and  C4'_1959
REMARK  500  A    between atoms: C3'_1961  and  O3'_1962
REMARK  501  A    between atoms: O3'_1962  and  P_1987
REMARK  502  A    between atoms: C2'_1963  and  O2'_1964
REMARK  503  A    between atoms: C1'_1965  and  N9_1966
REMARK  504  A    between atoms: C6_1970  and  N6_1971
REMARK  505  A    between atoms: P_1987  and  O5'_1990
REMARK  506  A    between atoms: O5'_1990  and  C5'_1991
REMARK  507  A    between atoms: C5'_1991  and  C4'_1992
REMARK  508  A    between atoms: C3'_1994  and  O3'_1995
REMARK  509  A    between atoms: O3'_1995  and  P_2018
REMARK  510  A    between atoms: C2'_1996  and  O2'_1997
REMARK  511  A    between atoms: C1'_1998  and  N1_1999
REMARK  512  A    between atoms: P_2018  and  O5'_2021
REMARK  513  A    between atoms: O5'_2021  and  C5'_2022
REMARK  514  A    between atoms: C5'_2022  and  C4'_2023
REMARK  515  A    between atoms: C3'_2025  and  O3'_2026
REMARK  516  A    between atoms: O3'_2026  and  P_2049
REMARK  517  A    between atoms: C2'_2027  and  O2'_2028
REMARK  518  A    between atoms: C1'_2029  and  N1_2030
REMARK  519  A    between atoms: P_2049  and  O5'_2052
REMARK  520  A    between atoms: O5'_2052  and  C5'_2053
REMARK  521  A    between atoms: C5'_2053  and  C4'_2054
REMARK  522  A    between atoms: C3'_2056  and  O3'_2057
REMARK  523  A    between atoms: O3'_2057  and  P_2082
REMARK  524  A    between atoms: C2'_2058  and  O2'_2059
REMARK  525  A    between atoms: C1'_2060  and  N9_2061
REMARK  526  A    between atoms: C6_2065  and  N6_2066
REMARK  527  A    between atoms: P_2082  and  O5'_2085
REMARK  528  A    between atoms: O5'_2085  and  C5'_2086
REMARK  529  A    between atoms: C5'_2086  and  C4'_2087
REMARK  530  A    between atoms: C3'_2089  and  O3'_2090
REMARK  531  A    between atoms: O3'_2090  and  P_2113
REMARK  532  A    between atoms: C2'_2091  and  O2'_2092
REMARK  533  A    between atoms: C1'_2093  and  N1_2094
REMARK  534  A    between atoms: P_2113  and  O5'_2116
REMARK  535  A    between atoms: O5'_2116  and  C5'_2117
REMARK  536  A    between atoms: C5'_2117  and  C4'_2118
REMARK  537  A    between atoms: C3'_2120  and  O3'_2121
REMARK  538  A    between atoms: O3'_2121  and  P_2147
REMARK  539  A    between atoms: C2'_2122  and  O2'_2123
REMARK  540  A    between atoms: C1'_2124  and  N9_2125
REMARK  541  A    between atoms: P_2147  and  O5'_2150
REMARK  542  A    between atoms: O5'_2150  and  C5'_2151
REMARK  543  A    between atoms: C5'_2151  and  C4'_2152
REMARK  544  A    between atoms: C3'_2154  and  O3'_2155
REMARK  545  A    between atoms: O3'_2155  and  P_2181
REMARK  546  A    between atoms: C2'_2156  and  O2'_2157
REMARK  547  A    between atoms: C1'_2158  and  N9_2159
REMARK  548  A    between atoms: P_2181  and  O5'_2184
REMARK  549  A    between atoms: O5'_2184  and  C5'_2185
REMARK  550  A    between atoms: C5'_2185  and  C4'_2186
REMARK  551  A    between atoms: C3'_2188  and  O3'_2189
REMARK  552  A    between atoms: C2'_2190  and  O2'_2191
REMARK  553  A    between atoms: C1'_2192  and  N1_2193
REMARK                            x       y       z     vdW  Elec       q    Type
REMARK                         _______ _______ _______ _____ _____    ______ ____
ROOT
ATOM      1  CA  TYR A  37       2.239  -9.052   4.891  0.00  0.00    +0.000 C 
ENDROOT
BRANCH   1   2
ATOM      2  C   TYR A  37       1.623  -8.465   6.160  0.00  0.00    +0.000 C 
ATOM      3  O   TYR A  37       0.495  -8.797   6.525  0.00  0.00    +0.000 OA
ATOM      4  N   VAL A  38       2.353  -7.572   6.812  0.00  0.00    +0.000 N 
ATOM      5  H   VAL A  38       3.237  -7.328   6.463  0.00  0.00    +0.000 HD
BRANCH   4   6
ATOM      6  CA  VAL A  38       1.874  -6.941   8.037  0.00  0.00    +0.000 C 
BRANCH   6   7
ATOM      7  C   VAL A  38       1.376  -5.514   7.755  0.00  0.00    +0.000 C 
ATOM      8  O   VAL A  38       1.234  -4.690   8.663  0.00  0.00    +0.000 OA
ATOM      9  N   GLY A  39       1.079  -5.243   6.491  0.00  0.00    +0.000 N 
ATOM     10  H   GLY A  39       1.164  -5.949   5.817  0.00  0.00    +0.000 HD
BRANCH   9  11
ATOM     11  CA  GLY A  39       0.618  -3.924   6.100  0.00  0.00    +0.000 C 
BRANCH  11  12
ATOM     12  C   GLY A  39      -0.894  -3.774   6.106  0.00  0.00    +0.000 C 
ATOM     13  O   GLY A  39      -1.629  -4.759   6.234  0.00  0.00    +0.000 OA
ATOM     14  N   LYS A  40      -1.347  -2.539   5.936  0.00  0.00    +0.000 N 
ATOM     15  H   LYS A  40      -0.698  -1.814   5.791  0.00  0.00    +0.000 HD
BRANCH  14  16
ATOM     16  CA  LYS A  40      -2.765  -2.209   5.916  0.00  0.00    +0.000 C 
BRANCH  16  17
ATOM     17  C   LYS A  40      -3.387  -2.660   4.599  0.00  0.00    +0.000 C 
ATOM     18  O   LYS A  40      -4.419  -3.340   4.597  0.00  0.00    +0.000 OA
ATOM     19  N   LYS A  41      -2.742  -2.299   3.488  0.00  0.00    +0.000 N 
ATOM     20  H   LYS A  41      -1.918  -1.759   3.569  0.00  0.00    +0.000 HD
BRANCH  19  21
ATOM     21  CA  LYS A  41      -3.215  -2.679   2.156  0.00  0.00    +0.000 C 
BRANCH  21  22
ATOM     22  C   LYS A  41      -2.905  -4.152   1.889  0.00  0.00    +0.000 C 
ATOM     23  O   LYS A  41      -2.110  -4.509   1.012  0.00  0.00    +0.000 OA
ATOM     24  N   HIS A  42      -3.556  -4.999   2.662  0.00  0.00    +0.000 N 
ATOM     25  H   HIS A  42      -4.214  -4.632   3.295  0.00  0.00    +0.000 HD
BRANCH  24  26
ATOM     26  CA  HIS A  42      -3.372  -6.440   2.595  0.00  0.00    +0.000 C 
BRANCH  26  27
ATOM     27  C   HIS A  42      -4.275  -7.096   3.628  0.00  0.00    +0.000 C 
ATOM     28  O   HIS A  42      -5.001  -8.039   3.325  0.00  0.00    +0.000 OA
ATOM     29  N   ARG A  43      -4.225  -6.581   4.852  0.00  0.00    +0.000 N 
ATOM     30  H   ARG A  43      -3.621  -5.823   5.030  0.00  0.00    +0.000 HD
BRANCH  29  31
ATOM     31  CA  ARG A  43      -5.040  -7.108   5.938  0.00  0.00    +0.000 C 
BRANCH  31  32
ATOM     32  C   ARG A  43      -6.514  -6.828   5.668  0.00  0.00    +0.000 C 
ATOM     33  O   ARG A  43      -7.366  -7.698   5.834  0.00  0.00    +0.000 OA
ATOM     34  N   LYS A  44      -6.796  -5.604   5.235  0.00  0.00    +0.000 N 
ATOM     35  H   LYS A  44      -6.066  -4.959   5.122  0.00  0.00    +0.000 HD
BRANCH  34  36
ATOM     36  CA  LYS A  44      -8.158  -5.193   4.922  0.00  0.00    +0.000 C 
BRANCH  36  37
ATOM     37  C   LYS A  44      -8.552  -5.705   3.534  0.00  0.00    +0.000 C 
ATOM     38  O   LYS A  44      -9.736  -5.852   3.216  0.00  0.00    +0.000 OA
ATOM     39  N   GLN A  45      -7.539  -5.976   2.718  0.00  0.00    +0.000 N 
ATOM     40  H   GLN A  45      -6.627  -5.802   3.022  0.00  0.00    +0.000 HD
BRANCH  39  41
ATOM     41  CA  GLN A  45      -7.741  -6.500   1.378  0.00  0.00    +0.000 C 
BRANCH  41  42
ATOM     42  C   GLN A  45      -8.328  -7.902   1.474  0.00  0.00    +0.000 C 
ATOM     43  O   GLN A  45      -9.292  -8.239   0.779  0.00  0.00    +0.000 OA
ATOM     44  N   GLU A  46      -7.757  -8.701   2.372  0.00  0.00    +0.000 N 
ATOM     45  H   GLU A  46      -7.004  -8.358   2.902  0.00  0.00    +0.000 HD
BRANCH  44  46
ATOM     46  CA  GLU A  46      -8.210 -10.068   2.590  0.00  0.00    +0.000 C 
BRANCH  46  47
ATOM     47  C   GLU A  46      -9.657 -10.073   3.069  0.00  0.00    +0.000 C 
ATOM     48  O   GLU A  46     -10.417 -10.988   2.760  0.00  0.00    +0.000 OA
ATOM     49  N   THR A  47     -10.035  -9.034   3.809  0.00  0.00    +0.000 N 
ATOM     50  H   THR A  47      -9.384  -8.333   4.020  0.00  0.00    +0.000 HD
BRANCH  49  51
ATOM     51  CA  THR A  47     -11.387  -8.913   4.327  0.00  0.00    +0.000 C 
BRANCH  51  52
ATOM     52  C   THR A  47     -12.422  -8.845   3.199  0.00  0.00    +0.000 C 
ATOM     53  O   THR A  47     -13.422  -9.565   3.228  0.00  0.00    +0.000 OA
ATOM     54  N   LYS A  48     -12.171  -7.999   2.199  0.00  0.00    +0.000 N 
ATOM     55  H   LYS A  48     -11.346  -7.466   2.217  0.00  0.00    +0.000 HD
BRANCH  54  56
ATOM     56  CA  LYS A  48     -13.098  -7.854   1.073  0.00  0.00    +0.000 C 
BRANCH  56  57
ATOM     57  C   LYS A  48     -13.032  -9.075   0.153  0.00  0.00    +0.000 C 
ATOM     58  O   LYS A  48     -14.049  -9.522  -0.377  0.00  0.00    +0.000 OA
ATOM     59  N   LEU A  49     -11.831  -9.620  -0.014  0.00  0.00    +0.000 N 
ATOM     60  H   LEU A  49     -11.053  -9.216   0.436  0.00  0.00    +0.000 HD
BRANCH  59  61
ATOM     61  CA  LEU A  49     -11.634 -10.793  -0.861  0.00  0.00    +0.000 C 
BRANCH  61  62
ATOM     62  C   LEU A  49     -12.306 -12.022  -0.251  0.00  0.00    +0.000 C 
ATOM     63  O   LEU A  49     -13.015 -12.759  -0.938  0.00  0.00    +0.000 OA
ATOM     64  N   LYS A  50     -12.083 -12.230   1.043  0.00  0.00    +0.000 N 
ATOM     65  H   LYS A  50     -11.501 -11.605   1.533  0.00  0.00    +0.000 HD
BRANCH  64  66
ATOM     66  CA  LYS A  50     -12.667 -13.359   1.762  0.00  0.00    +0.000 C 
BRANCH  66  67
ATOM     67  C   LYS A  50     -14.184 -13.266   1.738  0.00  0.00    +0.000 C 
ATOM     68  O   LYS A  50     -14.875 -14.266   1.546  0.00  0.00    +0.000 OA
ATOM     69  N   LEU A  51     -14.691 -12.054   1.922  0.00  0.00    +0.000 N 
ATOM     70  H   LEU A  51     -14.080 -11.302   2.071  0.00  0.00    +0.000 HD
BRANCH  69  71
ATOM     71  CA  LEU A  51     -16.127 -11.813   1.915  0.00  0.00    +0.000 C 
BRANCH  71  72
ATOM     72  C   LEU A  51     -16.725 -12.195   0.565  0.00  0.00    +0.000 C 
ATOM     73  O   LEU A  51     -17.746 -12.874   0.501  0.00  0.00    +0.000 OA
ATOM     74  N   MET A  52     -16.064 -11.769  -0.505  0.00  0.00    +0.000 N 
ATOM     75  H   MET A  52     -15.239 -11.247  -0.374  0.00  0.00    +0.000 HD
BRANCH  74  76
ATOM     76  CA  MET A  52     -16.522 -12.053  -1.864  0.00  0.00    +0.000 C 
BRANCH  76  77
ATOM     77  C   MET A  52     -16.570 -13.556  -2.143  0.00  0.00    +0.000 C 
ATOM     78  O   MET A  52     -17.539 -14.059  -2.705  0.00  0.00    +0.000 OA
ATOM     79  N   ALA A  53     -15.527 -14.266  -1.731  0.00  0.00    +0.000 N 
ATOM     80  H   ALA A  53     -14.792 -13.807  -1.269  0.00  0.00    +0.000 HD
BRANCH  79  81
ATOM     81  CA  ALA A  53     -15.446 -15.707  -1.939  0.00  0.00    +0.000 C 
ATOM     82  CB  ALA A  53     -14.036 -16.204  -1.650  0.00  0.00    +0.000 C 
BRANCH  81  83
ATOM     83  C   ALA A  53     -16.469 -16.452  -1.077  0.00  0.00    +0.000 C 
ATOM     84  O   ALA A  53     -17.138 -17.371  -1.548  0.00  0.00    +0.000 OA
ATOM     85  N   ARG A  54     -16.597 -16.039   0.184  0.00  0.00    +0.000 N 
ATOM     86  H   ARG A  54     -16.035 -15.294   0.502  0.00  0.00    +0.000 HD
BRANCH  85  87
ATOM     87  CA  ARG A  54     -17.532 -16.668   1.114  0.00  0.00    +0.000 C 
BRANCH  87  88
ATOM     88  C   ARG A  54     -18.985 -16.379   0.735  0.00  0.00    +0.000 C 
ATOM     89  O   ARG A  54     -19.863 -17.225   0.912  0.00  0.00    +0.000 OA
ATOM     90  N   TYR A  55     -19.237 -15.178   0.226  0.00  0.00    +0.000 N 
ATOM     91  H   TYR A  55     -18.500 -14.534   0.124  0.00  0.00    +0.000 HD
BRANCH  90  92
ATOM     92  CA  TYR A  55     -20.583 -14.784  -0.176  0.00  0.00    +0.000 C 
BRANCH  92  93
ATOM     93  C   TYR A  55     -20.907 -15.287  -1.584  0.00  0.00    +0.000 C 
ATOM     94  O   TYR A  55     -22.067 -15.308  -2.001  0.00  0.00    +0.000 OA
ATOM     95  N   GLY A  56     -19.877 -15.689  -2.314  0.00  0.00    +0.000 N 
ATOM     96  H   GLY A  56     -18.972 -15.641  -1.935  0.00  0.00    +0.000 HD
BRANCH  95  97
ATOM     97  CA  GLY A  56     -20.071 -16.190  -3.662  0.00  0.00    +0.000 C 
BRANCH  97  98
ATOM     98  C   GLY A  56     -20.485 -17.648  -3.687  0.00  0.00    +0.000 C 
ATOM     99  O   GLY A  56     -19.783 -18.489  -4.246  0.00  0.00    +0.000 OA
ATOM    100  N   ARG A  57     -21.621 -17.947  -3.079  0.00  0.00    +0.000 N 
ATOM    101  H   ARG A  57     -22.132 -17.227  -2.643  0.00  0.00    +0.000 HD
BRANCH 100 102
ATOM    102  CA  ARG A  57     -22.135 -19.302  -3.036  0.00  0.00    +0.000 C 
BRANCH 102 103
ATOM    103  CB  ARG A  57     -21.531 -20.079  -1.867  0.00  0.00    +0.000 C 
BRANCH 103 104
ATOM    104  CG  ARG A  57     -20.536 -21.154  -2.276  0.00  0.00    +0.000 C 
BRANCH 104 105
ATOM    105  CD  ARG A  57     -21.051 -21.971  -3.454  0.00  0.00    +0.000 C 
BRANCH 105 106
ATOM    106  NE  ARG A  57     -22.391 -22.508  -3.207  0.00  0.00    +0.000 N 
ATOM    107  CZ  ARG A  57     -22.672 -23.812  -3.141  0.00  0.00    +0.000 C 
ATOM    108  NH1 ARG A  57     -21.710 -24.711  -3.304  0.00  0.00    +0.000 N 
ATOM    109  NH2 ARG A  57     -23.912 -24.216  -2.927  0.00  0.00    +0.000 N 
ATOM    110  HE  ARG A  57     -23.126 -21.852  -3.090  0.00  0.00    +0.000 HD
ATOM    111 HH11 ARG A  57     -20.768 -24.419  -3.483  0.00  0.00    +0.000 HD
ATOM    112 HH12 ARG A  57     -21.920 -25.685  -3.237  0.00  0.00    +0.000 HD
ATOM    113 HH21 ARG A  57     -24.648 -23.546  -2.817  0.00  0.00    +0.000 HD
ATOM    114 HH22 ARG A  57     -24.122 -25.194  -2.872  0.00  0.00    +0.000 HD
ENDBRANCH 105 106
ENDBRANCH 104 105
ENDBRANCH 103 104
ENDBRANCH 102 103
ENDBRANCH 100 102
ENDBRANCH  97  98
ENDBRANCH  95  97
ENDBRANCH  92  93
BRANCH  92 115
ATOM    115  CB  TYR A  55     -20.722 -13.261  -0.116  0.00  0.00    +0.000 C 
BRANCH 115 116
ATOM    116  CG  TYR A  55     -22.121 -12.753  -0.374  0.00  0.00    +0.000 A 
ATOM    117  CD1 TYR A  55     -23.146 -12.995   0.530  0.00  0.00    +0.000 A 
ATOM    118  CD2 TYR A  55     -22.415 -12.031  -1.523  0.00  0.00    +0.000 A 
ATOM    119  CE1 TYR A  55     -24.427 -12.529   0.296  0.00  0.00    +0.000 A 
ATOM    120  CE2 TYR A  55     -23.692 -11.564  -1.765  0.00  0.00    +0.000 A 
ATOM    121  CZ  TYR A  55     -24.692 -11.814  -0.854  0.00  0.00    +0.000 A 
BRANCH 121 122
ATOM    122  OH  TYR A  55     -25.961 -11.343  -1.095  0.00  0.00    +0.000 OA
ATOM    123  HH  TYR A  55     -26.204 -11.529  -2.012  0.00  0.00    +0.000 HD
ENDBRANCH 121 122
ENDBRANCH 115 116
ENDBRANCH  92 115
ENDBRANCH  90  92
ENDBRANCH  87  88
BRANCH  87 124
ATOM    124  CB  ARG A  54     -17.264 -16.201   2.546  0.00  0.00    +0.000 C 
BRANCH 124 125
ATOM    125  CG  ARG A  54     -18.187 -16.817   3.585  0.00  0.00    +0.000 C 
BRANCH 125 126
ATOM    126  CD  ARG A  54     -18.514 -15.827   4.690  0.00  0.00    +0.000 C 
BRANCH 126 127
ATOM    127  NE  ARG A  54     -17.705 -16.054   5.882  0.00  0.00    +0.000 N 
ATOM    128  CZ  ARG A  54     -18.111 -15.771   7.118  0.00  0.00    +0.000 C 
ATOM    129  NH1 ARG A  54     -19.319 -15.258   7.316  0.00  0.00    +0.000 N 
ATOM    130  NH2 ARG A  54     -17.314 -16.002   8.143  0.00  0.00    +0.000 N 
ATOM    131  HE  ARG A  54     -16.809 -16.438   5.754  0.00  0.00    +0.000 HD
ATOM    132 HH11 ARG A  54     -19.926 -15.081   6.538  0.00  0.00    +0.000 HD
ATOM    133 HH12 ARG A  54     -19.630 -15.047   8.244  0.00  0.00    +0.000 HD
ATOM    134 HH21 ARG A  54     -16.401 -16.392   7.992  0.00  0.00    +0.000 HD
ATOM    135 HH22 ARG A  54     -17.616 -15.797   9.074  0.00  0.00    +0.000 HD
ENDBRANCH 126 127
ENDBRANCH 125 126
ENDBRANCH 124 125
ENDBRANCH  87 124
ENDBRANCH  85  87
ENDBRANCH  81  83
ENDBRANCH  79  81
ENDBRANCH  76  77
BRANCH  76 136
ATOM    136  CB  MET A  52     -15.624 -11.353  -2.890  0.00  0.00    +0.000 C 
BRANCH 136 137
ATOM    137  CG  MET A  52     -16.319 -10.246  -3.663  0.00  0.00    +0.000 C 
BRANCH 137 138
ATOM    138  SD  MET A  52     -15.192  -9.336  -4.733  0.00  0.00    +0.000 S 
ATOM    139  CE  MET A  52     -16.320  -8.155  -5.465  0.00  0.00    +0.000 C 
ENDBRANCH 137 138
ENDBRANCH 136 137
ENDBRANCH  76 136
ENDBRANCH  74  76
ENDBRANCH  71  72
BRANCH  71 140
ATOM    140  CB  LEU A  51     -16.426 -10.340   2.223  0.00  0.00    +0.000 C 
BRANCH 140 141
ATOM    141  CG  LEU A  51     -17.871  -9.875   2.017  0.00  0.00    +0.000 C 
ATOM    142  CD1 LEU A  51     -18.797 -10.496   3.053  0.00  0.00    +0.000 C 
ATOM    143  CD2 LEU A  51     -17.958  -8.358   2.055  0.00  0.00    +0.000 C 
ENDBRANCH 140 141
ENDBRANCH  71 140
ENDBRANCH  69  71
ENDBRANCH  66  67
BRANCH  66 144
ATOM    144  CB  LYS A  50     -12.162 -13.368   3.207  0.00  0.00    +0.000 C 
BRANCH 144 145
ATOM    145  CG  LYS A  50     -12.705 -14.488   4.081  0.00  0.00    +0.000 C 
BRANCH 145 146
ATOM    146  CD  LYS A  50     -11.950 -14.546   5.401  0.00  0.00    +0.000 C 
BRANCH 146 147
ATOM    147  CE  LYS A  50     -12.034 -13.226   6.153  0.00  0.00    +0.000 C 
BRANCH 147 148
ATOM    148  NZ  LYS A  50     -10.813 -12.976   6.962  0.00  0.00    +0.000 N 
ATOM    149  HZ1 LYS A  50      -9.979 -12.860   6.336  0.00  0.00    +0.000 HD
ATOM    150  HZ2 LYS A  50     -10.640 -13.770   7.607  0.00  0.00    +0.000 HD
ATOM    151  HZ3 LYS A  50     -10.927 -12.107   7.521  0.00  0.00    +0.000 HD
ENDBRANCH 147 148
ENDBRANCH 146 147
ENDBRANCH 145 146
ENDBRANCH 144 145
ENDBRANCH  66 144
ENDBRANCH  64  66
ENDBRANCH  61  62
BRANCH  61 152
ATOM    152  CB  LEU A  49     -10.142 -11.056  -1.066  0.00  0.00    +0.000 C 
BRANCH 152 153
ATOM    153  CG  LEU A  49      -9.778 -12.152  -2.071  0.00  0.00    +0.000 C 
ATOM    154  CD1 LEU A  49     -10.212 -11.755  -3.475  0.00  0.00    +0.000 C 
ATOM    155  CD2 LEU A  49      -8.285 -12.439  -2.027  0.00  0.00    +0.000 C 
ENDBRANCH 152 153
ENDBRANCH  61 152
ENDBRANCH  59  61
ENDBRANCH  56  57
BRANCH  56 156
ATOM    156  CB  LYS A  48     -12.852  -6.550   0.295  0.00  0.00    +0.000 C 
BRANCH 156 157
ATOM    157  CG  LYS A  48     -13.939  -6.213  -0.722  0.00  0.00    +0.000 C 
BRANCH 157 158
ATOM    158  CD  LYS A  48     -13.919  -4.740  -1.126  0.00  0.00    +0.000 C 
BRANCH 158 159
ATOM    159  CE  LYS A  48     -15.061  -4.417  -2.089  0.00  0.00    +0.000 C 
BRANCH 159 160
ATOM    160  NZ  LYS A  48     -15.283  -2.950  -2.254  0.00  0.00    +0.000 N 
ATOM    161  HZ1 LYS A  48     -14.626  -2.561  -2.967  0.00  0.00    +0.000 HD
ATOM    162  HZ2 LYS A  48     -15.123  -2.462  -1.351  0.00  0.00    +0.000 HD
ATOM    163  HZ3 LYS A  48     -16.263  -2.765  -2.565  0.00  0.00    +0.000 HD
ENDBRANCH 159 160
ENDBRANCH 158 159
ENDBRANCH 157 158
ENDBRANCH 156 157
ENDBRANCH  56 156
ENDBRANCH  54  56
ENDBRANCH  51  52
BRANCH  51 164
ATOM    164  CB  THR A  47     -11.522  -7.670   5.221  0.00  0.00    +0.000 C 
ATOM    165  CG2 THR A  47     -12.678  -7.839   6.193  0.00  0.00    +0.000 C 
BRANCH 164 166
ATOM    166  OG1 THR A  47     -10.310  -7.484   5.963  0.00  0.00    +0.000 OA
ATOM    167  HG1 THR A  47      -9.992  -8.340   6.281  0.00  0.00    +0.000 HD
ENDBRANCH 164 166
ENDBRANCH  51 164
ENDBRANCH  49  51
ENDBRANCH  46  47
BRANCH  46 168
ATOM    168  CB  GLU A  46      -7.308 -10.778   3.608  0.00  0.00    +0.000 C 
BRANCH 168 169
ATOM    169  CG  GLU A  46      -7.413 -12.298   3.589  0.00  0.00    +0.000 C 
BRANCH 169 170
ATOM    170  CD  GLU A  46      -8.266 -12.856   4.715  0.00  0.00    +0.000 C 
ATOM    171  OE1 GLU A  46      -8.766 -12.068   5.541  0.00  0.00    +0.000 OA
ATOM    172  OE2 GLU A  46      -8.442 -14.091   4.784  0.00  0.00    +0.000 OA
ENDBRANCH 169 170
ENDBRANCH 168 169
ENDBRANCH  46 168
ENDBRANCH  44  46
ENDBRANCH  41  42
BRANCH  41 173
ATOM    173  CB  GLN A  45      -6.398  -6.549   0.649  0.00  0.00    +0.000 C 
BRANCH 173 174
ATOM    174  CG  GLN A  45      -6.502  -6.699  -0.858  0.00  0.00    +0.000 C 
BRANCH 174 175
ATOM    175  CD  GLN A  45      -5.402  -5.953  -1.592  0.00  0.00    +0.000 C 
ATOM    176  OE1 GLN A  45      -4.968  -6.368  -2.664  0.00  0.00    +0.000 OA
ATOM    177  NE2 GLN A  45      -4.954  -4.837  -1.026  0.00  0.00    +0.000 N 
ATOM    178 HE21 GLN A  45      -5.353  -4.548  -0.173  0.00  0.00    +0.000 HD
ATOM    179 HE22 GLN A  45      -4.246  -4.333  -1.490  0.00  0.00    +0.000 HD
ENDBRANCH 174 175
ENDBRANCH 173 174
ENDBRANCH  41 173
ENDBRANCH  39  41
ENDBRANCH  36  37
BRANCH  36 180
ATOM    180  CB  LYS A  44      -8.290  -3.668   5.005  0.00  0.00    +0.000 C 
BRANCH 180 181
ATOM    181  CG  LYS A  44      -8.062  -3.087   6.396  0.00  0.00    +0.000 C 
BRANCH 181 182
ATOM    182  CD  LYS A  44      -9.031  -3.666   7.418  0.00  0.00    +0.000 C 
BRANCH 182 183
ATOM    183  CE  LYS A  44     -10.446  -3.142   7.220  0.00  0.00    +0.000 C 
BRANCH 183 184
ATOM    184  NZ  LYS A  44     -10.559  -1.704   7.566  0.00  0.00    +0.000 N 
ATOM    185  HZ1 LYS A  44      -9.970  -1.126   6.922  0.00  0.00    +0.000 HD
ATOM    186  HZ2 LYS A  44     -10.238  -1.544   8.540  0.00  0.00    +0.000 HD
ATOM    187  HZ3 LYS A  44     -11.548  -1.391   7.481  0.00  0.00    +0.000 HD
ENDBRANCH 183 184
ENDBRANCH 182 183
ENDBRANCH 181 182
ENDBRANCH 180 181
ENDBRANCH  36 180
ENDBRANCH  34  36
ENDBRANCH  31  32
BRANCH  31 188
ATOM    188  CB  ARG A  43      -4.617  -6.485   7.269  0.00  0.00    +0.000 C 
BRANCH 188 189
ATOM    189  CG  ARG A  43      -4.392  -7.501   8.376  0.00  0.00    +0.000 C 
BRANCH 189 190
ATOM    190  CD  ARG A  43      -3.174  -8.369   8.094  0.00  0.00    +0.000 C 
BRANCH 190 191
ATOM    191  NE  ARG A  43      -3.167  -9.577   8.918  0.00  0.00    +0.000 N 
ATOM    192  CZ  ARG A  43      -2.104 -10.360   9.103  0.00  0.00    +0.000 C 
ATOM    193  NH1 ARG A  43      -0.940 -10.080   8.523  0.00  0.00    +0.000 N 
ATOM    194  NH2 ARG A  43      -2.214 -11.442   9.857  0.00  0.00    +0.000 N 
ATOM    195  HE  ARG A  43      -4.015  -9.820   9.358  0.00  0.00    +0.000 HD
ATOM    196 HH11 ARG A  43      -0.847  -9.275   7.935  0.00  0.00    +0.000 HD
ATOM    197 HH12 ARG A  43      -0.145 -10.671   8.673  0.00  0.00    +0.000 HD
ATOM    198 HH21 ARG A  43      -3.092 -11.673  10.281  0.00  0.00    +0.000 HD
ATOM    199 HH22 ARG A  43      -1.422 -12.029  10.014  0.00  0.00    +0.000 HD
ENDBRANCH 190 191
ENDBRANCH 189 190
ENDBRANCH 188 189
ENDBRANCH  31 188
ENDBRANCH  29  31
ENDBRANCH  26  27
BRANCH  26 200
ATOM    200  CB  HIS A  42      -1.903  -6.795   2.885  0.00  0.00    +0.000 C 
BRANCH 200 201
ATOM    201  CG  HIS A  42      -1.616  -8.261   2.978  0.00  0.00    +0.000 A 
ATOM    202  ND1 HIS A  42      -1.201  -8.988   1.879  0.00  0.00    +0.000 NA
ATOM    203  CD2 HIS A  42      -1.687  -9.078   4.058  0.00  0.00    +0.000 A 
ATOM    204  CE1 HIS A  42      -1.031 -10.229   2.329  0.00  0.00    +0.000 A 
ATOM    205  NE2 HIS A  42      -1.312 -10.322   3.628  0.00  0.00    +0.000 N 
ATOM    206  HE2 HIS A  42      -1.195 -11.121   4.193  0.00  0.00    +0.000 HD
ENDBRANCH 200 201
ENDBRANCH  26 200
ENDBRANCH  24  26
ENDBRANCH  21  22
BRANCH  21 207
ATOM    207  CB  LYS A  41      -2.626  -1.776   1.067  0.00  0.00    +0.000 C 
BRANCH 207 208
ATOM    208  CG  LYS A  41      -1.108  -1.668   1.077  0.00  0.00    +0.000 C 
BRANCH 208 209
ATOM    209  CD  LYS A  41      -0.537  -1.761  -0.329  0.00  0.00    +0.000 C 
BRANCH 209 210
ATOM    210  CE  LYS A  41      -0.981  -0.593  -1.192  0.00  0.00    +0.000 C 
BRANCH 210 211
ATOM    211  NZ  LYS A  41      -1.069  -0.974  -2.627  0.00  0.00    +0.000 N 
ATOM    212  HZ1 LYS A  41      -1.814  -1.696  -2.759  0.00  0.00    +0.000 HD
ATOM    213  HZ2 LYS A  41      -0.163  -1.364  -2.951  0.00  0.00    +0.000 HD
ATOM    214  HZ3 LYS A  41      -1.303  -0.144  -3.204  0.00  0.00    +0.000 HD
ENDBRANCH 210 211
ENDBRANCH 209 210
ENDBRANCH 208 209
ENDBRANCH 207 208
ENDBRANCH  21 207
ENDBRANCH  19  21
ENDBRANCH  16  17
BRANCH  16 215
ATOM    215  CB  LYS A  40      -2.939  -0.695   6.111  0.00  0.00    +0.000 C 
BRANCH 215 216
ATOM    216  CG  LYS A  40      -4.369  -0.182   6.011  0.00  0.00    +0.000 C 
BRANCH 216 217
ATOM    217  CD  LYS A  40      -4.519   0.803   4.857  0.00  0.00    +0.000 C 
BRANCH 217 218
ATOM    218  CE  LYS A  40      -5.172   2.106   5.301  0.00  0.00    +0.000 C 
BRANCH 218 219
ATOM    219  NZ  LYS A  40      -4.245   2.961   6.094  0.00  0.00    +0.000 N 
ATOM    220  HZ1 LYS A  40      -4.124   2.574   7.049  0.00  0.00    +0.000 HD
ATOM    221  HZ2 LYS A  40      -4.621   3.931   6.168  0.00  0.00    +0.000 HD
ATOM    222  HZ3 LYS A  40      -3.312   3.002   5.631  0.00  0.00    +0.000 HD
ENDBRANCH 218 219
ENDBRANCH 217 218
ENDBRANCH 216 217
ENDBRANCH 215 216
ENDBRANCH  16 215
ENDBRANCH  14  16
ENDBRANCH  11  12
ENDBRANCH   9  11
ENDBRANCH   6   7
BRANCH   6 223
ATOM    223  CB  VAL A  38       2.971  -6.946   9.134  0.00  0.00    +0.000 C 
ATOM    224  CG1 VAL A  38       4.068  -5.924   8.857  0.00  0.00    +0.000 C 
ATOM    225  CG2 VAL A  38       2.380  -6.776  10.526  0.00  0.00    +0.000 C 
ENDBRANCH   6 223
ENDBRANCH   4   6
ENDBRANCH   1   2
BRANCH   1 228
ATOM    226  C   HIS A  36       2.584  -6.956   3.718  0.00  0.00    +0.000 C 
ATOM    227  O   HIS A  36       1.395  -6.655   3.845  0.00  0.00    +0.000 OA
ATOM    228  N   TYR A  37       3.084  -8.085   4.199  0.00  0.00    +0.000 N 
ATOM    229  H   TYR A  37       4.048  -8.269   4.097  0.00  0.00    +0.000 HD
BRANCH 226 230
ATOM    230  CA  HIS A  36       3.553  -6.018   2.998  0.00  0.00    +0.000 C 
BRANCH 230 233
ATOM    231  C   GLN A  35       5.132  -5.432   4.752  0.00  0.00    +0.000 C 
ATOM    232  O   GLN A  35       4.266  -4.857   5.410  0.00  0.00    +0.000 OA
ATOM    233  N   HIS A  36       4.881  -6.036   3.599  0.00  0.00    +0.000 N 
ATOM    234  H   HIS A  36       5.609  -6.509   3.141  0.00  0.00    +0.000 HD
BRANCH 231 235
ATOM    235  CA  GLN A  35       6.568  -5.503   5.258  0.00  0.00    +0.000 C 
BRANCH 235 238
ATOM    236  C   GLN A  34       6.628  -7.925   5.541  0.00  0.00    +0.000 C 
ATOM    237  O   GLN A  34       5.596  -7.930   6.215  0.00  0.00    +0.000 OA
ATOM    238  N   GLN A  35       7.158  -6.817   5.032  0.00  0.00    +0.000 N 
ATOM    239  H   GLN A  35       7.973  -6.883   4.493  0.00  0.00    +0.000 HD
BRANCH 236 240
ATOM    240  CA  GLN A  34       7.363  -9.230   5.235  0.00  0.00    +0.000 C 
BRANCH 240 243
ATOM    241  C   ALA A  33       6.874  -9.192   2.828  0.00  0.00    +0.000 C 
ATOM    242  O   ALA A  33       5.691  -8.880   2.995  0.00  0.00    +0.000 OA
ATOM    243  N   GLN A  34       7.738  -9.361   3.826  0.00  0.00    +0.000 N 
ATOM    244  H   GLN A  34       8.667  -9.589   3.608  0.00  0.00    +0.000 HD
BRANCH 241 245
ATOM    245  CA  ALA A  33       7.437  -9.398   1.426  0.00  0.00    +0.000 C 
ATOM    246  CB  ALA A  33       7.889 -10.840   1.247  0.00  0.00    +0.000 C 
BRANCH 245 249
ATOM    247  C   MET A  32       8.343  -7.234   0.795  0.00  0.00    +0.000 C 
ATOM    248  O   MET A  32       7.227  -6.735   0.685  0.00  0.00    +0.000 OA
ATOM    249  N   ALA A  33       8.543  -8.494   1.157  0.00  0.00    +0.000 N 
ATOM    250  H   ALA A  33       9.463  -8.826   1.245  0.00  0.00    +0.000 HD
BRANCH 247 251
ATOM    251  CA  MET A  32       9.597  -6.405   0.542  0.00  0.00    +0.000 C 
BRANCH 251 254
ATOM    252  C   VAL A  31      10.547  -6.682   2.776  0.00  0.00    +0.000 C 
ATOM    253  O   VAL A  31       9.528  -6.281   3.326  0.00  0.00    +0.000 OA
ATOM    254  N   MET A  32      10.667  -6.792   1.457  0.00  0.00    +0.000 N 
ATOM    255  H   MET A  32      11.498  -7.153   1.088  0.00  0.00    +0.000 HD
BRANCH 252 256
ATOM    256  CA  VAL A  31      11.755  -7.123   3.597  0.00  0.00    +0.000 C 
BRANCH 256 259
ATOM    257  C   PRO A  30      12.257  -9.262   2.553  0.00  0.00    +0.000 C 
ATOM    258  O   PRO A  30      11.176  -9.742   2.907  0.00  0.00    +0.000 OA
ATOM    259  N   VAL A  31      12.615  -8.014   2.828  0.00  0.00    +0.000 N 
ATOM    260  H   VAL A  31      13.480  -7.684   2.507  0.00  0.00    +0.000 HD
BRANCH 257 264
ATOM    261  C   ASP A  29      12.786  -9.060  -0.464  0.00  0.00    +0.000 C 
ATOM    262  O   ASP A  29      11.580  -9.288  -0.358  0.00  0.00    +0.000 OA
ATOM    263  N   PRO A  30      13.660  -9.401   0.498  0.00  0.00    +0.000 N 
ATOM    264  CA  PRO A  30      13.258 -10.084   1.738  0.00  0.00    +0.000 C 
ATOM    265  CB  PRO A  30      14.578 -10.238   2.510  0.00  0.00    +0.000 C 
ATOM    266  CG  PRO A  30      15.498  -9.233   1.901  0.00  0.00    +0.000 C 
ATOM    267  CD  PRO A  30      15.112  -9.157   0.453  0.00  0.00    +0.000 C 
BRANCH 261 268
ATOM    268  CA  ASP A  29      13.337  -8.363  -1.705  0.00  0.00    +0.000 C 
BRANCH 268 271
ATOM    269  C   ASN A  28      12.689  -9.781  -3.585  0.00  0.00    +0.000 C 
ATOM    270  O   ASN A  28      13.541 -10.622  -3.313  0.00  0.00    +0.000 OA
ATOM    271  N   ASP A  29      12.515  -8.667  -2.873  0.00  0.00    +0.000 N 
ATOM    272  H   ASP A  29      11.817  -8.033  -3.140  0.00  0.00    +0.000 HD
BRANCH 269 273
ATOM    273  CA  ASN A  28      11.759  -9.971  -4.779  0.00  0.00    +0.000 C 
BRANCH 273 276
ATOM    274  C   PHE A  27       9.390 -10.463  -4.536  0.00  0.00    +0.000 C 
ATOM    275  O   PHE A  27       9.509 -11.606  -4.989  0.00  0.00    +0.000 OA
ATOM    276  N   ASN A  28      10.398  -9.614  -4.412  0.00  0.00    +0.000 N 
ATOM    277  H   ASN A  28      10.219  -8.713  -4.067  0.00  0.00    +0.000 HD
BRANCH 274 278
ATOM    278  CA  PHE A  27       8.034  -9.935  -4.098  0.00  0.00    +0.000 C 
BRANCH 278 281
ATOM    279  C   THR A  26       6.153  -9.774  -5.623  0.00  0.00    +0.000 C 
ATOM    280  O   THR A  26       6.251  -8.547  -5.694  0.00  0.00    +0.000 OA
ATOM    281  N   PHE A  27       6.964 -10.521  -4.887  0.00  0.00    +0.000 N 
ATOM    282  H   PHE A  27       6.847 -11.498  -4.884  0.00  0.00    +0.000 HD
BRANCH 279 283
ATOM    283  CA  THR A  26       5.059 -10.509  -6.398  0.00  0.00    +0.000 C 
BRANCH 283 286
ATOM    284  C   ALA A  25       2.816  -9.860  -5.710  0.00  0.00    +0.000 C 
ATOM    285  O   ALA A  25       2.753 -10.756  -4.867  0.00  0.00    +0.000 OA
ATOM    286  N   THR A  26       3.871  -9.670  -6.488  0.00  0.00    +0.000 N 
ATOM    287  H   THR A  26       3.858  -8.933  -7.136  0.00  0.00    +0.000 HD
BRANCH 284 288
ATOM    288  CA  ALA A  25       1.651  -8.898  -5.913  0.00  0.00    +0.000 C 
ATOM    289  CB  ALA A  25       1.721  -7.760  -4.901  0.00  0.00    +0.000 C 
BRANCH 288 292
ATOM    290  C   HIS A  24      -0.413  -9.775  -6.866  0.00  0.00    +0.000 C 
ATOM    291  O   HIS A  24      -0.096  -9.408  -7.996  0.00  0.00    +0.000 OA
ATOM    292  N   ALA A  25       0.372  -9.591  -5.809  0.00  0.00    +0.000 N 
ATOM    293  H   ALA A  25       0.091  -9.941  -4.941  0.00  0.00    +0.000 HD
BRANCH 290 294
ATOM    294  CA  HIS A  24      -1.741 -10.508  -6.613  0.00  0.00    +0.000 C 
BRANCH 294 297
ATOM    295  C   CYS A  23      -2.567  -9.044  -4.825  0.00  0.00    +0.000 C 
ATOM    296  O   CYS A  23      -2.493  -8.040  -5.535  0.00  0.00    +0.000 OA
ATOM    297  N   HIS A  24      -2.234 -10.260  -5.253  0.00  0.00    +0.000 N 
ATOM    298  H   HIS A  24      -2.324 -11.017  -4.638  0.00  0.00    +0.000 HD
BRANCH 295 299
ATOM    299  CA  CYS A  23      -3.054  -8.942  -3.375  0.00  0.00    +0.000 C 
BRANCH 299 302
ATOM    300  C   LEU A  22      -4.236 -10.625  -2.082  0.00  0.00    +0.000 C 
ATOM    301  O   LEU A  22      -5.229  -9.910  -1.992  0.00  0.00    +0.000 OA
ATOM    302  N   CYS A  23      -3.138 -10.249  -2.731  0.00  0.00    +0.000 N 
ATOM    303  H   CYS A  23      -2.375 -10.859  -2.782  0.00  0.00    +0.000 HD
BRANCH 300 304
ATOM    304  CA  LEU A  22      -4.224 -12.005  -1.425  0.00  0.00    +0.000 C 
BRANCH 304 307
ATOM    305  C   SER A  21      -3.108 -13.410  -3.074  0.00  0.00    +0.000 C 
ATOM    306  O   SER A  21      -4.006 -13.244  -3.899  0.00  0.00    +0.000 OA
ATOM    307  N   LEU A  22      -3.113 -12.839  -1.878  0.00  0.00    +0.000 N 
ATOM    308  H   LEU A  22      -2.354 -12.983  -1.281  0.00  0.00    +0.000 HD
BRANCH 305 309
ATOM    309  CA  SER A  21      -1.892 -14.281  -3.404  0.00  0.00    +0.000 C 
BRANCH 309 312
ATOM    310  C   CYS A  20      -0.246 -12.557  -2.868  0.00  0.00    +0.000 C 
ATOM    311  O   CYS A  20      -0.829 -11.708  -3.533  0.00  0.00    +0.000 OA
ATOM    312  N   SER A  21      -0.671 -13.809  -2.753  0.00  0.00    +0.000 N 
ATOM    313  H   SER A  21      -0.136 -14.450  -2.231  0.00  0.00    +0.000 HD
BRANCH 310 314
ATOM    314  CA  CYS A  20       1.047 -12.211  -2.146  0.00  0.00    +0.000 C 
BRANCH 314 317
ATOM    315  C   PHE A  19       2.854 -13.696  -2.805  0.00  0.00    +0.000 C 
ATOM    316  O   PHE A  19       2.622 -14.486  -1.890  0.00  0.00    +0.000 OA
ATOM    317  N   CYS A  20       2.166 -12.584  -2.991  0.00  0.00    +0.000 N 
ATOM    318  H   CYS A  20       2.420 -11.987  -3.734  0.00  0.00    +0.000 HD
BRANCH 315 319
ATOM    319  CA  PHE A  19       3.987 -13.944  -3.796  0.00  0.00    +0.000 C 
BRANCH 319 322
ATOM    320  C   LYS A  18       6.395 -13.938  -3.529  0.00  0.00    +0.000 C 
ATOM    321  O   LYS A  18       6.543 -13.185  -4.493  0.00  0.00    +0.000 OA
ATOM    322  N   PHE A  19       5.206 -14.358  -3.120  0.00  0.00    +0.000 N 
ATOM    323  H   PHE A  19       5.144 -14.955  -2.341  0.00  0.00    +0.000 HD
BRANCH 320 324
ATOM    324  CA  LYS A  18       7.603 -14.432  -2.744  0.00  0.00    +0.000 C 
BRANCH 324 327
ATOM    325  C   ASP A  17       9.790 -15.101  -3.572  0.00  0.00    +0.000 C 
ATOM    326  O   ASP A  17       9.709 -16.196  -3.022  0.00  0.00    +0.000 OA
ATOM    327  N   LYS A  18       8.830 -14.191  -3.492  0.00  0.00    +0.000 N 
ATOM    328  H   LYS A  18       8.945 -13.333  -3.959  0.00  0.00    +0.000 HD
BRANCH 325 329
ATOM    329  CA  ASP A  17      11.028 -14.720  -4.376  0.00  0.00    +0.000 C 
BRANCH 329 332
ATOM    330  C   PRO A  16      12.510 -14.438  -2.464  0.00  0.00    +0.000 C 
ATOM    331  O   PRO A  16      11.758 -13.609  -1.944  0.00  0.00    +0.000 OA
ATOM    332  N   ASP A  17      12.247 -15.020  -3.626  0.00  0.00    +0.000 N 
ATOM    333  H   ASP A  17      12.890 -15.663  -3.996  0.00  0.00    +0.000 HD
BRANCH 330 337
ATOM    334  C   ASP A  15      15.664 -13.332  -2.414  0.00  0.00    +0.000 C 
ATOM    335  O   ASP A  15      15.940 -13.991  -3.421  0.00  0.00    +0.000 OA
ATOM    336  N   PRO A  16      14.682 -13.690  -1.573  0.00  0.00    +0.000 N 
ATOM    337  CA  PRO A  16      13.820 -14.842  -1.787  0.00  0.00    +0.000 C 
ATOM    338  CB  PRO A  16      13.550 -15.319  -0.354  0.00  0.00    +0.000 C 
ATOM    339  CG  PRO A  16      13.779 -14.126   0.532  0.00  0.00    +0.000 C 
ATOM    340  CD  PRO A  16      14.340 -13.012  -0.320  0.00  0.00    +0.000 C 
BRANCH 334 341
ATOM    341  CA  ASP A  15      16.458 -12.081  -2.057  0.00  0.00    +0.000 C 
BRANCH 341 344
ATOM    342  C   ILE A  14      17.975 -12.099  -0.158  0.00  0.00    +0.000 C 
ATOM    343  O   ILE A  14      17.148 -11.550   0.565  0.00  0.00    +0.000 OA
ATOM    344  N   ASP A  15      17.735 -12.400  -1.427  0.00  0.00    +0.000 N 
ATOM    345  H   ASP A  15      18.432 -12.848  -1.954  0.00  0.00    +0.000 HD
BRANCH 342 347
ATOM    346  N   ILE A  14      19.945 -11.296   1.082  0.00  0.00    +0.000 NA
ATOM    347  CA  ILE A  14      19.352 -12.463   0.383  0.00  0.00    +0.000 C 
BRANCH 347 348
ATOM    348  CB  ILE A  14      19.259 -13.703   1.305  0.00  0.00    +0.000 C 
ATOM    349  CG2 ILE A  14      18.568 -13.367   2.620  0.00  0.00    +0.000 C 
BRANCH 348 350
ATOM    350  CG1 ILE A  14      18.562 -14.873   0.599  0.00  0.00    +0.000 C 
ATOM    351  CD1 ILE A  14      19.344 -15.444  -0.565  0.00  0.00    +0.000 C 
ENDBRANCH 348 350
ENDBRANCH 347 348
ENDBRANCH 342 347
ENDBRANCH 341 344
BRANCH 341 352
ATOM    352  CB  ASP A  15      16.644 -11.189  -3.294  0.00  0.00    +0.000 C 
BRANCH 352 353
ATOM    353  CG  ASP A  15      18.088 -11.040  -3.730  0.00  0.00    +0.000 C 
ATOM    354  OD1 ASP A  15      18.591 -11.909  -4.474  0.00  0.00    +0.000 OA
ATOM    355  OD2 ASP A  15      18.732 -10.044  -3.334  0.00  0.00    +0.000 OA
ENDBRANCH 352 353
ENDBRANCH 341 352
ENDBRANCH 334 341
ENDBRANCH 330 337
ENDBRANCH 329 332
BRANCH 329 356
ATOM    356  CB  ASP A  17      11.022 -15.452  -5.722  0.00  0.00    +0.000 C 
BRANCH 356 357
ATOM    357  CG  ASP A  17      12.132 -14.990  -6.641  0.00  0.00    +0.000 C 
ATOM    358  OD1 ASP A  17      13.304 -15.344  -6.389  0.00  0.00    +0.000 OA
ATOM    359  OD2 ASP A  17      11.843 -14.275  -7.624  0.00  0.00    +0.000 OA
ENDBRANCH 356 357
ENDBRANCH 329 356
ENDBRANCH 325 329
ENDBRANCH 324 327
BRANCH 324 360
ATOM    360  CB  LYS A  18       7.670 -13.731  -1.384  0.00  0.00    +0.000 C 
BRANCH 360 361
ATOM    361  CG  LYS A  18       8.573 -14.409  -0.365  0.00  0.00    +0.000 C 
BRANCH 361 362
ATOM    362  CD  LYS A  18       7.837 -15.511   0.376  0.00  0.00    +0.000 C 
BRANCH 362 363
ATOM    363  CE  LYS A  18       8.615 -16.815   0.355  0.00  0.00    +0.000 C 
BRANCH 363 364
ATOM    364  NZ  LYS A  18       8.533 -17.506  -0.963  0.00  0.00    +0.000 N 
ATOM    365  HZ1 LYS A  18       9.006 -16.939  -1.702  0.00  0.00    +0.000 HD
ATOM    366  HZ2 LYS A  18       7.541 -17.649  -1.235  0.00  0.00    +0.000 HD
ATOM    367  HZ3 LYS A  18       9.000 -18.433  -0.905  0.00  0.00    +0.000 HD
ENDBRANCH 363 364
ENDBRANCH 362 363
ENDBRANCH 361 362
ENDBRANCH 360 361
ENDBRANCH 324 360
ENDBRANCH 320 324
ENDBRANCH 319 322
BRANCH 319 368
ATOM    368  CB  PHE A  19       3.564 -14.970  -4.855  0.00  0.00    +0.000 C 
BRANCH 368 369
ATOM    369  CG  PHE A  19       2.450 -14.496  -5.745  0.00  0.00    +0.000 A 
ATOM    370  CD1 PHE A  19       2.704 -13.612  -6.781  0.00  0.00    +0.000 A 
ATOM    371  CD2 PHE A  19       1.151 -14.929  -5.542  0.00  0.00    +0.000 A 
ATOM    372  CE1 PHE A  19       1.684 -13.168  -7.601  0.00  0.00    +0.000 A 
ATOM    373  CE2 PHE A  19       0.125 -14.490  -6.355  0.00  0.00    +0.000 A 
ATOM    374  CZ  PHE A  19       0.391 -13.608  -7.387  0.00  0.00    +0.000 A 
ENDBRANCH 368 369
ENDBRANCH 319 368
ENDBRANCH 315 319
ENDBRANCH 314 317
BRANCH 314 375
ATOM    375  CB  CYS A  20       1.096 -10.704  -1.854  0.00  0.00    +0.000 C 
BRANCH 375 376
ATOM    376  SG  CYS A  20      -0.108 -10.102  -0.643  0.00  0.00    +0.000 S 
ATOM    377  HG  CYS A  20      -0.608  -9.104  -0.293  0.00  0.00    +0.000 HD
ENDBRANCH 375 376
ENDBRANCH 314 375
ENDBRANCH 310 314
ENDBRANCH 309 312
BRANCH 309 378
ATOM    378  CB  SER A  21      -2.165 -15.730  -3.001  0.00  0.00    +0.000 C 
BRANCH 378 379
ATOM    379  OG  SER A  21      -0.959 -16.480  -2.971  0.00  0.00    +0.000 OA
ATOM    380  HG  SER A  21      -0.907 -16.968  -2.141  0.00  0.00    +0.000 HD
ENDBRANCH 378 379
ENDBRANCH 309 378
ENDBRANCH 305 309
ENDBRANCH 304 307
BRANCH 304 381
ATOM    381  CB  LEU A  22      -4.186 -11.853   0.099  0.00  0.00    +0.000 C 
BRANCH 381 382
ATOM    382  CG  LEU A  22      -4.138 -13.151   0.913  0.00  0.00    +0.000 C 
ATOM    383  CD1 LEU A  22      -3.915 -12.854   2.388  0.00  0.00    +0.000 C 
ATOM    384  CD2 LEU A  22      -5.410 -13.963   0.714  0.00  0.00    +0.000 C 
ENDBRANCH 381 382
ENDBRANCH 304 381
ENDBRANCH 300 304
ENDBRANCH 299 302
BRANCH 299 385
ATOM    385  CB  CYS A  23      -2.126  -8.024  -2.575  0.00  0.00    +0.000 C 
BRANCH 385 386
ATOM    386  SG  CYS A  23      -2.401  -8.049  -0.784  0.00  0.00    +0.000 S 
ATOM    387  HG  CYS A  23      -3.228  -8.655  -0.201  0.00  0.00    +0.000 HD
ENDBRANCH 385 386
ENDBRANCH 299 385
ENDBRANCH 295 299
ENDBRANCH 294 297
BRANCH 294 388
ATOM    388  CB  HIS A  24      -2.802 -10.126  -7.663  0.00  0.00    +0.000 C 
BRANCH 388 389
ATOM    389  CG  HIS A  24      -2.529 -10.651  -9.041  0.00  0.00    +0.000 C 
ATOM    390  ND1 HIS A  24      -2.566 -11.992  -9.360  0.00  0.00    +0.000 N 
ATOM    391  CD2 HIS A  24      -2.205 -10.004 -10.187  0.00  0.00    +0.000 C 
ATOM    392  CE1 HIS A  24      -2.273 -12.147 -10.639  0.00  0.00    +0.000 C 
ATOM    393  NE2 HIS A  24      -2.052 -10.958 -11.163  0.00  0.00    +0.000 N 
ATOM    394  HD1 HIS A  24      -2.784 -12.726  -8.741  0.00  0.00    +0.000 HD
ATOM    395  HE2 HIS A  24      -1.713 -10.794 -12.073  0.00  0.00    +0.000 HD
ENDBRANCH 388 389
ENDBRANCH 294 388
ENDBRANCH 290 294
ENDBRANCH 288 292
ENDBRANCH 284 288
ENDBRANCH 283 286
BRANCH 283 396
ATOM    396  CB  THR A  26       5.582 -10.872  -7.804  0.00  0.00    +0.000 C 
ATOM    397  CG2 THR A  26       6.516 -12.069  -7.736  0.00  0.00    +0.000 C 
BRANCH 396 398
ATOM    398  OG1 THR A  26       4.474 -11.192  -8.659  0.00  0.00    +0.000 OA
ATOM    399  HG1 THR A  26       3.753 -10.573  -8.491  0.00  0.00    +0.000 HD
ENDBRANCH 396 398
ENDBRANCH 283 396
ENDBRANCH 279 283
ENDBRANCH 278 281
BRANCH 278 400
ATOM    400  CB  PHE A  27       7.826 -10.222  -2.612  0.00  0.00    +0.000 C 
BRANCH 400 401
ATOM    401  CG  PHE A  27       6.495  -9.770  -2.091  0.00  0.00    +0.000 A 
ATOM    402  CD1 PHE A  27       6.138  -8.433  -2.123  0.00  0.00    +0.000 A 
ATOM    403  CD2 PHE A  27       5.601 -10.687  -1.568  0.00  0.00    +0.000 A 
ATOM    404  CE1 PHE A  27       4.915  -8.021  -1.642  0.00  0.00    +0.000 A 
ATOM    405  CE2 PHE A  27       4.377 -10.283  -1.086  0.00  0.00    +0.000 A 
ATOM    406  CZ  PHE A  27       4.032  -8.948  -1.123  0.00  0.00    +0.000 A 
ENDBRANCH 400 401
ENDBRANCH 278 400
ENDBRANCH 274 278
ENDBRANCH 273 276
BRANCH 273 407
ATOM    407  CB  ASN A  28      12.241  -9.107  -5.951  0.00  0.00    +0.000 C 
BRANCH 407 408
ATOM    408  CG  ASN A  28      13.201  -9.839  -6.876  0.00  0.00    +0.000 C 
ATOM    409  OD1 ASN A  28      12.809 -10.325  -7.937  0.00  0.00    +0.000 OA
ATOM    410  ND2 ASN A  28      14.467  -9.921  -6.487  0.00  0.00    +0.000 N 
ATOM    411 HD21 ASN A  28      14.717  -9.510  -5.635  0.00  0.00    +0.000 HD
ATOM    412 HD22 ASN A  28      15.100 -10.397  -7.067  0.00  0.00    +0.000 HD
ENDBRANCH 407 408
ENDBRANCH 273 407
ENDBRANCH 269 273
ENDBRANCH 268 271
BRANCH 268 413
ATOM    413  CB  ASP A  29      13.403  -6.848  -1.464  0.00  0.00    +0.000 C 
BRANCH 413 414
ATOM    414  CG  ASP A  29      14.276  -6.128  -2.467  0.00  0.00    +0.000 C 
ATOM    415  OD1 ASP A  29      15.509  -6.322  -2.432  0.00  0.00    +0.000 OA
ATOM    416  OD2 ASP A  29      13.733  -5.363  -3.294  0.00  0.00    +0.000 OA
ENDBRANCH 413 414
ENDBRANCH 268 413
ENDBRANCH 261 268
ENDBRANCH 257 264
ENDBRANCH 256 259
BRANCH 256 417
ATOM    417  CB  VAL A  31      12.525  -5.884   4.098  0.00  0.00    +0.000 C 
ATOM    418  CG1 VAL A  31      13.399  -6.251   5.290  0.00  0.00    +0.000 C 
ATOM    419  CG2 VAL A  31      13.374  -5.293   2.982  0.00  0.00    +0.000 C 
ENDBRANCH 256 417
ENDBRANCH 252 256
ENDBRANCH 251 254
BRANCH 251 420
ATOM    420  CB  MET A  32      10.069  -6.586  -0.904  0.00  0.00    +0.000 C 
BRANCH 420 421
ATOM    421  CG  MET A  32       9.044  -6.256  -1.974  0.00  0.00    +0.000 C 
BRANCH 421 422
ATOM    422  SD  MET A  32       9.560  -6.820  -3.609  0.00  0.00    +0.000 S 
ATOM    423  CE  MET A  32       8.329  -6.032  -4.647  0.00  0.00    +0.000 C 
ENDBRANCH 421 422
ENDBRANCH 420 421
ENDBRANCH 251 420
ENDBRANCH 247 251
ENDBRANCH 245 249
ENDBRANCH 241 245
ENDBRANCH 240 243
BRANCH 240 424
ATOM    424  CB  GLN A  34       8.602  -9.375   6.121  0.00  0.00    +0.000 C 
BRANCH 424 425
ATOM    425  CG  GLN A  34       8.333  -9.268   7.614  0.00  0.00    +0.000 C 
BRANCH 425 426
ATOM    426  CD  GLN A  34       9.027  -8.074   8.235  0.00  0.00    +0.000 C 
ATOM    427  OE1 GLN A  34       9.226  -7.046   7.585  0.00  0.00    +0.000 OA
ATOM    428  NE2 GLN A  34       9.408  -8.203   9.495  0.00  0.00    +0.000 N 
ATOM    429 HE21 GLN A  34       9.226  -9.055   9.951  0.00  0.00    +0.000 HD
ATOM    430 HE22 GLN A  34       9.853  -7.442   9.922  0.00  0.00    +0.000 HD
ENDBRANCH 425 426
ENDBRANCH 424 425
ENDBRANCH 240 424
ENDBRANCH 236 240
ENDBRANCH 235 238
BRANCH 235 431
ATOM    431  CB  GLN A  35       7.410  -4.420   4.587  0.00  0.00    +0.000 C 
BRANCH 431 432
ATOM    432  CG  GLN A  35       8.619  -3.978   5.391  0.00  0.00    +0.000 C 
BRANCH 432 433
ATOM    433  CD  GLN A  35       8.288  -2.869   6.365  0.00  0.00    +0.000 C 
ATOM    434  OE1 GLN A  35       7.921  -3.119   7.514  0.00  0.00    +0.000 OA
ATOM    435  NE2 GLN A  35       8.418  -1.633   5.906  0.00  0.00    +0.000 N 
ATOM    436 HE21 GLN A  35       8.717  -1.513   4.979  0.00  0.00    +0.000 HD
ATOM    437 HE22 GLN A  35       8.211  -0.887   6.508  0.00  0.00    +0.000 HD
ENDBRANCH 432 433
ENDBRANCH 431 432
ENDBRANCH 235 431
ENDBRANCH 231 235
ENDBRANCH 230 233
BRANCH 230 438
ATOM    438  CB  HIS A  36       3.637  -6.350   1.500  0.00  0.00    +0.000 C 
BRANCH 438 439
ATOM    439  CG  HIS A  36       2.307  -6.451   0.810  0.00  0.00    +0.000 A 
ATOM    440  ND1 HIS A  36       1.732  -5.432   0.083  0.00  0.00    +0.000 N 
ATOM    441  CD2 HIS A  36       1.432  -7.484   0.755  0.00  0.00    +0.000 A 
ATOM    442  CE1 HIS A  36       0.552  -5.861  -0.376  0.00  0.00    +0.000 A 
ATOM    443  NE2 HIS A  36       0.318  -7.114   0.006  0.00  0.00    +0.000 NA
ATOM    444  HD1 HIS A  36       2.132  -4.534  -0.084  0.00  0.00    +0.000 HD
ENDBRANCH 438 439
ENDBRANCH 230 438
ENDBRANCH 226 230
ENDBRANCH   1 228
BRANCH   1 445
ATOM    445  CB  TYR A  37       3.005 -10.338   5.199  0.00  0.00    +0.000 C 
BRANCH 445 446
ATOM    446  CG  TYR A  37       3.282 -11.204   3.986  0.00  0.00    +0.000 A 
ATOM    447  CD1 TYR A  37       2.257 -11.602   3.135  0.00  0.00    +0.000 A 
ATOM    448  CD2 TYR A  37       4.570 -11.624   3.696  0.00  0.00    +0.000 A 
ATOM    449  CE1 TYR A  37       2.513 -12.393   2.030  0.00  0.00    +0.000 A 
ATOM    450  CE2 TYR A  37       4.835 -12.414   2.597  0.00  0.00    +0.000 A 
ATOM    451  CZ  TYR A  37       3.806 -12.795   1.767  0.00  0.00    +0.000 A 
BRANCH 451 452
ATOM    452  OH  TYR A  37       4.071 -13.585   0.674  0.00  0.00    +0.000 OA
ATOM    453  HH  TYR A  37       3.424 -13.414  -0.016  0.00  0.00    +0.000 HD
ENDBRANCH 451 452
ENDBRANCH 445 446
ENDBRANCH   1 445
TORSDOF 188
REMARK  Name = /Users/acegid/Desktop/Smoking_Research/Docking/Docking_All_PDB/All_PDB/2MKN_H.pdb
REMARK  553 active torsions:
REMARK  status: ('A' for Active; 'I' for Inactive)
REMARK    1  A    between atoms: N_1  and  CA_5
REMARK    2  A    between atoms: CA_5  and  CB_7
REMARK    3  A    between atoms: CA_5  and  C_12
REMARK    4  A    between atoms: CB_7  and  OG_10
REMARK    5  A    between atoms: C_12  and  N_14
REMARK    6  A    between atoms: N_14  and  CA_16
REMARK    7  A    between atoms: CA_16  and  CB_18
REMARK    8  A    between atoms: CA_16  and  C_26
REMARK    9  A    between atoms: CB_18  and  CG2_20
REMARK   10  A    between atoms: CB_18  and  OG1_24
REMARK   11  A    between atoms: N_28  and  CA_30
REMARK   12  A    between atoms: CA_30  and  CB_32
REMARK   13  A    between atoms: CA_30  and  C_48
REMARK   14  A    between atoms: CB_32  and  CG_35
REMARK   15  A    between atoms: CG_35  and  CD_38
REMARK   16  A    between atoms: CD_38  and  CE_41
REMARK   17  A    between atoms: CE_41  and  NZ_44
REMARK   18  A    between atoms: C_48  and  N_50
REMARK   19  A    between atoms: N_50  and  CA_52
REMARK   20  A    between atoms: CA_52  and  CB_54
REMARK   21  A    between atoms: CA_52  and  C_64
REMARK   22  A    between atoms: CB_54  and  CG1_56
REMARK   23  A    between atoms: CB_54  and  CG2_60
REMARK   24  A    between atoms: N_66  and  CA_68
REMARK   25  A    between atoms: CA_68  and  CB_70
REMARK   26  A    between atoms: CA_68  and  C_79
REMARK   27  A    between atoms: CB_70  and  CG_73
REMARK   28  A    between atoms: CG_73  and  CD_76
REMARK   29  A    between atoms: N_81  and  CA_83
REMARK   30  A    between atoms: CA_83  and  CB_85
REMARK   31  A    between atoms: CA_83  and  C_89
REMARK   32  A    between atoms: N_91  and  CA_93
REMARK   33  A    between atoms: CA_93  and  CB_95
REMARK   34  A    between atoms: CA_93  and  C_108
REMARK   35  A    between atoms: CB_95  and  CG_98
REMARK   36  A    between atoms: CG_98  and  CD1_100
REMARK   37  A    between atoms: CG_98  and  CD2_104
REMARK   38  A    between atoms: C_108  and  N_110
REMARK   39  A    between atoms: N_110  and  CA_112
REMARK   40  A    between atoms: CA_112  and  CB_114
REMARK   41  A    between atoms: CA_112  and  C_125
REMARK   42  A    between atoms: CB_114  and  CG_117
REMARK   43  A    between atoms: N_127  and  CA_129
REMARK   44  A    between atoms: CA_129  and  CB_131
REMARK   45  A    between atoms: CA_129  and  C_142
REMARK   46  A    between atoms: CB_131  and  CG_134
REMARK   47  A    between atoms: CG_134  and  CD_137
REMARK   48  A    between atoms: N_144  and  CA_146
REMARK   49  A    between atoms: CA_146  and  CB_148
REMARK   50  A    between atoms: CB_148  and  CG_151
REMARK   51  A    between atoms: N_158  and  CA_160
REMARK   52  A    between atoms: CA_160  and  CB_162
REMARK   53  A    between atoms: CA_160  and  C_180
REMARK   54  A    between atoms: CB_162  and  CG_165
REMARK   55  A    between atoms: CG_165  and  CD_168
REMARK   56  A    between atoms: CD_168  and  NE_171
REMARK   57  A    between atoms: N_182  and  CA_184
REMARK   58  A    between atoms: CA_184  and  CB_186
REMARK   59  A    between atoms: CA_184  and  C_195
REMARK   60  A    between atoms: CB_186  and  CG_189
REMARK   61  A    between atoms: CG_189  and  CD_192
REMARK   62  A    between atoms: N_197  and  CA_199
REMARK   63  A    between atoms: CA_199  and  CB_201
REMARK   64  A    between atoms: CB_201  and  CG_204
REMARK   65  A    between atoms: CG_204  and  SD_207
REMARK   66  A    between atoms: SD_207  and  CE_208
REMARK   67  A    between atoms: CA_215  and  C_217
REMARK   68  A    between atoms: CA_215  and  CB_219
REMARK   69  A    between atoms: CB_219  and  CG1_221
REMARK   70  A    between atoms: CB_219  and  CG2_224
REMARK   71  A    between atoms: CG1_221  and  CD1_228
REMARK   72  A    between atoms: N_233  and  CA_234
REMARK   73  A    between atoms: CA_234  and  C_236
REMARK   74  A    between atoms: CA_234  and  CB_238
REMARK   75  A    between atoms: CB_238  and  CG_241
REMARK   76  A    between atoms: CA_246  and  C_248
REMARK   77  A    between atoms: N_259  and  CA_260
REMARK   78  A    between atoms: CA_260  and  C_262
REMARK   79  A    between atoms: CA_260  and  CB_264
REMARK   80  A    between atoms: CB_264  and  CG_267
REMARK   81  A    between atoms: N_271  and  CA_272
REMARK   82  A    between atoms: CA_272  and  C_274
REMARK   83  A    between atoms: CA_272  and  CB_276
REMARK   84  A    between atoms: CB_276  and  CG_279
REMARK   85  A    between atoms: CG_279  and  CD_282
REMARK   86  A    between atoms: CD_282  and  CE_285
REMARK   87  A    between atoms: CE_285  and  NZ_288
REMARK   88  A    between atoms: N_293  and  CA_294
REMARK   89  A    between atoms: CA_294  and  C_296
REMARK   90  A    between atoms: CA_294  and  CB_298
REMARK   91  A    between atoms: CB_298  and  CG_301
REMARK   92  A    between atoms: N_313  and  CA_314
REMARK   93  A    between atoms: CA_314  and  C_316
REMARK   94  A    between atoms: CA_314  and  CB_318
REMARK   95  A    between atoms: CB_318  and  SG_321
REMARK   96  A    between atoms: N_324  and  CA_325
REMARK   97  A    between atoms: CA_325  and  C_327
REMARK   98  A    between atoms: CA_325  and  CB_329
REMARK   99  A    between atoms: CB_329  and  OG_332
REMARK  100  A    between atoms: N_335  and  CA_336
REMARK  101  A    between atoms: CA_336  and  C_338
REMARK  102  A    between atoms: CA_336  and  CB_340
REMARK  103  A    between atoms: CB_340  and  CG_343
REMARK  104  A    between atoms: CG_343  and  CD1_345
REMARK  105  A    between atoms: CG_343  and  CD2_349
REMARK  106  A    between atoms: N_354  and  CA_355
REMARK  107  A    between atoms: CA_355  and  C_357
REMARK  108  A    between atoms: CA_355  and  CB_359
REMARK  109  A    between atoms: CB_359  and  SG_362
REMARK  110  A    between atoms: N_365  and  CA_366
REMARK  111  A    between atoms: CA_366  and  C_368
REMARK  112  A    between atoms: CA_366  and  CB_370
REMARK  113  A    between atoms: CB_370  and  CG_373
REMARK  114  A    between atoms: N_383  and  CA_384
REMARK  115  A    between atoms: CA_384  and  C_386
REMARK  116  A    between atoms: CA_384  and  CB_388
REMARK  117  A    between atoms: N_393  and  CA_394
REMARK  118  A    between atoms: CA_394  and  C_396
REMARK  119  A    between atoms: CA_394  and  CB_398
REMARK  120  A    between atoms: CB_398  and  OG1_400
REMARK  121  A    between atoms: CB_398  and  CG2_401
REMARK  122  A    between atoms: N_407  and  CA_408
REMARK  123  A    between atoms: CA_408  and  C_410
REMARK  124  A    between atoms: CA_408  and  CB_412
REMARK  125  A    between atoms: CB_412  and  CG_415
REMARK  126  A    between atoms: N_427  and  CA_428
REMARK  127  A    between atoms: CA_428  and  C_430
REMARK  128  A    between atoms: CA_428  and  CB_432
REMARK  129  A    between atoms: CB_432  and  CG_435
REMARK  130  A    between atoms: N_441  and  CA_442
REMARK  131  A    between atoms: CA_442  and  C_444
REMARK  132  A    between atoms: CA_442  and  CB_446
REMARK  133  A    between atoms: CB_446  and  CG_449
REMARK  134  A    between atoms: CA_454  and  C_456
REMARK  135  A    between atoms: N_467  and  CA_468
REMARK  136  A    between atoms: CA_468  and  C_470
REMARK  137  A    between atoms: CA_468  and  CB_472
REMARK  138  A    between atoms: CB_472  and  CG1_474
REMARK  139  A    between atoms: CB_472  and  CG2_478
REMARK  140  A    between atoms: N_483  and  CA_484
REMARK  141  A    between atoms: CA_484  and  C_486
REMARK  142  A    between atoms: CA_484  and  CB_488
REMARK  143  A    between atoms: CB_488  and  CG_491
REMARK  144  A    between atoms: CG_491  and  SD_494
REMARK  145  A    between atoms: SD_494  and  CE_495
REMARK  146  A    between atoms: N_500  and  CA_501
REMARK  147  A    between atoms: CA_501  and  C_503
REMARK  148  A    between atoms: CA_501  and  CB_505
REMARK  149  A    between atoms: N_510  and  CA_511
REMARK  150  A    between atoms: CA_511  and  C_513
REMARK  151  A    between atoms: CA_511  and  CB_515
REMARK  152  A    between atoms: CB_515  and  CG_518
REMARK  153  A    between atoms: CG_518  and  CD_521
REMARK  154  A    between atoms: N_527  and  CA_528
REMARK  155  A    between atoms: CA_528  and  C_530
REMARK  156  A    between atoms: CA_528  and  CB_532
REMARK  157  A    between atoms: CB_532  and  CG_535
REMARK  158  A    between atoms: CG_535  and  CD_538
REMARK  159  A    between atoms: N_544  and  CA_545
REMARK  160  A    between atoms: CA_545  and  C_547
REMARK  161  A    between atoms: CA_545  and  CB_549
REMARK  162  A    between atoms: CB_549  and  CG_552
REMARK  163  A    between atoms: N_561  and  CA_562
REMARK  164  A    between atoms: CA_562  and  C_564
REMARK  165  A    between atoms: CA_562  and  CB_566
REMARK  166  A    between atoms: CB_566  and  CG_569
REMARK  167  A    between atoms: CZ_578  and  OH_579
REMARK  168  A    between atoms: N_582  and  CA_583
REMARK  169  A    between atoms: CA_583  and  C_585
REMARK  170  A    between atoms: CA_583  and  CB_587
REMARK  171  A    between atoms: CB_587  and  CG1_589
REMARK  172  A    between atoms: CB_587  and  CG2_593
REMARK  173  A    between atoms: N_598  and  CA_599
REMARK  174  A    between atoms: CA_599  and  C_602
REMARK  175  A    between atoms: N_605  and  CA_606
REMARK  176  A    between atoms: CA_606  and  C_608
REMARK  177  A    between atoms: CA_606  and  CB_610
REMARK  178  A    between atoms: CB_610  and  CG_613
REMARK  179  A    between atoms: CG_613  and  CD_616
REMARK  180  A    between atoms: CD_616  and  CE_619
REMARK  181  A    between atoms: CE_619  and  NZ_622
REMARK  182  A    between atoms: N_627  and  CA_628
REMARK  183  A    between atoms: CA_628  and  C_630
REMARK  184  A    between atoms: CA_628  and  CB_632
REMARK  185  A    between atoms: CB_632  and  CG_635
REMARK  186  A    between atoms: CG_635  and  CD_638
REMARK  187  A    between atoms: CD_638  and  CE_641
REMARK  188  A    between atoms: CE_641  and  NZ_644
REMARK  189  A    between atoms: N_649  and  CA_650
REMARK  190  A    between atoms: CA_650  and  C_652
REMARK  191  A    between atoms: CA_650  and  CB_654
REMARK  192  A    between atoms: CB_654  and  CG_657
REMARK  193  A    between atoms: N_666  and  CA_667
REMARK  194  A    between atoms: CA_667  and  C_669
REMARK  195  A    between atoms: CA_667  and  CB_671
REMARK  196  A    between atoms: CB_671  and  CG_674
REMARK  197  A    between atoms: CG_674  and  CD_677
REMARK  198  A    between atoms: CD_677  and  NE_680
REMARK  199  A    between atoms: N_690  and  CA_691
REMARK  200  A    between atoms: CA_691  and  C_693
REMARK  201  A    between atoms: CA_691  and  CB_695
REMARK  202  A    between atoms: CB_695  and  CG_698
REMARK  203  A    between atoms: CG_698  and  CD_701
REMARK  204  A    between atoms: CD_701  and  CE_704
REMARK  205  A    between atoms: CE_704  and  NZ_707
REMARK  206  A    between atoms: N_712  and  CA_713
REMARK  207  A    between atoms: CA_713  and  C_715
REMARK  208  A    between atoms: CA_713  and  CB_717
REMARK  209  A    between atoms: CB_717  and  CG_720
REMARK  210  A    between atoms: CG_720  and  CD_723
REMARK  211  A    between atoms: N_729  and  CA_730
REMARK  212  A    between atoms: CA_730  and  C_732
REMARK  213  A    between atoms: CA_730  and  CB_734
REMARK  214  A    between atoms: CB_734  and  CG_737
REMARK  215  A    between atoms: CG_737  and  CD_740
REMARK  216  A    between atoms: N_744  and  CA_745
REMARK  217  A    between atoms: CA_745  and  C_747
REMARK  218  A    between atoms: CA_745  and  CB_749
REMARK  219  A    between atoms: CB_749  and  OG1_751
REMARK  220  A    between atoms: CB_749  and  CG2_752
REMARK  221  A    between atoms: N_758  and  CA_759
REMARK  222  A    between atoms: CA_759  and  C_761
REMARK  223  A    between atoms: CA_759  and  CB_763
REMARK  224  A    between atoms: CB_763  and  CG_766
REMARK  225  A    between atoms: CG_766  and  CD_769
REMARK  226  A    between atoms: CD_769  and  CE_772
REMARK  227  A    between atoms: CE_772  and  NZ_775
REMARK  228  A    between atoms: N_780  and  CA_781
REMARK  229  A    between atoms: CA_781  and  C_783
REMARK  230  A    between atoms: CA_781  and  CB_785
REMARK  231  A    between atoms: CB_785  and  CG_788
REMARK  232  A    between atoms: CG_788  and  CD1_790
REMARK  233  A    between atoms: CG_788  and  CD2_794
REMARK  234  A    between atoms: N_799  and  CA_800
REMARK  235  A    between atoms: CA_800  and  C_802
REMARK  236  A    between atoms: CA_800  and  CB_804
REMARK  237  A    between atoms: CB_804  and  CG_807
REMARK  238  A    between atoms: CG_807  and  CD_810
REMARK  239  A    between atoms: CD_810  and  CE_813
REMARK  240  A    between atoms: CE_813  and  NZ_816
REMARK  241  A    between atoms: N_821  and  CA_822
REMARK  242  A    between atoms: CA_822  and  C_824
REMARK  243  A    between atoms: CA_822  and  CB_826
REMARK  244  A    between atoms: CB_826  and  CG_829
REMARK  245  A    between atoms: CG_829  and  CD1_831
REMARK  246  A    between atoms: CG_829  and  CD2_835
REMARK  247  A    between atoms: N_840  and  CA_841
REMARK  248  A    between atoms: CA_841  and  C_843
REMARK  249  A    between atoms: CA_841  and  CB_845
REMARK  250  A    between atoms: CB_845  and  CG_848
REMARK  251  A    between atoms: CG_848  and  SD_851
REMARK  252  A    between atoms: SD_851  and  CE_852
REMARK  253  A    between atoms: N_857  and  CA_858
REMARK  254  A    between atoms: CA_858  and  C_860
REMARK  255  A    between atoms: CA_858  and  CB_862
REMARK  256  A    between atoms: N_867  and  CA_868
REMARK  257  A    between atoms: CA_868  and  C_870
REMARK  258  A    between atoms: CA_868  and  CB_872
REMARK  259  A    between atoms: CB_872  and  CG_875
REMARK  260  A    between atoms: CG_875  and  CD_878
REMARK  261  A    between atoms: CD_878  and  NE_881
REMARK  262  A    between atoms: N_891  and  CA_892
REMARK  263  A    between atoms: CA_892  and  C_894
REMARK  264  A    between atoms: CA_892  and  CB_896
REMARK  265  A    between atoms: CB_896  and  CG_899
REMARK  266  A    between atoms: CZ_908  and  OH_909
REMARK  267  A    between atoms: N_912  and  CA_913
REMARK  268  A    between atoms: CA_913  and  C_916
REMARK  269  A    between atoms: N_919  and  CA_920
REMARK  270  A    between atoms: CA_920  and  CB_924
REMARK  271  A    between atoms: O_923  and  N_943
REMARK  272  A    between atoms: CB_924  and  CG_927
REMARK  273  A    between atoms: CG_927  and  CD_930
REMARK  274  A    between atoms: CD_930  and  NE_933
REMARK  275  A    between atoms: N_943  and  CA_945
REMARK  276  A    between atoms: CA_945  and  CB_947
REMARK  277  A    between atoms: CA_945  and  C_960
REMARK  278  A    between atoms: CB_947  and  CG_950
REMARK  279  A    between atoms: CG_950  and  CD1_952
REMARK  280  A    between atoms: CG_950  and  CD2_956
REMARK  281  A    between atoms: N_962  and  CA_964
REMARK  282  A    between atoms: CA_964  and  CB_966
REMARK  283  A    between atoms: CA_964  and  C_970
REMARK  284  A    between atoms: N_972  and  CA_974
REMARK  285  A    between atoms: CA_974  and  CB_976
REMARK  286  A    between atoms: CA_974  and  C_982
REMARK  287  A    between atoms: CB_976  and  CG_979
REMARK  288  A    between atoms: O5'_985  and  C5'_986
REMARK  289  A    between atoms: C5'_986  and  C4'_987
REMARK  290  A    between atoms: C3'_989  and  O3'_990
REMARK  291  A    between atoms: O3'_990  and  P_1017
REMARK  292  A    between atoms: C2'_991  and  O2'_992
REMARK  293  A    between atoms: C1'_993  and  N9_994
REMARK  294  A    between atoms: P_1017  and  O5'_1020
REMARK  295  A    between atoms: O5'_1020  and  C5'_1021
REMARK  296  A    between atoms: C5'_1021  and  C4'_1022
REMARK  297  A    between atoms: C3'_1024  and  O3'_1025
REMARK  298  A    between atoms: O3'_1025  and  P_1048
REMARK  299  A    between atoms: C2'_1026  and  O2'_1027
REMARK  300  A    between atoms: C1'_1028  and  N1_1029
REMARK  301  A    between atoms: P_1048  and  O5'_1051
REMARK  302  A    between atoms: O5'_1051  and  C5'_1052
REMARK  303  A    between atoms: C5'_1052  and  C4'_1053
REMARK  304  A    between atoms: C3'_1055  and  O3'_1056
REMARK  305  A    between atoms: O3'_1056  and  P_1079
REMARK  306  A    between atoms: C2'_1057  and  O2'_1058
REMARK  307  A    between atoms: C1'_1059  and  N1_1060
REMARK  308  A    between atoms: P_1079  and  O5'_1082
REMARK  309  A    between atoms: O5'_1082  and  C5'_1083
REMARK  310  A    between atoms: C5'_1083  and  C4'_1084
REMARK  311  A    between atoms: C3'_1086  and  O3'_1087
REMARK  312  A    between atoms: O3'_1087  and  P_1113
REMARK  313  A    between atoms: C2'_1088  and  O2'_1089
REMARK  314  A    between atoms: C1'_1090  and  N9_1091
REMARK  315  A    between atoms: P_1113  and  O5'_1116
REMARK  316  A    between atoms: O5'_1116  and  C5'_1117
REMARK  317  A    between atoms: C5'_1117  and  C4'_1118
REMARK  318  A    between atoms: C3'_1120  and  O3'_1121
REMARK  319  A    between atoms: O3'_1121  and  P_1143
REMARK  320  A    between atoms: C2'_1122  and  O2'_1123
REMARK  321  A    between atoms: C1'_1124  and  N1_1125
REMARK  322  A    between atoms: P_1143  and  O5'_1146
REMARK  323  A    between atoms: O5'_1146  and  C5'_1147
REMARK  324  A    between atoms: C5'_1147  and  C4'_1148
REMARK  325  A    between atoms: C3'_1150  and  O3'_1151
REMARK  326  A    between atoms: O3'_1151  and  P_1177
REMARK  327  A    between atoms: C2'_1152  and  O2'_1153
REMARK  328  A    between atoms: C1'_1154  and  N9_1155
REMARK  329  A    between atoms: P_1177  and  O5'_1180
REMARK  330  A    between atoms: O5'_1180  and  C5'_1181
REMARK  331  A    between atoms: C5'_1181  and  C4'_1182
REMARK  332  A    between atoms: C3'_1184  and  O3'_1185
REMARK  333  A    between atoms: O3'_1185  and  P_1211
REMARK  334  A    between atoms: C2'_1186  and  O2'_1187
REMARK  335  A    between atoms: C1'_1188  and  N9_1189
REMARK  336  A    between atoms: P_1211  and  O5'_1214
REMARK  337  A    between atoms: O5'_1214  and  C5'_1215
REMARK  338  A    between atoms: C5'_1215  and  C4'_1216
REMARK  339  A    between atoms: C3'_1218  and  O3'_1219
REMARK  340  A    between atoms: O3'_1219  and  P_1241
REMARK  341  A    between atoms: C2'_1220  and  O2'_1221
REMARK  342  A    between atoms: C1'_1222  and  N1_1223
REMARK  343  A    between atoms: P_1241  and  O5'_1244
REMARK  344  A    between atoms: O5'_1244  and  C5'_1245
REMARK  345  A    between atoms: C5'_1245  and  C4'_1246
REMARK  346  A    between atoms: C3'_1248  and  O3'_1249
REMARK  347  A    between atoms: O3'_1249  and  P_1272
REMARK  348  A    between atoms: C2'_1250  and  O2'_1251
REMARK  349  A    between atoms: C1'_1252  and  N1_1253
REMARK  350  A    between atoms: P_1272  and  O5'_1275
REMARK  351  A    between atoms: O5'_1275  and  C5'_1276
REMARK  352  A    between atoms: C5'_1276  and  C4'_1277
REMARK  353  A    between atoms: C3'_1279  and  O3'_1280
REMARK  354  A    between atoms: O3'_1280  and  P_1302
REMARK  355  A    between atoms: C2'_1281  and  O2'_1282
REMARK  356  A    between atoms: C1'_1283  and  N1_1284
REMARK  357  A    between atoms: P_1302  and  O5'_1305
REMARK  358  A    between atoms: O5'_1305  and  C5'_1306
REMARK  359  A    between atoms: C5'_1306  and  C4'_1307
REMARK  360  A    between atoms: C3'_1309  and  O3'_1310
REMARK  361  A    between atoms: O3'_1310  and  P_1336
REMARK  362  A    between atoms: C2'_1311  and  O2'_1312
REMARK  363  A    between atoms: C1'_1313  and  N9_1314
REMARK  364  A    between atoms: P_1336  and  O5'_1339
REMARK  365  A    between atoms: O5'_1339  and  C5'_1340
REMARK  366  A    between atoms: C5'_1340  and  C4'_1341
REMARK  367  A    between atoms: C3'_1343  and  O3'_1344
REMARK  368  A    between atoms: O3'_1344  and  P_1370
REMARK  369  A    between atoms: C2'_1345  and  O2'_1346
REMARK  370  A    between atoms: C1'_1347  and  N9_1348
REMARK  371  A    between atoms: P_1370  and  O5'_1373
REMARK  372  A    between atoms: O5'_1373  and  C5'_1374
REMARK  373  A    between atoms: C5'_1374  and  C4'_1375
REMARK  374  A    between atoms: C3'_1377  and  O3'_1378
REMARK  375  A    between atoms: O3'_1378  and  P_1400
REMARK  376  A    between atoms: C2'_1379  and  O2'_1380
REMARK  377  A    between atoms: C1'_1381  and  N1_1382
REMARK  378  A    between atoms: P_1400  and  O5'_1403
REMARK  379  A    between atoms: O5'_1403  and  C5'_1404
REMARK  380  A    between atoms: C5'_1404  and  C4'_1405
REMARK  381  A    between atoms: C3'_1407  and  O3'_1408
REMARK  382  A    between atoms: O3'_1408  and  P_1434
REMARK  383  A    between atoms: C2'_1409  and  O2'_1410
REMARK  384  A    between atoms: C1'_1411  and  N9_1412
REMARK  385  A    between atoms: P_1434  and  O5'_1437
REMARK  386  A    between atoms: O5'_1437  and  C5'_1438
REMARK  387  A    between atoms: C5'_1438  and  C4'_1439
REMARK  388  A    between atoms: C3'_1441  and  O3'_1442
REMARK  389  A    between atoms: O3'_1442  and  P_1468
REMARK  390  A    between atoms: C2'_1443  and  O2'_1444
REMARK  391  A    between atoms: C1'_1445  and  N9_1446
REMARK  392  A    between atoms: P_1468  and  O5'_1471
REMARK  393  A    between atoms: O5'_1471  and  C5'_1472
REMARK  394  A    between atoms: C5'_1472  and  C4'_1473
REMARK  395  A    between atoms: C3'_1475  and  O3'_1476
REMARK  396  A    between atoms: O3'_1476  and  P_1499
REMARK  397  A    between atoms: C2'_1477  and  O2'_1478
REMARK  398  A    between atoms: C1'_1479  and  N1_1480
REMARK  399  A    between atoms: P_1499  and  O5'_1502
REMARK  400  A    between atoms: O5'_1502  and  C5'_1503
REMARK  401  A    between atoms: C5'_1503  and  C4'_1504
REMARK  402  A    between atoms: C3'_1506  and  O3'_1507
REMARK  403  A    between atoms: O3'_1507  and  P_1530
REMARK  404  A    between atoms: C2'_1508  and  O2'_1509
REMARK  405  A    between atoms: C1'_1510  and  N1_1511
REMARK  406  A    between atoms: P_1530  and  O5'_1533
REMARK  407  A    between atoms: O5'_1533  and  C5'_1534
REMARK  408  A    between atoms: C5'_1534  and  C4'_1535
REMARK  409  A    between atoms: C3'_1537  and  O3'_1538
REMARK  410  A    between atoms: O3'_1538  and  P_1564
REMARK  411  A    between atoms: C2'_1539  and  O2'_1540
REMARK  412  A    between atoms: C1'_1541  and  N9_1542
REMARK  413  A    between atoms: P_1564  and  O5'_1567
REMARK  414  A    between atoms: O5'_1567  and  C5'_1568
REMARK  415  A    between atoms: C5'_1568  and  C4'_1569
REMARK  416  A    between atoms: C3'_1571  and  O3'_1572
REMARK  417  A    between atoms: C2'_1574  and  O2'_1575
REMARK  418  A    between atoms: C1'_1576  and  N9_1577
REMARK  419  A    between atoms: O5'_1602  and  C5'_1604
REMARK  420  A    between atoms: C5'_1604  and  C4'_1605
REMARK  421  A    between atoms: C3'_1607  and  O3'_1608
REMARK  422  A    between atoms: O3'_1608  and  P_1631
REMARK  423  A    between atoms: C2'_1609  and  O2'_1610
REMARK  424  A    between atoms: C1'_1611  and  N1_1612
REMARK  425  A    between atoms: P_1631  and  O5'_1634
REMARK  426  A    between atoms: O5'_1634  and  C5'_1635
REMARK  427  A    between atoms: C5'_1635  and  C4'_1636
REMARK  428  A    between atoms: C3'_1638  and  O3'_1639
REMARK  429  A    between atoms: O3'_1639  and  P_1662
REMARK  430  A    between atoms: C2'_1640  and  O2'_1641
REMARK  431  A    between atoms: C1'_1642  and  N1_1643
REMARK  432  A    between atoms: P_1662  and  O5'_1665
REMARK  433  A    between atoms: O5'_1665  and  C5'_1666
REMARK  434  A    between atoms: C5'_1666  and  C4'_1667
REMARK  435  A    between atoms: C3'_1669  and  O3'_1670
REMARK  436  A    between atoms: O3'_1670  and  P_1696
REMARK  437  A    between atoms: C2'_1671  and  O2'_1672
REMARK  438  A    between atoms: C1'_1673  and  N9_1674
REMARK  439  A    between atoms: P_1696  and  O5'_1699
REMARK  440  A    between atoms: O5'_1699  and  C5'_1700
REMARK  441  A    between atoms: C5'_1700  and  C4'_1701
REMARK  442  A    between atoms: C3'_1703  and  O3'_1704
REMARK  443  A    between atoms: O3'_1704  and  P_1730
REMARK  444  A    between atoms: C2'_1705  and  O2'_1706
REMARK  445  A    between atoms: C1'_1707  and  N9_1708
REMARK  446  A    between atoms: P_1730  and  O5'_1733
REMARK  447  A    between atoms: O5'_1733  and  C5'_1734
REMARK  448  A    between atoms: C5'_1734  and  C4'_1735
REMARK  449  A    between atoms: C3'_1737  and  O3'_1738
REMARK  450  A    between atoms: O3'_1738  and  P_1761
REMARK  451  A    between atoms: C2'_1739  and  O2'_1740
REMARK  452  A    between atoms: C1'_1741  and  N1_1742
REMARK  453  A    between atoms: P_1761  and  O5'_1764
REMARK  454  A    between atoms: O5'_1764  and  C5'_1765
REMARK  455  A    between atoms: C5'_1765  and  C4'_1766
REMARK  456  A    between atoms: C3'_1768  and  O3'_1769
REMARK  457  A    between atoms: O3'_1769  and  P_1792
REMARK  458  A    between atoms: C2'_1770  and  O2'_1771
REMARK  459  A    between atoms: C1'_1772  and  N1_1773
REMARK  460  A    between atoms: P_1792  and  O5'_1795
REMARK  461  A    between atoms: O5'_1795  and  C5'_1796
REMARK  462  A    between atoms: C5'_1796  and  C4'_1797
REMARK  463  A    between atoms: C3'_1799  and  O3'_1800
REMARK  464  A    between atoms: O3'_1800  and  P_1825
REMARK  465  A    between atoms: C2'_1801  and  O2'_1802
REMARK  466  A    between atoms: C1'_1803  and  N9_1804
REMARK  467  A    between atoms: C6_1808  and  N6_1809
REMARK  468  A    between atoms: P_1825  and  O5'_1828
REMARK  469  A    between atoms: O5'_1828  and  C5'_1829
REMARK  470  A    between atoms: C5'_1829  and  C4'_1830
REMARK  471  A    between atoms: C3'_1832  and  O3'_1833
REMARK  472  A    between atoms: O3'_1833  and  P_1856
REMARK  473  A    between atoms: C2'_1834  and  O2'_1835
REMARK  474  A    between atoms: C1'_1836  and  N1_1837
REMARK  475  A    between atoms: P_1856  and  O5'_1859
REMARK  476  A    between atoms: O5'_1859  and  C5'_1860
REMARK  477  A    between atoms: C5'_1860  and  C4'_1861
REMARK  478  A    between atoms: C3'_1863  and  O3'_1864
REMARK  479  A    between atoms: O3'_1864  and  P_1887
REMARK  480  A    between atoms: C2'_1865  and  O2'_1866
REMARK  481  A    between atoms: C1'_1867  and  N1_1868
REMARK  482  A    between atoms: P_1887  and  O5'_1890
REMARK  483  A    between atoms: O5'_1890  and  C5'_1891
REMARK  484  A    between atoms: C5'_1891  and  C4'_1892
REMARK  485  A    between atoms: C3'_1894  and  O3'_1895
REMARK  486  A    between atoms: O3'_1895  and  P_1920
REMARK  487  A    between atoms: C2'_1896  and  O2'_1897
REMARK  488  A    between atoms: C1'_1898  and  N9_1899
REMARK  489  A    between atoms: C6_1903  and  N6_1904
REMARK  490  A    between atoms: P_1920  and  O5'_1923
REMARK  491  A    between atoms: O5'_1923  and  C5'_1924
REMARK  492  A    between atoms: C5'_1924  and  C4'_1925
REMARK  493  A    between atoms: C3'_1927  and  O3'_1928
REMARK  494  A    between atoms: O3'_1928  and  P_1954
REMARK  495  A    between atoms: C2'_1929  and  O2'_1930
REMARK  496  A    between atoms: C1'_1931  and  N9_1932
REMARK  497  A    between atoms: P_1954  and  O5'_1957
REMARK  498  A    between atoms: O5'_1957  and  C5'_1958
REMARK  499  A    between atoms: C5'_1958  and  C4'_1959
REMARK  500  A    between atoms: C3'_1961  and  O3'_1962
REMARK  501  A    between atoms: O3'_1962  and  P_1987
REMARK  502  A    between atoms: C2'_1963  and  O2'_1964
REMARK  503  A    between atoms: C1'_1965  and  N9_1966
REMARK  504  A    between atoms: C6_1970  and  N6_1971
REMARK  505  A    between atoms: P_1987  and  O5'_1990
REMARK  506  A    between atoms: O5'_1990  and  C5'_1991
REMARK  507  A    between atoms: C5'_1991  and  C4'_1992
REMARK  508  A    between atoms: C3'_1994  and  O3'_1995
REMARK  509  A    between atoms: O3'_1995  and  P_2018
REMARK  510  A    between atoms: C2'_1996  and  O2'_1997
REMARK  511  A    between atoms: C1'_1998  and  N1_1999
REMARK  512  A    between atoms: P_2018  and  O5'_2021
REMARK  513  A    between atoms: O5'_2021  and  C5'_2022
REMARK  514  A    between atoms: C5'_2022  and  C4'_2023
REMARK  515  A    between atoms: C3'_2025  and  O3'_2026
REMARK  516  A    between atoms: O3'_2026  and  P_2049
REMARK  517  A    between atoms: C2'_2027  and  O2'_2028
REMARK  518  A    between atoms: C1'_2029  and  N1_2030
REMARK  519  A    between atoms: P_2049  and  O5'_2052
REMARK  520  A    between atoms: O5'_2052  and  C5'_2053
REMARK  521  A    between atoms: C5'_2053  and  C4'_2054
REMARK  522  A    between atoms: C3'_2056  and  O3'_2057
REMARK  523  A    between atoms: O3'_2057  and  P_2082
REMARK  524  A    between atoms: C2'_2058  and  O2'_2059
REMARK  525  A    between atoms: C1'_2060  and  N9_2061
REMARK  526  A    between atoms: C6_2065  and  N6_2066
REMARK  527  A    between atoms: P_2082  and  O5'_2085
REMARK  528  A    between atoms: O5'_2085  and  C5'_2086
REMARK  529  A    between atoms: C5'_2086  and  C4'_2087
REMARK  530  A    between atoms: C3'_2089  and  O3'_2090
REMARK  531  A    between atoms: O3'_2090  and  P_2113
REMARK  532  A    between atoms: C2'_2091  and  O2'_2092
REMARK  533  A    between atoms: C1'_2093  and  N1_2094
REMARK  534  A    between atoms: P_2113  and  O5'_2116
REMARK  535  A    between atoms: O5'_2116  and  C5'_2117
REMARK  536  A    between atoms: C5'_2117  and  C4'_2118
REMARK  537  A    between atoms: C3'_2120  and  O3'_2121
REMARK  538  A    between atoms: O3'_2121  and  P_2147
REMARK  539  A    between atoms: C2'_2122  and  O2'_2123
REMARK  540  A    between atoms: C1'_2124  and  N9_2125
REMARK  541  A    between atoms: P_2147  and  O5'_2150
REMARK  542  A    between atoms: O5'_2150  and  C5'_2151
REMARK  543  A    between atoms: C5'_2151  and  C4'_2152
REMARK  544  A    between atoms: C3'_2154  and  O3'_2155
REMARK  545  A    between atoms: O3'_2155  and  P_2181
REMARK  546  A    between atoms: C2'_2156  and  O2'_2157
REMARK  547  A    between atoms: C1'_2158  and  N9_2159
REMARK  548  A    between atoms: P_2181  and  O5'_2184
REMARK  549  A    between atoms: O5'_2184  and  C5'_2185
REMARK  550  A    between atoms: C5'_2185  and  C4'_2186
REMARK  551  A    between atoms: C3'_2188  and  O3'_2189
REMARK  552  A    between atoms: C2'_2190  and  O2'_2191
REMARK  553  A    between atoms: C1'_2192  and  N1_2193
REMARK                            x       y       z     vdW  Elec       q    Type
REMARK                         _______ _______ _______ _____ _____    ______ ____
ROOT
ATOM      1  CA  ALA A  59     -26.245 -24.699  -4.451  0.00  0.00    +0.000 C 
ATOM      2  CB  ALA A  59     -25.381 -25.903  -4.816  0.00  0.00    +0.000 C 
ENDROOT
BRANCH   1   3
ATOM      3  C   ALA A  59     -27.294 -25.676  -3.863  0.00  0.00    +0.000 C 
ATOM      4  O   ALA A  59     -27.539 -25.763  -2.642  0.00  0.00    +0.000 OA
ATOM      5  N   ASP A  60     -27.854 -26.435  -4.871  0.00  0.00    +0.000 N 
ATOM      6  H   ASP A  60     -28.398 -25.924  -5.800  0.00  0.00    +0.000 HD
BRANCH   5   7
ATOM      7  CA  ASP A  60     -28.434 -27.796  -4.757  0.00  0.00    +0.000 C 
BRANCH   7   8
ATOM      8  C   ASP A  60     -29.830 -27.921  -4.126  0.00  0.00    +0.000 C 
ATOM      9  O   ASP A  60     -30.533 -28.929  -4.412  0.00  0.00    +0.000 OA
ATOM     10  OXT ASP A  60     -30.315 -26.844  -3.742  0.00  0.00    +0.000 OA
ENDBRANCH   7   8
BRANCH   7  11
ATOM     11  CB  ASP A  60     -28.071 -29.236  -5.182  0.00  0.00    +0.000 C 
BRANCH  11  12
ATOM     12  CG  ASP A  60     -27.184 -29.980  -6.153  0.00  0.00    +0.000 C 
ATOM     13  OD1 ASP A  60     -26.437 -29.355  -6.925  0.00  0.00    +0.000 OA
ATOM     14  OD2 ASP A  60     -27.302 -31.224  -5.907  0.00  0.00    +0.000 OA
ENDBRANCH  11  12
ENDBRANCH   7  11
ENDBRANCH   5   7
ENDBRANCH   1   3
BRANCH   1  17
ATOM     15  C   LEU A  58     -24.453 -22.938  -3.709  0.00  0.00    +0.000 C 
ATOM     16  O   LEU A  58     -24.131 -22.744  -4.896  0.00  0.00    +0.000 OA
ATOM     17  N   ALA A  59     -25.383 -23.940  -3.515  0.00  0.00    +0.000 N 
ATOM     18  H   ALA A  59     -26.419 -23.597  -2.996  0.00  0.00    +0.000 HD
BRANCH  15  19
ATOM     19  CA  LEU A  58     -24.162 -21.796  -2.630  0.00  0.00    +0.000 C 
BRANCH  19  20
ATOM     20  N   LEU A  58     -23.273 -20.603  -2.936  0.00  0.00    +0.000 NA
ATOM     21  H   LEU A  58     -23.325 -20.582  -4.182  0.00  0.00    +0.000 HD
BRANCH  20  23
ATOM     22  C   ARG A  57     -23.648 -19.287  -2.930  0.00  0.00    +0.000 C 
ATOM     23  O   ARG A  57     -24.251 -20.377  -2.950  0.00  0.00    +0.000 OA
ENDBRANCH  20  23
ENDBRANCH  19  20
BRANCH  19  24
ATOM     24  CB  LEU A  58     -23.741 -21.936  -1.122  0.00  0.00    +0.000 C 
BRANCH  24  25
ATOM     25  CG  LEU A  58     -23.035 -22.893  -0.137  0.00  0.00    +0.000 C 
ATOM     26  CD1 LEU A  58     -22.971 -22.114   1.175  0.00  0.00    +0.000 C 
ATOM     27  CD2 LEU A  58     -21.835 -23.797  -0.411  0.00  0.00    +0.000 C 
ENDBRANCH  24  25
ENDBRANCH  19  24
ENDBRANCH  15  19
ENDBRANCH   1  17
TORSDOF 11
REMARK  Name = /Users/acegid/Desktop/Smoking_Research/Docking/Docking_All_PDB/All_PDB/2MKN_H.pdb
REMARK  553 active torsions:
REMARK  status: ('A' for Active; 'I' for Inactive)
REMARK    1  A    between atoms: N_1  and  CA_5
REMARK    2  A    between atoms: CA_5  and  CB_7
REMARK    3  A    between atoms: CA_5  and  C_12
REMARK    4  A    between atoms: CB_7  and  OG_10
REMARK    5  A    between atoms: C_12  and  N_14
REMARK    6  A    between atoms: N_14  and  CA_16
REMARK    7  A    between atoms: CA_16  and  CB_18
REMARK    8  A    between atoms: CA_16  and  C_26
REMARK    9  A    between atoms: CB_18  and  CG2_20
REMARK   10  A    between atoms: CB_18  and  OG1_24
REMARK   11  A    between atoms: N_28  and  CA_30
REMARK   12  A    between atoms: CA_30  and  CB_32
REMARK   13  A    between atoms: CA_30  and  C_48
REMARK   14  A    between atoms: CB_32  and  CG_35
REMARK   15  A    between atoms: CG_35  and  CD_38
REMARK   16  A    between atoms: CD_38  and  CE_41
REMARK   17  A    between atoms: CE_41  and  NZ_44
REMARK   18  A    between atoms: C_48  and  N_50
REMARK   19  A    between atoms: N_50  and  CA_52
REMARK   20  A    between atoms: CA_52  and  CB_54
REMARK   21  A    between atoms: CA_52  and  C_64
REMARK   22  A    between atoms: CB_54  and  CG1_56
REMARK   23  A    between atoms: CB_54  and  CG2_60
REMARK   24  A    between atoms: N_66  and  CA_68
REMARK   25  A    between atoms: CA_68  and  CB_70
REMARK   26  A    between atoms: CA_68  and  C_79
REMARK   27  A    between atoms: CB_70  and  CG_73
REMARK   28  A    between atoms: CG_73  and  CD_76
REMARK   29  A    between atoms: N_81  and  CA_83
REMARK   30  A    between atoms: CA_83  and  CB_85
REMARK   31  A    between atoms: CA_83  and  C_89
REMARK   32  A    between atoms: N_91  and  CA_93
REMARK   33  A    between atoms: CA_93  and  CB_95
REMARK   34  A    between atoms: CA_93  and  C_108
REMARK   35  A    between atoms: CB_95  and  CG_98
REMARK   36  A    between atoms: CG_98  and  CD1_100
REMARK   37  A    between atoms: CG_98  and  CD2_104
REMARK   38  A    between atoms: C_108  and  N_110
REMARK   39  A    between atoms: N_110  and  CA_112
REMARK   40  A    between atoms: CA_112  and  CB_114
REMARK   41  A    between atoms: CA_112  and  C_125
REMARK   42  A    between atoms: CB_114  and  CG_117
REMARK   43  A    between atoms: N_127  and  CA_129
REMARK   44  A    between atoms: CA_129  and  CB_131
REMARK   45  A    between atoms: CA_129  and  C_142
REMARK   46  A    between atoms: CB_131  and  CG_134
REMARK   47  A    between atoms: CG_134  and  CD_137
REMARK   48  A    between atoms: N_144  and  CA_146
REMARK   49  A    between atoms: CA_146  and  CB_148
REMARK   50  A    between atoms: CB_148  and  CG_151
REMARK   51  A    between atoms: N_158  and  CA_160
REMARK   52  A    between atoms: CA_160  and  CB_162
REMARK   53  A    between atoms: CA_160  and  C_180
REMARK   54  A    between atoms: CB_162  and  CG_165
REMARK   55  A    between atoms: CG_165  and  CD_168
REMARK   56  A    between atoms: CD_168  and  NE_171
REMARK   57  A    between atoms: N_182  and  CA_184
REMARK   58  A    between atoms: CA_184  and  CB_186
REMARK   59  A    between atoms: CA_184  and  C_195
REMARK   60  A    between atoms: CB_186  and  CG_189
REMARK   61  A    between atoms: CG_189  and  CD_192
REMARK   62  A    between atoms: N_197  and  CA_199
REMARK   63  A    between atoms: CA_199  and  CB_201
REMARK   64  A    between atoms: CB_201  and  CG_204
REMARK   65  A    between atoms: CG_204  and  SD_207
REMARK   66  A    between atoms: SD_207  and  CE_208
REMARK   67  A    between atoms: CA_215  and  C_217
REMARK   68  A    between atoms: CA_215  and  CB_219
REMARK   69  A    between atoms: CB_219  and  CG1_221
REMARK   70  A    between atoms: CB_219  and  CG2_224
REMARK   71  A    between atoms: CG1_221  and  CD1_228
REMARK   72  A    between atoms: N_233  and  CA_234
REMARK   73  A    between atoms: CA_234  and  C_236
REMARK   74  A    between atoms: CA_234  and  CB_238
REMARK   75  A    between atoms: CB_238  and  CG_241
REMARK   76  A    between atoms: CA_246  and  C_248
REMARK   77  A    between atoms: N_259  and  CA_260
REMARK   78  A    between atoms: CA_260  and  C_262
REMARK   79  A    between atoms: CA_260  and  CB_264
REMARK   80  A    between atoms: CB_264  and  CG_267
REMARK   81  A    between atoms: N_271  and  CA_272
REMARK   82  A    between atoms: CA_272  and  C_274
REMARK   83  A    between atoms: CA_272  and  CB_276
REMARK   84  A    between atoms: CB_276  and  CG_279
REMARK   85  A    between atoms: CG_279  and  CD_282
REMARK   86  A    between atoms: CD_282  and  CE_285
REMARK   87  A    between atoms: CE_285  and  NZ_288
REMARK   88  A    between atoms: N_293  and  CA_294
REMARK   89  A    between atoms: CA_294  and  C_296
REMARK   90  A    between atoms: CA_294  and  CB_298
REMARK   91  A    between atoms: CB_298  and  CG_301
REMARK   92  A    between atoms: N_313  and  CA_314
REMARK   93  A    between atoms: CA_314  and  C_316
REMARK   94  A    between atoms: CA_314  and  CB_318
REMARK   95  A    between atoms: CB_318  and  SG_321
REMARK   96  A    between atoms: N_324  and  CA_325
REMARK   97  A    between atoms: CA_325  and  C_327
REMARK   98  A    between atoms: CA_325  and  CB_329
REMARK   99  A    between atoms: CB_329  and  OG_332
REMARK  100  A    between atoms: N_335  and  CA_336
REMARK  101  A    between atoms: CA_336  and  C_338
REMARK  102  A    between atoms: CA_336  and  CB_340
REMARK  103  A    between atoms: CB_340  and  CG_343
REMARK  104  A    between atoms: CG_343  and  CD1_345
REMARK  105  A    between atoms: CG_343  and  CD2_349
REMARK  106  A    between atoms: N_354  and  CA_355
REMARK  107  A    between atoms: CA_355  and  C_357
REMARK  108  A    between atoms: CA_355  and  CB_359
REMARK  109  A    between atoms: CB_359  and  SG_362
REMARK  110  A    between atoms: N_365  and  CA_366
REMARK  111  A    between atoms: CA_366  and  C_368
REMARK  112  A    between atoms: CA_366  and  CB_370
REMARK  113  A    between atoms: CB_370  and  CG_373
REMARK  114  A    between atoms: N_383  and  CA_384
REMARK  115  A    between atoms: CA_384  and  C_386
REMARK  116  A    between atoms: CA_384  and  CB_388
REMARK  117  A    between atoms: N_393  and  CA_394
REMARK  118  A    between atoms: CA_394  and  C_396
REMARK  119  A    between atoms: CA_394  and  CB_398
REMARK  120  A    between atoms: CB_398  and  OG1_400
REMARK  121  A    between atoms: CB_398  and  CG2_401
REMARK  122  A    between atoms: N_407  and  CA_408
REMARK  123  A    between atoms: CA_408  and  C_410
REMARK  124  A    between atoms: CA_408  and  CB_412
REMARK  125  A    between atoms: CB_412  and  CG_415
REMARK  126  A    between atoms: N_427  and  CA_428
REMARK  127  A    between atoms: CA_428  and  C_430
REMARK  128  A    between atoms: CA_428  and  CB_432
REMARK  129  A    between atoms: CB_432  and  CG_435
REMARK  130  A    between atoms: N_441  and  CA_442
REMARK  131  A    between atoms: CA_442  and  C_444
REMARK  132  A    between atoms: CA_442  and  CB_446
REMARK  133  A    between atoms: CB_446  and  CG_449
REMARK  134  A    between atoms: CA_454  and  C_456
REMARK  135  A    between atoms: N_467  and  CA_468
REMARK  136  A    between atoms: CA_468  and  C_470
REMARK  137  A    between atoms: CA_468  and  CB_472
REMARK  138  A    between atoms: CB_472  and  CG1_474
REMARK  139  A    between atoms: CB_472  and  CG2_478
REMARK  140  A    between atoms: N_483  and  CA_484
REMARK  141  A    between atoms: CA_484  and  C_486
REMARK  142  A    between atoms: CA_484  and  CB_488
REMARK  143  A    between atoms: CB_488  and  CG_491
REMARK  144  A    between atoms: CG_491  and  SD_494
REMARK  145  A    between atoms: SD_494  and  CE_495
REMARK  146  A    between atoms: N_500  and  CA_501
REMARK  147  A    between atoms: CA_501  and  C_503
REMARK  148  A    between atoms: CA_501  and  CB_505
REMARK  149  A    between atoms: N_510  and  CA_511
REMARK  150  A    between atoms: CA_511  and  C_513
REMARK  151  A    between atoms: CA_511  and  CB_515
REMARK  152  A    between atoms: CB_515  and  CG_518
REMARK  153  A    between atoms: CG_518  and  CD_521
REMARK  154  A    between atoms: N_527  and  CA_528
REMARK  155  A    between atoms: CA_528  and  C_530
REMARK  156  A    between atoms: CA_528  and  CB_532
REMARK  157  A    between atoms: CB_532  and  CG_535
REMARK  158  A    between atoms: CG_535  and  CD_538
REMARK  159  A    between atoms: N_544  and  CA_545
REMARK  160  A    between atoms: CA_545  and  C_547
REMARK  161  A    between atoms: CA_545  and  CB_549
REMARK  162  A    between atoms: CB_549  and  CG_552
REMARK  163  A    between atoms: N_561  and  CA_562
REMARK  164  A    between atoms: CA_562  and  C_564
REMARK  165  A    between atoms: CA_562  and  CB_566
REMARK  166  A    between atoms: CB_566  and  CG_569
REMARK  167  A    between atoms: CZ_578  and  OH_579
REMARK  168  A    between atoms: N_582  and  CA_583
REMARK  169  A    between atoms: CA_583  and  C_585
REMARK  170  A    between atoms: CA_583  and  CB_587
REMARK  171  A    between atoms: CB_587  and  CG1_589
REMARK  172  A    between atoms: CB_587  and  CG2_593
REMARK  173  A    between atoms: N_598  and  CA_599
REMARK  174  A    between atoms: CA_599  and  C_602
REMARK  175  A    between atoms: N_605  and  CA_606
REMARK  176  A    between atoms: CA_606  and  C_608
REMARK  177  A    between atoms: CA_606  and  CB_610
REMARK  178  A    between atoms: CB_610  and  CG_613
REMARK  179  A    between atoms: CG_613  and  CD_616
REMARK  180  A    between atoms: CD_616  and  CE_619
REMARK  181  A    between atoms: CE_619  and  NZ_622
REMARK  182  A    between atoms: N_627  and  CA_628
REMARK  183  A    between atoms: CA_628  and  C_630
REMARK  184  A    between atoms: CA_628  and  CB_632
REMARK  185  A    between atoms: CB_632  and  CG_635
REMARK  186  A    between atoms: CG_635  and  CD_638
REMARK  187  A    between atoms: CD_638  and  CE_641
REMARK  188  A    between atoms: CE_641  and  NZ_644
REMARK  189  A    between atoms: N_649  and  CA_650
REMARK  190  A    between atoms: CA_650  and  C_652
REMARK  191  A    between atoms: CA_650  and  CB_654
REMARK  192  A    between atoms: CB_654  and  CG_657
REMARK  193  A    between atoms: N_666  and  CA_667
REMARK  194  A    between atoms: CA_667  and  C_669
REMARK  195  A    between atoms: CA_667  and  CB_671
REMARK  196  A    between atoms: CB_671  and  CG_674
REMARK  197  A    between atoms: CG_674  and  CD_677
REMARK  198  A    between atoms: CD_677  and  NE_680
REMARK  199  A    between atoms: N_690  and  CA_691
REMARK  200  A    between atoms: CA_691  and  C_693
REMARK  201  A    between atoms: CA_691  and  CB_695
REMARK  202  A    between atoms: CB_695  and  CG_698
REMARK  203  A    between atoms: CG_698  and  CD_701
REMARK  204  A    between atoms: CD_701  and  CE_704
REMARK  205  A    between atoms: CE_704  and  NZ_707
REMARK  206  A    between atoms: N_712  and  CA_713
REMARK  207  A    between atoms: CA_713  and  C_715
REMARK  208  A    between atoms: CA_713  and  CB_717
REMARK  209  A    between atoms: CB_717  and  CG_720
REMARK  210  A    between atoms: CG_720  and  CD_723
REMARK  211  A    between atoms: N_729  and  CA_730
REMARK  212  A    between atoms: CA_730  and  C_732
REMARK  213  A    between atoms: CA_730  and  CB_734
REMARK  214  A    between atoms: CB_734  and  CG_737
REMARK  215  A    between atoms: CG_737  and  CD_740
REMARK  216  A    between atoms: N_744  and  CA_745
REMARK  217  A    between atoms: CA_745  and  C_747
REMARK  218  A    between atoms: CA_745  and  CB_749
REMARK  219  A    between atoms: CB_749  and  OG1_751
REMARK  220  A    between atoms: CB_749  and  CG2_752
REMARK  221  A    between atoms: N_758  and  CA_759
REMARK  222  A    between atoms: CA_759  and  C_761
REMARK  223  A    between atoms: CA_759  and  CB_763
REMARK  224  A    between atoms: CB_763  and  CG_766
REMARK  225  A    between atoms: CG_766  and  CD_769
REMARK  226  A    between atoms: CD_769  and  CE_772
REMARK  227  A    between atoms: CE_772  and  NZ_775
REMARK  228  A    between atoms: N_780  and  CA_781
REMARK  229  A    between atoms: CA_781  and  C_783
REMARK  230  A    between atoms: CA_781  and  CB_785
REMARK  231  A    between atoms: CB_785  and  CG_788
REMARK  232  A    between atoms: CG_788  and  CD1_790
REMARK  233  A    between atoms: CG_788  and  CD2_794
REMARK  234  A    between atoms: N_799  and  CA_800
REMARK  235  A    between atoms: CA_800  and  C_802
REMARK  236  A    between atoms: CA_800  and  CB_804
REMARK  237  A    between atoms: CB_804  and  CG_807
REMARK  238  A    between atoms: CG_807  and  CD_810
REMARK  239  A    between atoms: CD_810  and  CE_813
REMARK  240  A    between atoms: CE_813  and  NZ_816
REMARK  241  A    between atoms: N_821  and  CA_822
REMARK  242  A    between atoms: CA_822  and  C_824
REMARK  243  A    between atoms: CA_822  and  CB_826
REMARK  244  A    between atoms: CB_826  and  CG_829
REMARK  245  A    between atoms: CG_829  and  CD1_831
REMARK  246  A    between atoms: CG_829  and  CD2_835
REMARK  247  A    between atoms: N_840  and  CA_841
REMARK  248  A    between atoms: CA_841  and  C_843
REMARK  249  A    between atoms: CA_841  and  CB_845
REMARK  250  A    between atoms: CB_845  and  CG_848
REMARK  251  A    between atoms: CG_848  and  SD_851
REMARK  252  A    between atoms: SD_851  and  CE_852
REMARK  253  A    between atoms: N_857  and  CA_858
REMARK  254  A    between atoms: CA_858  and  C_860
REMARK  255  A    between atoms: CA_858  and  CB_862
REMARK  256  A    between atoms: N_867  and  CA_868
REMARK  257  A    between atoms: CA_868  and  C_870
REMARK  258  A    between atoms: CA_868  and  CB_872
REMARK  259  A    between atoms: CB_872  and  CG_875
REMARK  260  A    between atoms: CG_875  and  CD_878
REMARK  261  A    between atoms: CD_878  and  NE_881
REMARK  262  A    between atoms: N_891  and  CA_892
REMARK  263  A    between atoms: CA_892  and  C_894
REMARK  264  A    between atoms: CA_892  and  CB_896
REMARK  265  A    between atoms: CB_896  and  CG_899
REMARK  266  A    between atoms: CZ_908  and  OH_909
REMARK  267  A    between atoms: N_912  and  CA_913
REMARK  268  A    between atoms: CA_913  and  C_916
REMARK  269  A    between atoms: N_919  and  CA_920
REMARK  270  A    between atoms: CA_920  and  CB_924
REMARK  271  A    between atoms: O_923  and  N_943
REMARK  272  A    between atoms: CB_924  and  CG_927
REMARK  273  A    between atoms: CG_927  and  CD_930
REMARK  274  A    between atoms: CD_930  and  NE_933
REMARK  275  A    between atoms: N_943  and  CA_945
REMARK  276  A    between atoms: CA_945  and  CB_947
REMARK  277  A    between atoms: CA_945  and  C_960
REMARK  278  A    between atoms: CB_947  and  CG_950
REMARK  279  A    between atoms: CG_950  and  CD1_952
REMARK  280  A    between atoms: CG_950  and  CD2_956
REMARK  281  A    between atoms: N_962  and  CA_964
REMARK  282  A    between atoms: CA_964  and  CB_966
REMARK  283  A    between atoms: CA_964  and  C_970
REMARK  284  A    between atoms: N_972  and  CA_974
REMARK  285  A    between atoms: CA_974  and  CB_976
REMARK  286  A    between atoms: CA_974  and  C_982
REMARK  287  A    between atoms: CB_976  and  CG_979
REMARK  288  A    between atoms: O5'_985  and  C5'_986
REMARK  289  A    between atoms: C5'_986  and  C4'_987
REMARK  290  A    between atoms: C3'_989  and  O3'_990
REMARK  291  A    between atoms: O3'_990  and  P_1017
REMARK  292  A    between atoms: C2'_991  and  O2'_992
REMARK  293  A    between atoms: C1'_993  and  N9_994
REMARK  294  A    between atoms: P_1017  and  O5'_1020
REMARK  295  A    between atoms: O5'_1020  and  C5'_1021
REMARK  296  A    between atoms: C5'_1021  and  C4'_1022
REMARK  297  A    between atoms: C3'_1024  and  O3'_1025
REMARK  298  A    between atoms: O3'_1025  and  P_1048
REMARK  299  A    between atoms: C2'_1026  and  O2'_1027
REMARK  300  A    between atoms: C1'_1028  and  N1_1029
REMARK  301  A    between atoms: P_1048  and  O5'_1051
REMARK  302  A    between atoms: O5'_1051  and  C5'_1052
REMARK  303  A    between atoms: C5'_1052  and  C4'_1053
REMARK  304  A    between atoms: C3'_1055  and  O3'_1056
REMARK  305  A    between atoms: O3'_1056  and  P_1079
REMARK  306  A    between atoms: C2'_1057  and  O2'_1058
REMARK  307  A    between atoms: C1'_1059  and  N1_1060
REMARK  308  A    between atoms: P_1079  and  O5'_1082
REMARK  309  A    between atoms: O5'_1082  and  C5'_1083
REMARK  310  A    between atoms: C5'_1083  and  C4'_1084
REMARK  311  A    between atoms: C3'_1086  and  O3'_1087
REMARK  312  A    between atoms: O3'_1087  and  P_1113
REMARK  313  A    between atoms: C2'_1088  and  O2'_1089
REMARK  314  A    between atoms: C1'_1090  and  N9_1091
REMARK  315  A    between atoms: P_1113  and  O5'_1116
REMARK  316  A    between atoms: O5'_1116  and  C5'_1117
REMARK  317  A    between atoms: C5'_1117  and  C4'_1118
REMARK  318  A    between atoms: C3'_1120  and  O3'_1121
REMARK  319  A    between atoms: O3'_1121  and  P_1143
REMARK  320  A    between atoms: C2'_1122  and  O2'_1123
REMARK  321  A    between atoms: C1'_1124  and  N1_1125
REMARK  322  A    between atoms: P_1143  and  O5'_1146
REMARK  323  A    between atoms: O5'_1146  and  C5'_1147
REMARK  324  A    between atoms: C5'_1147  and  C4'_1148
REMARK  325  A    between atoms: C3'_1150  and  O3'_1151
REMARK  326  A    between atoms: O3'_1151  and  P_1177
REMARK  327  A    between atoms: C2'_1152  and  O2'_1153
REMARK  328  A    between atoms: C1'_1154  and  N9_1155
REMARK  329  A    between atoms: P_1177  and  O5'_1180
REMARK  330  A    between atoms: O5'_1180  and  C5'_1181
REMARK  331  A    between atoms: C5'_1181  and  C4'_1182
REMARK  332  A    between atoms: C3'_1184  and  O3'_1185
REMARK  333  A    between atoms: O3'_1185  and  P_1211
REMARK  334  A    between atoms: C2'_1186  and  O2'_1187
REMARK  335  A    between atoms: C1'_1188  and  N9_1189
REMARK  336  A    between atoms: P_1211  and  O5'_1214
REMARK  337  A    between atoms: O5'_1214  and  C5'_1215
REMARK  338  A    between atoms: C5'_1215  and  C4'_1216
REMARK  339  A    between atoms: C3'_1218  and  O3'_1219
REMARK  340  A    between atoms: O3'_1219  and  P_1241
REMARK  341  A    between atoms: C2'_1220  and  O2'_1221
REMARK  342  A    between atoms: C1'_1222  and  N1_1223
REMARK  343  A    between atoms: P_1241  and  O5'_1244
REMARK  344  A    between atoms: O5'_1244  and  C5'_1245
REMARK  345  A    between atoms: C5'_1245  and  C4'_1246
REMARK  346  A    between atoms: C3'_1248  and  O3'_1249
REMARK  347  A    between atoms: O3'_1249  and  P_1272
REMARK  348  A    between atoms: C2'_1250  and  O2'_1251
REMARK  349  A    between atoms: C1'_1252  and  N1_1253
REMARK  350  A    between atoms: P_1272  and  O5'_1275
REMARK  351  A    between atoms: O5'_1275  and  C5'_1276
REMARK  352  A    between atoms: C5'_1276  and  C4'_1277
REMARK  353  A    between atoms: C3'_1279  and  O3'_1280
REMARK  354  A    between atoms: O3'_1280  and  P_1302
REMARK  355  A    between atoms: C2'_1281  and  O2'_1282
REMARK  356  A    between atoms: C1'_1283  and  N1_1284
REMARK  357  A    between atoms: P_1302  and  O5'_1305
REMARK  358  A    between atoms: O5'_1305  and  C5'_1306
REMARK  359  A    between atoms: C5'_1306  and  C4'_1307
REMARK  360  A    between atoms: C3'_1309  and  O3'_1310
REMARK  361  A    between atoms: O3'_1310  and  P_1336
REMARK  362  A    between atoms: C2'_1311  and  O2'_1312
REMARK  363  A    between atoms: C1'_1313  and  N9_1314
REMARK  364  A    between atoms: P_1336  and  O5'_1339
REMARK  365  A    between atoms: O5'_1339  and  C5'_1340
REMARK  366  A    between atoms: C5'_1340  and  C4'_1341
REMARK  367  A    between atoms: C3'_1343  and  O3'_1344
REMARK  368  A    between atoms: O3'_1344  and  P_1370
REMARK  369  A    between atoms: C2'_1345  and  O2'_1346
REMARK  370  A    between atoms: C1'_1347  and  N9_1348
REMARK  371  A    between atoms: P_1370  and  O5'_1373
REMARK  372  A    between atoms: O5'_1373  and  C5'_1374
REMARK  373  A    between atoms: C5'_1374  and  C4'_1375
REMARK  374  A    between atoms: C3'_1377  and  O3'_1378
REMARK  375  A    between atoms: O3'_1378  and  P_1400
REMARK  376  A    between atoms: C2'_1379  and  O2'_1380
REMARK  377  A    between atoms: C1'_1381  and  N1_1382
REMARK  378  A    between atoms: P_1400  and  O5'_1403
REMARK  379  A    between atoms: O5'_1403  and  C5'_1404
REMARK  380  A    between atoms: C5'_1404  and  C4'_1405
REMARK  381  A    between atoms: C3'_1407  and  O3'_1408
REMARK  382  A    between atoms: O3'_1408  and  P_1434
REMARK  383  A    between atoms: C2'_1409  and  O2'_1410
REMARK  384  A    between atoms: C1'_1411  and  N9_1412
REMARK  385  A    between atoms: P_1434  and  O5'_1437
REMARK  386  A    between atoms: O5'_1437  and  C5'_1438
REMARK  387  A    between atoms: C5'_1438  and  C4'_1439
REMARK  388  A    between atoms: C3'_1441  and  O3'_1442
REMARK  389  A    between atoms: O3'_1442  and  P_1468
REMARK  390  A    between atoms: C2'_1443  and  O2'_1444
REMARK  391  A    between atoms: C1'_1445  and  N9_1446
REMARK  392  A    between atoms: P_1468  and  O5'_1471
REMARK  393  A    between atoms: O5'_1471  and  C5'_1472
REMARK  394  A    between atoms: C5'_1472  and  C4'_1473
REMARK  395  A    between atoms: C3'_1475  and  O3'_1476
REMARK  396  A    between atoms: O3'_1476  and  P_1499
REMARK  397  A    between atoms: C2'_1477  and  O2'_1478
REMARK  398  A    between atoms: C1'_1479  and  N1_1480
REMARK  399  A    between atoms: P_1499  and  O5'_1502
REMARK  400  A    between atoms: O5'_1502  and  C5'_1503
REMARK  401  A    between atoms: C5'_1503  and  C4'_1504
REMARK  402  A    between atoms: C3'_1506  and  O3'_1507
REMARK  403  A    between atoms: O3'_1507  and  P_1530
REMARK  404  A    between atoms: C2'_1508  and  O2'_1509
REMARK  405  A    between atoms: C1'_1510  and  N1_1511
REMARK  406  A    between atoms: P_1530  and  O5'_1533
REMARK  407  A    between atoms: O5'_1533  and  C5'_1534
REMARK  408  A    between atoms: C5'_1534  and  C4'_1535
REMARK  409  A    between atoms: C3'_1537  and  O3'_1538
REMARK  410  A    between atoms: O3'_1538  and  P_1564
REMARK  411  A    between atoms: C2'_1539  and  O2'_1540
REMARK  412  A    between atoms: C1'_1541  and  N9_1542
REMARK  413  A    between atoms: P_1564  and  O5'_1567
REMARK  414  A    between atoms: O5'_1567  and  C5'_1568
REMARK  415  A    between atoms: C5'_1568  and  C4'_1569
REMARK  416  A    between atoms: C3'_1571  and  O3'_1572
REMARK  417  A    between atoms: C2'_1574  and  O2'_1575
REMARK  418  A    between atoms: C1'_1576  and  N9_1577
REMARK  419  A    between atoms: O5'_1602  and  C5'_1604
REMARK  420  A    between atoms: C5'_1604  and  C4'_1605
REMARK  421  A    between atoms: C3'_1607  and  O3'_1608
REMARK  422  A    between atoms: O3'_1608  and  P_1631
REMARK  423  A    between atoms: C2'_1609  and  O2'_1610
REMARK  424  A    between atoms: C1'_1611  and  N1_1612
REMARK  425  A    between atoms: P_1631  and  O5'_1634
REMARK  426  A    between atoms: O5'_1634  and  C5'_1635
REMARK  427  A    between atoms: C5'_1635  and  C4'_1636
REMARK  428  A    between atoms: C3'_1638  and  O3'_1639
REMARK  429  A    between atoms: O3'_1639  and  P_1662
REMARK  430  A    between atoms: C2'_1640  and  O2'_1641
REMARK  431  A    between atoms: C1'_1642  and  N1_1643
REMARK  432  A    between atoms: P_1662  and  O5'_1665
REMARK  433  A    between atoms: O5'_1665  and  C5'_1666
REMARK  434  A    between atoms: C5'_1666  and  C4'_1667
REMARK  435  A    between atoms: C3'_1669  and  O3'_1670
REMARK  436  A    between atoms: O3'_1670  and  P_1696
REMARK  437  A    between atoms: C2'_1671  and  O2'_1672
REMARK  438  A    between atoms: C1'_1673  and  N9_1674
REMARK  439  A    between atoms: P_1696  and  O5'_1699
REMARK  440  A    between atoms: O5'_1699  and  C5'_1700
REMARK  441  A    between atoms: C5'_1700  and  C4'_1701
REMARK  442  A    between atoms: C3'_1703  and  O3'_1704
REMARK  443  A    between atoms: O3'_1704  and  P_1730
REMARK  444  A    between atoms: C2'_1705  and  O2'_1706
REMARK  445  A    between atoms: C1'_1707  and  N9_1708
REMARK  446  A    between atoms: P_1730  and  O5'_1733
REMARK  447  A    between atoms: O5'_1733  and  C5'_1734
REMARK  448  A    between atoms: C5'_1734  and  C4'_1735
REMARK  449  A    between atoms: C3'_1737  and  O3'_1738
REMARK  450  A    between atoms: O3'_1738  and  P_1761
REMARK  451  A    between atoms: C2'_1739  and  O2'_1740
REMARK  452  A    between atoms: C1'_1741  and  N1_1742
REMARK  453  A    between atoms: P_1761  and  O5'_1764
REMARK  454  A    between atoms: O5'_1764  and  C5'_1765
REMARK  455  A    between atoms: C5'_1765  and  C4'_1766
REMARK  456  A    between atoms: C3'_1768  and  O3'_1769
REMARK  457  A    between atoms: O3'_1769  and  P_1792
REMARK  458  A    between atoms: C2'_1770  and  O2'_1771
REMARK  459  A    between atoms: C1'_1772  and  N1_1773
REMARK  460  A    between atoms: P_1792  and  O5'_1795
REMARK  461  A    between atoms: O5'_1795  and  C5'_1796
REMARK  462  A    between atoms: C5'_1796  and  C4'_1797
REMARK  463  A    between atoms: C3'_1799  and  O3'_1800
REMARK  464  A    between atoms: O3'_1800  and  P_1825
REMARK  465  A    between atoms: C2'_1801  and  O2'_1802
REMARK  466  A    between atoms: C1'_1803  and  N9_1804
REMARK  467  A    between atoms: C6_1808  and  N6_1809
REMARK  468  A    between atoms: P_1825  and  O5'_1828
REMARK  469  A    between atoms: O5'_1828  and  C5'_1829
REMARK  470  A    between atoms: C5'_1829  and  C4'_1830
REMARK  471  A    between atoms: C3'_1832  and  O3'_1833
REMARK  472  A    between atoms: O3'_1833  and  P_1856
REMARK  473  A    between atoms: C2'_1834  and  O2'_1835
REMARK  474  A    between atoms: C1'_1836  and  N1_1837
REMARK  475  A    between atoms: P_1856  and  O5'_1859
REMARK  476  A    between atoms: O5'_1859  and  C5'_1860
REMARK  477  A    between atoms: C5'_1860  and  C4'_1861
REMARK  478  A    between atoms: C3'_1863  and  O3'_1864
REMARK  479  A    between atoms: O3'_1864  and  P_1887
REMARK  480  A    between atoms: C2'_1865  and  O2'_1866
REMARK  481  A    between atoms: C1'_1867  and  N1_1868
REMARK  482  A    between atoms: P_1887  and  O5'_1890
REMARK  483  A    between atoms: O5'_1890  and  C5'_1891
REMARK  484  A    between atoms: C5'_1891  and  C4'_1892
REMARK  485  A    between atoms: C3'_1894  and  O3'_1895
REMARK  486  A    between atoms: O3'_1895  and  P_1920
REMARK  487  A    between atoms: C2'_1896  and  O2'_1897
REMARK  488  A    between atoms: C1'_1898  and  N9_1899
REMARK  489  A    between atoms: C6_1903  and  N6_1904
REMARK  490  A    between atoms: P_1920  and  O5'_1923
REMARK  491  A    between atoms: O5'_1923  and  C5'_1924
REMARK  492  A    between atoms: C5'_1924  and  C4'_1925
REMARK  493  A    between atoms: C3'_1927  and  O3'_1928
REMARK  494  A    between atoms: O3'_1928  and  P_1954
REMARK  495  A    between atoms: C2'_1929  and  O2'_1930
REMARK  496  A    between atoms: C1'_1931  and  N9_1932
REMARK  497  A    between atoms: P_1954  and  O5'_1957
REMARK  498  A    between atoms: O5'_1957  and  C5'_1958
REMARK  499  A    between atoms: C5'_1958  and  C4'_1959
REMARK  500  A    between atoms: C3'_1961  and  O3'_1962
REMARK  501  A    between atoms: O3'_1962  and  P_1987
REMARK  502  A    between atoms: C2'_1963  and  O2'_1964
REMARK  503  A    between atoms: C1'_1965  and  N9_1966
REMARK  504  A    between atoms: C6_1970  and  N6_1971
REMARK  505  A    between atoms: P_1987  and  O5'_1990
REMARK  506  A    between atoms: O5'_1990  and  C5'_1991
REMARK  507  A    between atoms: C5'_1991  and  C4'_1992
REMARK  508  A    between atoms: C3'_1994  and  O3'_1995
REMARK  509  A    between atoms: O3'_1995  and  P_2018
REMARK  510  A    between atoms: C2'_1996  and  O2'_1997
REMARK  511  A    between atoms: C1'_1998  and  N1_1999
REMARK  512  A    between atoms: P_2018  and  O5'_2021
REMARK  513  A    between atoms: O5'_2021  and  C5'_2022
REMARK  514  A    between atoms: C5'_2022  and  C4'_2023
REMARK  515  A    between atoms: C3'_2025  and  O3'_2026
REMARK  516  A    between atoms: O3'_2026  and  P_2049
REMARK  517  A    between atoms: C2'_2027  and  O2'_2028
REMARK  518  A    between atoms: C1'_2029  and  N1_2030
REMARK  519  A    between atoms: P_2049  and  O5'_2052
REMARK  520  A    between atoms: O5'_2052  and  C5'_2053
REMARK  521  A    between atoms: C5'_2053  and  C4'_2054
REMARK  522  A    between atoms: C3'_2056  and  O3'_2057
REMARK  523  A    between atoms: O3'_2057  and  P_2082
REMARK  524  A    between atoms: C2'_2058  and  O2'_2059
REMARK  525  A    between atoms: C1'_2060  and  N9_2061
REMARK  526  A    between atoms: C6_2065  and  N6_2066
REMARK  527  A    between atoms: P_2082  and  O5'_2085
REMARK  528  A    between atoms: O5'_2085  and  C5'_2086
REMARK  529  A    between atoms: C5'_2086  and  C4'_2087
REMARK  530  A    between atoms: C3'_2089  and  O3'_2090
REMARK  531  A    between atoms: O3'_2090  and  P_2113
REMARK  532  A    between atoms: C2'_2091  and  O2'_2092
REMARK  533  A    between atoms: C1'_2093  and  N1_2094
REMARK  534  A    between atoms: P_2113  and  O5'_2116
REMARK  535  A    between atoms: O5'_2116  and  C5'_2117
REMARK  536  A    between atoms: C5'_2117  and  C4'_2118
REMARK  537  A    between atoms: C3'_2120  and  O3'_2121
REMARK  538  A    between atoms: O3'_2121  and  P_2147
REMARK  539  A    between atoms: C2'_2122  and  O2'_2123
REMARK  540  A    between atoms: C1'_2124  and  N9_2125
REMARK  541  A    between atoms: P_2147  and  O5'_2150
REMARK  542  A    between atoms: O5'_2150  and  C5'_2151
REMARK  543  A    between atoms: C5'_2151  and  C4'_2152
REMARK  544  A    between atoms: C3'_2154  and  O3'_2155
REMARK  545  A    between atoms: O3'_2155  and  P_2181
REMARK  546  A    between atoms: C2'_2156  and  O2'_2157
REMARK  547  A    between atoms: C1'_2158  and  N9_2159
REMARK  548  A    between atoms: P_2181  and  O5'_2184
REMARK  549  A    between atoms: O5'_2184  and  C5'_2185
REMARK  550  A    between atoms: C5'_2185  and  C4'_2186
REMARK  551  A    between atoms: C3'_2188  and  O3'_2189
REMARK  552  A    between atoms: C2'_2190  and  O2'_2191
REMARK  553  A    between atoms: C1'_2192  and  N1_2193
REMARK                            x       y       z     vdW  Elec       q    Type
REMARK                         _______ _______ _______ _____ _____    ______ ____
ROOT
ATOM      1  C4' U   B  10       3.705  13.662  -5.292  0.00  0.00    +0.000 C 
ATOM      2  O4' U   B  10       2.388  13.357  -4.753  0.00  0.00    +0.000 OA
ATOM      3  C3' U   B  10       4.651  13.319  -4.152  0.00  0.00    +0.000 C 
ATOM      4  C2' U   B  10       3.858  13.748  -2.927  0.00  0.00    +0.000 C 
ATOM      5  C1' U   B  10       2.442  13.351  -3.336  0.00  0.00    +0.000 C 
ENDROOT
BRANCH   5   6
ATOM      6  N1  U   B  10       2.056  12.019  -2.853  0.00  0.00    +0.000 N 
ATOM      7  C2  U   B  10       1.520  11.934  -1.582  0.00  0.00    +0.000 A 
ATOM      8  O2  U   B  10       1.374  12.907  -0.862  0.00  0.00    +0.000 OA
ATOM      9  N3  U   B  10       1.167  10.668  -1.184  0.00  0.00    +0.000 N 
ATOM     10  C4  U   B  10       1.298   9.504  -1.907  0.00  0.00    +0.000 A 
ATOM     11  O4  U   B  10       0.938   8.437  -1.405  0.00  0.00    +0.000 OA
ATOM     12  C5  U   B  10       1.867   9.676  -3.210  0.00  0.00    +0.000 A 
ATOM     13  C6  U   B  10       2.220  10.896  -3.632  0.00  0.00    +0.000 A 
ATOM     14  H3  U   B  10       0.767  10.567  -0.259  0.00  0.00    +0.000 HD
ENDBRANCH   5   6
BRANCH   4  15
ATOM     15  O2' U   B  10       3.899  15.153  -2.757  0.00  0.00    +0.000 OA
ATOM     16 HO2' U   B  10       3.165  15.524  -3.264  0.00  0.00    +0.000 HD
ENDBRANCH   4  15
BRANCH   1  17
ATOM     17  C5' U   B  10       3.898  12.867  -6.560  0.00  0.00    +0.000 C 
BRANCH  17  18
ATOM     18  O5' U   B  10       4.240  11.524  -6.245  0.00  0.00    +0.000 OA
BRANCH  18  19
ATOM     19  P   U   B  10       4.852  10.558  -7.349  0.00  0.00    +0.000 P 
ATOM     20  OP1 U   B  10       5.861  11.311  -8.130  0.00  0.00    +0.000 OA
ATOM     21  OP2 U   B  10       5.236   9.289  -6.693  0.00  0.00    +0.000 OA
BRANCH  19  22
ATOM     22  O3' C   B   9       3.623  10.264  -8.333  0.00  0.00    +0.000 OA
BRANCH  22  25
ATOM     23  C4' C   B   9       1.891   8.662  -8.942  0.00  0.00    +0.000 C 
ATOM     24  O4' C   B   9       0.523   8.459  -8.497  0.00  0.00    +0.000 OA
ATOM     25  C3' C   B   9       2.506   9.528  -7.856  0.00  0.00    +0.000 C 
ATOM     26  C2' C   B   9       1.346  10.434  -7.468  0.00  0.00    +0.000 C 
ATOM     27  C1' C   B   9       0.164   9.471  -7.574  0.00  0.00    +0.000 C 
BRANCH  27  28
ATOM     28  N1  C   B   9      -0.205   8.832  -6.300  0.00  0.00    +0.000 N 
ATOM     29  C2  C   B   9      -0.843   9.598  -5.327  0.00  0.00    +0.000 A 
ATOM     30  O2  C   B   9      -1.041  10.802  -5.549  0.00  0.00    +0.000 OA
ATOM     31  N3  C   B   9      -1.226   9.014  -4.165  0.00  0.00    +0.000 NA
ATOM     32  C4  C   B   9      -0.985   7.715  -3.961  0.00  0.00    +0.000 A 
ATOM     33  N4  C   B   9      -1.398   7.175  -2.811  0.00  0.00    +0.000 N 
ATOM     34  C5  C   B   9      -0.314   6.914  -4.930  0.00  0.00    +0.000 A 
ATOM     35  C6  C   B   9       0.059   7.510  -6.074  0.00  0.00    +0.000 A 
ATOM     36  H41 C   B   9      -1.865   7.748  -2.114  0.00  0.00    +0.000 HD
ATOM     37  H42 C   B   9      -1.240   6.197  -2.614  0.00  0.00    +0.000 HD
ENDBRANCH  27  28
BRANCH  26  38
ATOM     38  O2' C   B   9       1.177  11.465  -8.424  0.00  0.00    +0.000 OA
ATOM     39 HO2' C   B   9       0.822  11.038  -9.214  0.00  0.00    +0.000 HD
ENDBRANCH  26  38
BRANCH  23  40
ATOM     40  C5' C   B   9       2.533   7.312  -9.139  0.00  0.00    +0.000 C 
BRANCH  40  41
ATOM     41  O5' C   B   9       2.659   6.646  -7.890  0.00  0.00    +0.000 OA
BRANCH  41  42
ATOM     42  P   C   B   9       2.868   5.071  -7.826  0.00  0.00    +0.000 P 
ATOM     43  OP1 C   B   9       4.201   4.761  -8.392  0.00  0.00    +0.000 OA
ATOM     44  OP2 C   B   9       2.530   4.620  -6.458  0.00  0.00    +0.000 OA
BRANCH  42  45
ATOM     45  O3' U   B   8       1.755   4.490  -8.823  0.00  0.00    +0.000 OA
BRANCH  45  48
ATOM     46  C4' U   B   8      -0.329   3.233  -9.052  0.00  0.00    +0.000 C 
ATOM     47  O4' U   B   8      -1.730   3.605  -8.939  0.00  0.00    +0.000 OA
ATOM     48  C3' U   B   8       0.412   4.375  -8.375  0.00  0.00    +0.000 C 
ATOM     49  C2' U   B   8      -0.426   5.583  -8.765  0.00  0.00    +0.000 C 
ATOM     50  C1' U   B   8      -1.837   5.000  -8.708  0.00  0.00    +0.000 C 
BRANCH  50  51
ATOM     51  N1  U   B   8      -2.508   5.205  -7.419  0.00  0.00    +0.000 N 
ATOM     52  C2  U   B   8      -3.021   6.460  -7.147  0.00  0.00    +0.000 A 
ATOM     53  O2  U   B   8      -2.928   7.392  -7.925  0.00  0.00    +0.000 OA
ATOM     54  N3  U   B   8      -3.646   6.581  -5.931  0.00  0.00    +0.000 N 
ATOM     55  C4  U   B   8      -3.805   5.594  -4.979  0.00  0.00    +0.000 A 
ATOM     56  O4  U   B   8      -4.406   5.846  -3.935  0.00  0.00    +0.000 OA
ATOM     57  C5  U   B   8      -3.240   4.330  -5.334  0.00  0.00    +0.000 A 
ATOM     58  C6  U   B   8      -2.624   4.180  -6.511  0.00  0.00    +0.000 A 
ATOM     59  H3  U   B   8      -4.024   7.492  -5.705  0.00  0.00    +0.000 HD
ENDBRANCH  50  51
BRANCH  49  60
ATOM     60  O2' U   B   8      -0.164   5.980 -10.098  0.00  0.00    +0.000 OA
ATOM     61 HO2' U   B   8      -1.031   6.093 -10.503  0.00  0.00    +0.000 HD
ENDBRANCH  49  60
BRANCH  46  62
ATOM     62  C5' U   B   8      -0.146   1.865  -8.436  0.00  0.00    +0.000 C 
BRANCH  62  63
ATOM     63  O5' U   B   8      -0.561   1.873  -7.075  0.00  0.00    +0.000 OA
BRANCH  63  64
ATOM     64  P   U   B   8      -0.679   0.513  -6.258  0.00  0.00    +0.000 P 
ATOM     65  OP1 U   B   8       0.536  -0.294  -6.516  0.00  0.00    +0.000 OA
ATOM     66  OP2 U   B   8      -1.067   0.834  -4.861  0.00  0.00    +0.000 OA
BRANCH  64  67
ATOM     67  O3' G   B   7      -1.914  -0.248  -6.944  0.00  0.00    +0.000 OA
BRANCH  67  70
ATOM     68  C4' G   B   7      -4.238  -1.020  -6.831  0.00  0.00    +0.000 C 
ATOM     69  O4' G   B   7      -5.514  -0.333  -6.947  0.00  0.00    +0.000 OA
ATOM     70  C3' G   B   7      -3.240   0.101  -6.573  0.00  0.00    +0.000 C 
ATOM     71  C2' G   B   7      -3.790   1.233  -7.427  0.00  0.00    +0.000 C 
ATOM     72  C1' G   B   7      -5.293   1.032  -7.254  0.00  0.00    +0.000 C 
BRANCH  72  73
ATOM     73  N9  G   B   7      -5.869   1.849  -6.193  0.00  0.00    +0.000 N 
ATOM     74  C8  G   B   7      -6.051   1.512  -4.874  0.00  0.00    +0.000 A 
ATOM     75  N7  G   B   7      -6.611   2.461  -4.173  0.00  0.00    +0.000 NA
ATOM     76  C5  G   B   7      -6.805   3.491  -5.085  0.00  0.00    +0.000 A 
ATOM     77  C6  G   B   7      -7.371   4.785  -4.913  0.00  0.00    +0.000 A 
ATOM     78  O6  G   B   7      -7.835   5.300  -3.887  0.00  0.00    +0.000 OA
ATOM     79  N1  G   B   7      -7.366   5.505  -6.105  0.00  0.00    +0.000 N 
ATOM     80  C2  G   B   7      -6.877   5.046  -7.304  0.00  0.00    +0.000 A 
ATOM     81  N2  G   B   7      -6.948   5.884  -8.347  0.00  0.00    +0.000 N 
ATOM     82  N3  G   B   7      -6.351   3.847  -7.475  0.00  0.00    +0.000 NA
ATOM     83  C4  G   B   7      -6.346   3.128  -6.333  0.00  0.00    +0.000 A 
ATOM     84  H1  G   B   7      -7.758   6.440  -6.066  0.00  0.00    +0.000 HD
ATOM     85  H21 G   B   7      -6.599   5.596  -9.249  0.00  0.00    +0.000 HD
ATOM     86  H22 G   B   7      -7.356   6.807  -8.244  0.00  0.00    +0.000 HD
ENDBRANCH  72  73
BRANCH  71  87
ATOM     87  O2' G   B   7      -3.477   1.041  -8.793  0.00  0.00    +0.000 OA
ATOM     88 HO2' G   B   7      -4.314   0.849  -9.234  0.00  0.00    +0.000 HD
ENDBRANCH  71  87
BRANCH  68  89
ATOM     89  C5' G   B   7      -4.343  -2.065  -5.745  0.00  0.00    +0.000 C 
BRANCH  89  90
ATOM     90  O5' G   B   7      -3.579  -1.673  -4.611  0.00  0.00    +0.000 OA
BRANCH  90  91
ATOM     91  P   G   B   7      -4.090  -1.986  -3.138  0.00  0.00    +0.000 P 
ATOM     92  OP1 G   B   7      -3.109  -2.911  -2.521  0.00  0.00    +0.000 OA
ATOM     93  OP2 G   B   7      -4.379  -0.690  -2.485  0.00  0.00    +0.000 OA
BRANCH  91  94
ATOM     94  O3' G   B   6      -5.468  -2.782  -3.355  0.00  0.00    +0.000 OA
BRANCH  94  97
ATOM     95  C4' G   B   6      -7.740  -3.138  -2.516  0.00  0.00    +0.000 C 
ATOM     96  O4' G   B   6      -9.012  -2.491  -2.798  0.00  0.00    +0.000 OA
ATOM     97  C3' G   B   6      -6.701  -2.151  -3.029  0.00  0.00    +0.000 C 
ATOM     98  C2' G   B   6      -7.383  -1.571  -4.261  0.00  0.00    +0.000 C 
ATOM     99  C1' G   B   6      -8.835  -1.500  -3.796  0.00  0.00    +0.000 C 
BRANCH  99 100
ATOM    100  N9  G   B   6      -9.220  -0.201  -3.254  0.00  0.00    +0.000 N 
ATOM    101  C8  G   B   6      -9.226   0.196  -1.938  0.00  0.00    +0.000 A 
ATOM    102  N7  G   B   6      -9.640   1.424  -1.773  0.00  0.00    +0.000 NA
ATOM    103  C5  G   B   6      -9.916   1.869  -3.060  0.00  0.00    +0.000 A 
ATOM    104  C6  G   B   6     -10.400   3.130  -3.524  0.00  0.00    +0.000 A 
ATOM    105  O6  G   B   6     -10.695   4.140  -2.868  0.00  0.00    +0.000 OA
ATOM    106  N1  G   B   6     -10.533   3.146  -4.908  0.00  0.00    +0.000 N 
ATOM    107  C2  G   B   6     -10.246   2.093  -5.742  0.00  0.00    +0.000 A 
ATOM    108  N2  G   B   6     -10.438   2.303  -7.050  0.00  0.00    +0.000 N 
ATOM    109  N3  G   B   6      -9.798   0.920  -5.327  0.00  0.00    +0.000 NA
ATOM    110  C4  G   B   6      -9.659   0.878  -3.985  0.00  0.00    +0.000 A 
ATOM    111  H1  G   B   6     -10.871   4.009  -5.315  0.00  0.00    +0.000 HD
ATOM    112  H21 G   B   6     -10.249   1.571  -7.725  0.00  0.00    +0.000 HD
ATOM    113  H22 G   B   6     -10.784   3.198  -7.375  0.00  0.00    +0.000 HD
ENDBRANCH  99 100
BRANCH  98 114
ATOM    114  O2' G   B   6      -7.322  -2.469  -5.353  0.00  0.00    +0.000 OA
ATOM    115 HO2' G   B   6      -8.092  -3.045  -5.260  0.00  0.00    +0.000 HD
ENDBRANCH  98 114
BRANCH  95 116
ATOM    116  C5' G   B   6      -7.673  -3.466  -1.043  0.00  0.00    +0.000 C 
BRANCH 116 117
ATOM    117  O5' G   B   6      -7.371  -2.304  -0.282  0.00  0.00    +0.000 OA
BRANCH 117 118
ATOM    118  P   G   B   6      -7.166  -2.410   1.293  0.00  0.00    +0.000 P 
ATOM    119  OP1 G   B   6      -6.170  -3.484   1.563  0.00  0.00    +0.000 OA
ATOM    120  OP2 G   B   6      -6.941  -1.050   1.833  0.00  0.00    +0.000 OA
BRANCH 118 121
ATOM    121  O3' U   B   5      -8.585  -2.939   1.833  0.00  0.00    +0.000 OA
BRANCH 121 124
ATOM    122  C4' U   B   5     -10.832  -2.517   2.650  0.00  0.00    +0.000 C 
ATOM    123  O4' U   B   5     -12.075  -2.135   2.007  0.00  0.00    +0.000 OA
ATOM    124  C3' U   B   5      -9.754  -2.149   1.640  0.00  0.00    +0.000 C 
ATOM    125  C2' U   B   5     -10.442  -2.452   0.314  0.00  0.00    +0.000 C 
ATOM    126  C1' U   B   5     -11.877  -2.015   0.611  0.00  0.00    +0.000 C 
BRANCH 126 127
ATOM    127  N1  U   B   5     -12.204  -0.636   0.228  0.00  0.00    +0.000 N 
ATOM    128  C2  U   B   5     -12.830  -0.437  -0.985  0.00  0.00    +0.000 A 
ATOM    129  O2  U   B   5     -13.065  -1.348  -1.762  0.00  0.00    +0.000 OA
ATOM    130  N3  U   B   5     -13.171   0.866  -1.255  0.00  0.00    +0.000 N 
ATOM    131  C4  U   B   5     -12.942   1.967  -0.456  0.00  0.00    +0.000 A 
ATOM    132  O4  U   B   5     -13.370   3.068  -0.804  0.00  0.00    +0.000 OA
ATOM    133  C5  U   B   5     -12.262   1.680   0.768  0.00  0.00    +0.000 A 
ATOM    134  C6  U   B   5     -11.919   0.421   1.063  0.00  0.00    +0.000 A 
ATOM    135  H3  U   B   5     -13.646   1.049  -2.130  0.00  0.00    +0.000 HD
ENDBRANCH 126 127
BRANCH 125 136
ATOM    136  O2' U   B   5     -10.458  -3.844   0.059  0.00  0.00    +0.000 OA
ATOM    137 HO2' U   B   5     -10.498  -4.264   0.921  0.00  0.00    +0.000 HD
ENDBRANCH 125 136
BRANCH 122 138
ATOM    138  C5' U   B   5     -10.749  -1.831   3.992  0.00  0.00    +0.000 C 
BRANCH 138 139
ATOM    139  O5' U   B   5     -10.633  -0.423   3.823  0.00  0.00    +0.000 OA
BRANCH 139 140
ATOM    140  P   U   B   5     -10.594   0.543   5.087  0.00  0.00    +0.000 P 
ATOM    141  OP1 U   B   5      -9.480   0.118   5.966  0.00  0.00    +0.000 OA
ATOM    142  OP2 U   B   5     -10.660   1.948   4.617  0.00  0.00    +0.000 OA
BRANCH 140 143
ATOM    143  O3' G   B   4     -11.963   0.225   5.858  0.00  0.00    +0.000 OA
BRANCH 143 146
ATOM    144  C4' G   B   4     -14.247   0.888   6.450  0.00  0.00    +0.000 C 
ATOM    145  O4' G   B   4     -15.493   0.921   5.705  0.00  0.00    +0.000 OA
ATOM    146  C3' G   B   4     -13.176   0.786   5.375  0.00  0.00    +0.000 C 
ATOM    147  C2' G   B   4     -13.844  -0.102   4.335  0.00  0.00    +0.000 C 
ATOM    148  C1' G   B   4     -15.288   0.388   4.408  0.00  0.00    +0.000 C 
BRANCH 148 149
ATOM    149  N9  G   B   4     -15.590   1.419   3.422  0.00  0.00    +0.000 N 
ATOM    150  C8  G   B   4     -15.450   2.778   3.565  0.00  0.00    +0.000 A 
ATOM    151  N7  G   B   4     -15.807   3.447   2.502  0.00  0.00    +0.000 NA
ATOM    152  C5  G   B   4     -16.204   2.467   1.599  0.00  0.00    +0.000 A 
ATOM    153  C6  G   B   4     -16.694   2.581   0.269  0.00  0.00    +0.000 A 
ATOM    154  O6  G   B   4     -16.881   3.604  -0.402  0.00  0.00    +0.000 OA
ATOM    155  N1  G   B   4     -16.977   1.336  -0.281  0.00  0.00    +0.000 N 
ATOM    156  C2  G   B   4     -16.805   0.133   0.362  0.00  0.00    +0.000 A 
ATOM    157  N2  G   B   4     -17.128  -0.971  -0.327  0.00  0.00    +0.000 N 
ATOM    158  N3  G   B   4     -16.350   0.013   1.597  0.00  0.00    +0.000 NA
ATOM    159  C4  G   B   4     -16.073   1.211   2.152  0.00  0.00    +0.000 A 
ATOM    160  H1  G   B   4     -17.334   1.353  -1.231  0.00  0.00    +0.000 HD
ATOM    161  H21 G   B   4     -17.022  -1.886   0.093  0.00  0.00    +0.000 HD
ATOM    162  H22 G   B   4     -17.493  -0.897  -1.270  0.00  0.00    +0.000 HD
ENDBRANCH 148 149
BRANCH 147 163
ATOM    163  O2' G   B   4     -13.820  -1.462   4.728  0.00  0.00    +0.000 OA
ATOM    164 HO2' G   B   4     -14.618  -1.607   5.257  0.00  0.00    +0.000 HD
ENDBRANCH 147 163
BRANCH 144 165
ATOM    165  C5' G   B   4     -14.177   2.112   7.328  0.00  0.00    +0.000 C 
BRANCH 165 166
ATOM    166  O5' G   B   4     -14.012   3.278   6.531  0.00  0.00    +0.000 OA
BRANCH 166 167
ATOM    167  P   G   B   4     -13.737   4.686   7.215  0.00  0.00    +0.000 P 
ATOM    168  OP1 G   B   4     -12.915   4.447   8.425  0.00  0.00    +0.000 OA
ATOM    169  OP2 G   B   4     -13.255   5.629   6.180  0.00  0.00    +0.000 OA
BRANCH 167 170
ATOM    170  O3' C   B   3     -15.185   5.165   7.712  0.00  0.00    +0.000 OA
BRANCH 170 173
ATOM    171  C4' C   B   3     -17.031   6.709   7.357  0.00  0.00    +0.000 C 
ATOM    172  O4' C   B   3     -18.233   6.656   6.541  0.00  0.00    +0.000 OA
ATOM    173  C3' C   B   3     -16.135   5.633   6.762  0.00  0.00    +0.000 C 
ATOM    174  C2' C   B   3     -17.135   4.554   6.370  0.00  0.00    +0.000 C 
ATOM    175  C1' C   B   3     -18.317   5.397   5.894  0.00  0.00    +0.000 C 
BRANCH 175 176
ATOM    176  N1  C   B   3     -18.358   5.614   4.440  0.00  0.00    +0.000 N 
ATOM    177  C2  C   B   3     -18.857   4.595   3.630  0.00  0.00    +0.000 A 
ATOM    178  O2  C   B   3     -19.218   3.536   4.163  0.00  0.00    +0.000 OA
ATOM    179  N3  C   B   3     -18.935   4.785   2.293  0.00  0.00    +0.000 NA
ATOM    180  C4  C   B   3     -18.529   5.939   1.759  0.00  0.00    +0.000 A 
ATOM    181  N4  C   B   3     -18.641   6.089   0.437  0.00  0.00    +0.000 N 
ATOM    182  C5  C   B   3     -17.997   6.994   2.561  0.00  0.00    +0.000 A 
ATOM    183  C6  C   B   3     -17.929   6.788   3.885  0.00  0.00    +0.000 A 
ATOM    184  H41 C   B   3     -19.029   5.345  -0.132  0.00  0.00    +0.000 HD
ATOM    185  H42 C   B   3     -18.347   6.951   0.003  0.00  0.00    +0.000 HD
ENDBRANCH 175 176
BRANCH 174 186
ATOM    186  O2' C   B   3     -17.549   3.801   7.496  0.00  0.00    +0.000 OA
ATOM    187 HO2' C   B   3     -18.500   3.654   7.392  0.00  0.00    +0.000 HD
ENDBRANCH 174 186
BRANCH 171 188
ATOM    188  C5' C   B   3     -16.478   8.114   7.312  0.00  0.00    +0.000 C 
BRANCH 188 189
ATOM    189  O5' C   B   3     -15.842   8.356   6.061  0.00  0.00    +0.000 OA
BRANCH 189 190
ATOM    190  P   C   B   3     -15.435   9.834   5.632  0.00  0.00    +0.000 P 
ATOM    191  OP1 C   B   3     -14.301  10.267   6.476  0.00  0.00    +0.000 OA
ATOM    192  OP2 C   B   3     -15.306   9.873   4.157  0.00  0.00    +0.000 OA
BRANCH 190 193
ATOM    193  O3' C   B   2     -16.703  10.719   6.055  0.00  0.00    +0.000 OA
BRANCH 193 196
ATOM    194  C4' C   B   2     -18.578  12.067   5.263  0.00  0.00    +0.000 C 
ATOM    195  O4' C   B   2     -19.937  11.741   4.863  0.00  0.00    +0.000 OA
ATOM    196  C3' C   B   2     -17.853  10.732   5.223  0.00  0.00    +0.000 C 
ATOM    197  C2' C   B   2     -18.925   9.765   5.706  0.00  0.00    +0.000 C 
ATOM    198  C1' C   B   2     -20.175  10.359   5.059  0.00  0.00    +0.000 C 
BRANCH 198 199
ATOM    199  N1  C   B   2     -20.509   9.751   3.761  0.00  0.00    +0.000 N 
ATOM    200  C2  C   B   2     -21.119   8.496   3.743  0.00  0.00    +0.000 A 
ATOM    201  O2  C   B   2     -21.348   7.928   4.819  0.00  0.00    +0.000 OA
ATOM    202  N3  C   B   2     -21.444   7.933   2.556  0.00  0.00    +0.000 NA
ATOM    203  C4  C   B   2     -21.181   8.580   1.416  0.00  0.00    +0.000 A 
ATOM    204  N4  C   B   2     -21.531   7.994   0.267  0.00  0.00    +0.000 N 
ATOM    205  C5  C   B   2     -20.552   9.859   1.405  0.00  0.00    +0.000 A 
ATOM    206  C6  C   B   2     -20.233  10.401   2.590  0.00  0.00    +0.000 A 
ATOM    207  H41 C   B   2     -21.971   7.081   0.279  0.00  0.00    +0.000 HD
ATOM    208  H42 C   B   2     -21.357   8.446  -0.621  0.00  0.00    +0.000 HD
ENDBRANCH 198 199
BRANCH 197 209
ATOM    209  O2' C   B   2     -19.075   9.836   7.112  0.00  0.00    +0.000 OA
ATOM    210 HO2' C   B   2     -19.730  10.530   7.272  0.00  0.00    +0.000 HD
ENDBRANCH 197 209
BRANCH 194 211
ATOM    211  C5' C   B   2     -18.049  13.129   4.334  0.00  0.00    +0.000 C 
BRANCH 211 212
ATOM    212  O5' C   B   2     -18.063  12.657   2.993  0.00  0.00    +0.000 OA
BRANCH 212 213
ATOM    213  P   C   B   2     -17.933  13.672   1.777  0.00  0.00    +0.000 P 
ATOM    214  OP1 C   B   2     -16.724  14.498   1.994  0.00  0.00    +0.000 OA
ATOM    215  OP2 C   B   2     -18.087  12.907   0.516  0.00  0.00    +0.000 OA
BRANCH 213 216
ATOM    216  O3' G   B   1     -19.198  14.643   1.944  0.00  0.00    +0.000 OA
BRANCH 216 219
ATOM    217  C4' G   B   1     -21.338  15.389   1.044  0.00  0.00    +0.000 C 
ATOM    218  O4' G   B   1     -22.697  14.889   1.168  0.00  0.00    +0.000 OA
ATOM    219  C3' G   B   1     -20.475  14.218   1.487  0.00  0.00    +0.000 C 
ATOM    220  C2' G   B   1     -21.308  13.599   2.601  0.00  0.00    +0.000 C 
ATOM    221  C1' G   B   1     -22.721  13.780   2.050  0.00  0.00    +0.000 C 
BRANCH 221 222
ATOM    222  N9  G   B   1     -23.226  12.622   1.319  0.00  0.00    +0.000 N 
ATOM    223  C8  G   B   1     -23.317  12.477  -0.043  0.00  0.00    +0.000 A 
ATOM    224  N7  G   B   1     -23.834  11.334  -0.405  0.00  0.00    +0.000 NA
ATOM    225  C5  G   B   1     -24.097  10.683   0.792  0.00  0.00    +0.000 A 
ATOM    226  C6  G   B   1     -24.666   9.406   1.039  0.00  0.00    +0.000 A 
ATOM    227  O6  G   B   1     -25.075   8.572   0.221  0.00  0.00    +0.000 OA
ATOM    228  N1  G   B   1     -24.744   9.136   2.401  0.00  0.00    +0.000 N 
ATOM    229  C2  G   B   1     -24.335   9.985   3.401  0.00  0.00    +0.000 A 
ATOM    230  N2  G   B   1     -24.492   9.548   4.661  0.00  0.00    +0.000 N 
ATOM    231  N3  G   B   1     -23.808  11.180   3.184  0.00  0.00    +0.000 NA
ATOM    232  C4  G   B   1     -23.720  11.462   1.866  0.00  0.00    +0.000 A 
ATOM    233  H1  G   B   1     -25.135   8.238   2.658  0.00  0.00    +0.000 HD
ATOM    234  H21 G   B   1     -24.205  10.141   5.433  0.00  0.00    +0.000 HD
ATOM    235  H22 G   B   1     -24.894   8.635   4.853  0.00  0.00    +0.000 HD
ENDBRANCH 221 222
BRANCH 220 236
ATOM    236  O2' G   B   1     -21.202  14.348   3.798  0.00  0.00    +0.000 OA
ATOM    237 HO2' G   B   1     -21.673  15.177   3.655  0.00  0.00    +0.000 HD
ENDBRANCH 220 236
BRANCH 217 238
ATOM    238  C5' G   B   1     -21.132  15.862  -0.374  0.00  0.00    +0.000 C 
BRANCH 238 239
ATOM    239  O5' G   B   1     -20.846  14.755  -1.231  0.00  0.00    +0.000 OA
ATOM    240 HO5' G   B   1     -19.880  14.715  -1.315  0.00  0.00    +0.000 HD
ENDBRANCH 238 239
ENDBRANCH 217 238
ENDBRANCH 216 219
ENDBRANCH 213 216
ENDBRANCH 212 213
ENDBRANCH 211 212
ENDBRANCH 194 211
ENDBRANCH 193 196
ENDBRANCH 190 193
ENDBRANCH 189 190
ENDBRANCH 188 189
ENDBRANCH 171 188
ENDBRANCH 170 173
ENDBRANCH 167 170
ENDBRANCH 166 167
ENDBRANCH 165 166
ENDBRANCH 144 165
ENDBRANCH 143 146
ENDBRANCH 140 143
ENDBRANCH 139 140
ENDBRANCH 138 139
ENDBRANCH 122 138
ENDBRANCH 121 124
ENDBRANCH 118 121
ENDBRANCH 117 118
ENDBRANCH 116 117
ENDBRANCH  95 116
ENDBRANCH  94  97
ENDBRANCH  91  94
ENDBRANCH  90  91
ENDBRANCH  89  90
ENDBRANCH  68  89
ENDBRANCH  67  70
ENDBRANCH  64  67
ENDBRANCH  63  64
ENDBRANCH  62  63
ENDBRANCH  46  62
ENDBRANCH  45  48
ENDBRANCH  42  45
ENDBRANCH  41  42
ENDBRANCH  40  41
ENDBRANCH  23  40
ENDBRANCH  22  25
ENDBRANCH  19  22
ENDBRANCH  18  19
ENDBRANCH  17  18
ENDBRANCH   1  17
BRANCH   3 241
ATOM    241  O3' U   B  10       5.893  14.000  -4.252  0.00  0.00    +0.000 OA
BRANCH 241 242
ATOM    242  P   G   B  11       7.225  13.292  -3.708  0.00  0.00    +0.000 P 
ATOM    243  OP1 G   B  11       8.365  14.001  -4.334  0.00  0.00    +0.000 OA
ATOM    244  OP2 G   B  11       7.080  11.831  -3.894  0.00  0.00    +0.000 OA
BRANCH 242 245
ATOM    245  O5' G   B  11       7.224  13.617  -2.150  0.00  0.00    +0.000 OA
BRANCH 245 246
ATOM    246  C5' G   B  11       7.467  14.942  -1.693  0.00  0.00    +0.000 C 
BRANCH 246 247
ATOM    247  C4' G   B  11       6.854  15.150  -0.328  0.00  0.00    +0.000 C 
ATOM    248  O4' G   B  11       5.499  14.622  -0.345  0.00  0.00    +0.000 OA
ATOM    249  C3' G   B  11       7.520  14.400   0.816  0.00  0.00    +0.000 C 
ATOM    250  C2' G   B  11       6.392  14.277   1.830  0.00  0.00    +0.000 C 
ATOM    251  C1' G   B  11       5.194  14.046   0.912  0.00  0.00    +0.000 C 
BRANCH 251 252
ATOM    252  N9  G   B  11       4.877  12.636   0.719  0.00  0.00    +0.000 N 
ATOM    253  C8  G   B  11       5.072  11.880  -0.411  0.00  0.00    +0.000 A 
ATOM    254  N7  G   B  11       4.671  10.645  -0.280  0.00  0.00    +0.000 NA
ATOM    255  C5  G   B  11       4.187  10.578   1.020  0.00  0.00    +0.000 A 
ATOM    256  C6  G   B  11       3.618   9.490   1.741  0.00  0.00    +0.000 A 
ATOM    257  O6  G   B  11       3.416   8.325   1.359  0.00  0.00    +0.000 OA
ATOM    258  N1  G   B  11       3.267   9.864   3.035  0.00  0.00    +0.000 N 
ATOM    259  C2  G   B  11       3.440  11.120   3.569  0.00  0.00    +0.000 A 
ATOM    260  N2  G   B  11       3.052  11.291   4.840  0.00  0.00    +0.000 N 
ATOM    261  N3  G   B  11       3.963  12.139   2.908  0.00  0.00    +0.000 NA
ATOM    262  C4  G   B  11       4.311  11.799   1.650  0.00  0.00    +0.000 A 
ATOM    263  H1  G   B  11       2.852   9.148   3.617  0.00  0.00    +0.000 HD
ATOM    264  H21 G   B  11       3.154  12.187   5.293  0.00  0.00    +0.000 HD
ATOM    265  H22 G   B  11       2.645  10.524   5.368  0.00  0.00    +0.000 HD
ENDBRANCH 251 252
BRANCH 250 266
ATOM    266  O2' G   B  11       6.194  15.493   2.529  0.00  0.00    +0.000 OA
ATOM    267 HO2' G   B  11       5.580  16.017   1.996  0.00  0.00    +0.000 HD
ENDBRANCH 250 266
BRANCH 249 268
ATOM    268  O3' G   B  11       8.628  15.108   1.341  0.00  0.00    +0.000 OA
BRANCH 268 269
ATOM    269  P   G   B  12       9.883  14.296   1.919  0.00  0.00    +0.000 P 
ATOM    270  OP1 G   B  12      10.943  15.296   2.162  0.00  0.00    +0.000 OA
ATOM    271  OP2 G   B  12      10.149  13.149   1.020  0.00  0.00    +0.000 OA
BRANCH 269 272
ATOM    272  O5' G   B  12       9.385  13.751   3.328  0.00  0.00    +0.000 OA
BRANCH 272 273
ATOM    273  C5' G   B  12       9.557  14.540   4.500  0.00  0.00    +0.000 C 
BRANCH 273 274
ATOM    274  C4' G   B  12       9.365  13.702   5.741  0.00  0.00    +0.000 C 
ATOM    275  O4' G   B  12       8.012  13.164   5.730  0.00  0.00    +0.000 OA
ATOM    276  C3' G   B  12      10.245  12.466   5.851  0.00  0.00    +0.000 C 
ATOM    277  C2' G   B  12       9.427  11.561   6.763  0.00  0.00    +0.000 C 
ATOM    278  C1' G   B  12       8.009  11.861   6.288  0.00  0.00    +0.000 C 
BRANCH 278 279
ATOM    279  N9  G   B  12       7.514  10.916   5.294  0.00  0.00    +0.000 N 
ATOM    280  C8  G   B  12       7.367  11.112   3.944  0.00  0.00    +0.000 A 
ATOM    281  N7  G   B  12       6.879  10.071   3.322  0.00  0.00    +0.000 NA
ATOM    282  C5  G   B  12       6.699   9.128   4.325  0.00  0.00    +0.000 A 
ATOM    283  C6  G   B  12       6.198   7.796   4.264  0.00  0.00    +0.000 A 
ATOM    284  O6  G   B  12       5.806   7.158   3.274  0.00  0.00    +0.000 OA
ATOM    285  N1  G   B  12       6.184   7.199   5.521  0.00  0.00    +0.000 N 
ATOM    286  C2  G   B  12       6.607   7.798   6.685  0.00  0.00    +0.000 A 
ATOM    287  N2  G   B  12       6.535   7.063   7.802  0.00  0.00    +0.000 N 
ATOM    288  N3  G   B  12       7.074   9.032   6.754  0.00  0.00    +0.000 NA
ATOM    289  C4  G   B  12       7.090   9.634   5.547  0.00  0.00    +0.000 A 
ATOM    290  H1  G   B  12       5.829   6.252   5.554  0.00  0.00    +0.000 HD
ATOM    291  H21 G   B  12       6.838   7.449   8.688  0.00  0.00    +0.000 HD
ATOM    292  H22 G   B  12       6.166   6.119   7.768  0.00  0.00    +0.000 HD
ENDBRANCH 278 279
BRANCH 277 293
ATOM    293  O2' G   B  12       9.530  11.967   8.116  0.00  0.00    +0.000 OA
ATOM    294 HO2' G   B  12       8.927  12.707   8.216  0.00  0.00    +0.000 HD
ENDBRANCH 277 293
BRANCH 276 295
ATOM    295  O3' G   B  12      11.520  12.762   6.399  0.00  0.00    +0.000 OA
BRANCH 295 296
ATOM    296  P   U   B  13      12.749  11.776   6.107  0.00  0.00    +0.000 P 
ATOM    297  OP1 U   B  13      13.975  12.464   6.571  0.00  0.00    +0.000 OA
ATOM    298  OP2 U   B  13      12.657  11.315   4.700  0.00  0.00    +0.000 OA
BRANCH 296 299
ATOM    299  O5' U   B  13      12.476  10.529   7.057  0.00  0.00    +0.000 OA
BRANCH 299 300
ATOM    300  C5' U   B  13      12.424  10.692   8.470  0.00  0.00    +0.000 C 
BRANCH 300 301
ATOM    301  C4' U   B  13      12.078   9.380   9.132  0.00  0.00    +0.000 C 
ATOM    302  O4' U   B  13      10.744   8.983   8.710  0.00  0.00    +0.000 OA
ATOM    303  C3' U   B  13      12.953   8.195   8.754  0.00  0.00    +0.000 C 
ATOM    304  C2' U   B  13      12.034   7.011   9.020  0.00  0.00    +0.000 C 
ATOM    305  C1' U   B  13      10.685   7.573   8.575  0.00  0.00    +0.000 C 
BRANCH 305 306
ATOM    306  N1  U   B  13      10.341   7.255   7.182  0.00  0.00    +0.000 N 
ATOM    307  C2  U   B  13       9.839   5.994   6.911  0.00  0.00    +0.000 A 
ATOM    308  O2  U   B  13       9.689   5.142   7.769  0.00  0.00    +0.000 OA
ATOM    309  N3  U   B  13       9.524   5.767   5.594  0.00  0.00    +0.000 N 
ATOM    310  C4  U   B  13       9.662   6.650   4.543  0.00  0.00    +0.000 A 
ATOM    311  O4  U   B  13       9.318   6.306   3.412  0.00  0.00    +0.000 OA
ATOM    312  C5  U   B  13      10.195   7.926   4.908  0.00  0.00    +0.000 A 
ATOM    313  C6  U   B  13      10.512   8.180   6.181  0.00  0.00    +0.000 A 
ATOM    314  H3  U   B  13       9.154   4.853   5.364  0.00  0.00    +0.000 HD
ENDBRANCH 305 306
BRANCH 304 315
ATOM    315  O2' U   B  13      11.957   6.723  10.403  0.00  0.00    +0.000 OA
ATOM    316 HO2' U   B  13      11.048   6.941  10.656  0.00  0.00    +0.000 HD
ENDBRANCH 304 315
BRANCH 303 317
ATOM    317  O3' U   B  13      14.142   8.133   9.532  0.00  0.00    +0.000 OA
BRANCH 317 318
ATOM    318  P   G   B  14      15.444   7.417   8.927  0.00  0.00    +0.000 P 
ATOM    319  OP1 G   B  14      16.578   7.700   9.834  0.00  0.00    +0.000 OA
ATOM    320  OP2 G   B  14      15.551   7.780   7.495  0.00  0.00    +0.000 OA
BRANCH 318 321
ATOM    321  O5' G   B  14      15.113   5.865   9.028  0.00  0.00    +0.000 OA
BRANCH 321 322
ATOM    322  C5' G   B  14      14.919   5.252  10.297  0.00  0.00    +0.000 C 
BRANCH 322 323
ATOM    323  C4' G   B  14      14.407   3.844  10.126  0.00  0.00    +0.000 C 
ATOM    324  O4' G   B  14      13.135   3.887   9.425  0.00  0.00    +0.000 OA
ATOM    325  C3' G   B  14      15.271   2.934   9.267  0.00  0.00    +0.000 C 
ATOM    326  C2' G   B  14      14.266   1.903   8.772  0.00  0.00    +0.000 C 
ATOM    327  C1' G   B  14      13.025   2.769   8.563  0.00  0.00    +0.000 C 
BRANCH 327 328
ATOM    328  N9  G   B  14      12.856   3.249   7.196  0.00  0.00    +0.000 N 
ATOM    329  C8  G   B  14      13.120   4.508   6.715  0.00  0.00    +0.000 A 
ATOM    330  N7  G   B  14      12.836   4.646   5.449  0.00  0.00    +0.000 NA
ATOM    331  C5  G   B  14      12.364   3.397   5.065  0.00  0.00    +0.000 A 
ATOM    332  C6  G   B  14      11.898   2.934   3.803  0.00  0.00    +0.000 A 
ATOM    333  O6  G   B  14      11.802   3.556   2.735  0.00  0.00    +0.000 OA
ATOM    334  N1  G   B  14      11.515   1.599   3.859  0.00  0.00    +0.000 N 
ATOM    335  C2  G   B  14      11.577   0.806   4.982  0.00  0.00    +0.000 A 
ATOM    336  N2  G   B  14      11.179  -0.464   4.839  0.00  0.00    +0.000 N 
ATOM    337  N3  G   B  14      12.003   1.226   6.162  0.00  0.00    +0.000 NA
ATOM    338  C4  G   B  14      12.378   2.522   6.131  0.00  0.00    +0.000 A 
ATOM    339  H1  G   B  14      11.166   1.204   2.994  0.00  0.00    +0.000 HD
ATOM    340  H21 G   B  14      11.212  -1.090   5.636  0.00  0.00    +0.000 HD
ATOM    341  H22 G   B  14      10.838  -0.802   3.948  0.00  0.00    +0.000 HD
ENDBRANCH 327 328
BRANCH 326 342
ATOM    342  O2' G   B  14      13.976   0.951   9.782  0.00  0.00    +0.000 OA
ATOM    343 HO2' G   B  14      13.321   1.363  10.362  0.00  0.00    +0.000 HD
ENDBRANCH 326 342
BRANCH 325 344
ATOM    344  O3' G   B  14      16.330   2.346  10.011  0.00  0.00    +0.000 OA
BRANCH 344 345
ATOM    345  P   G   B  15      17.727   2.036   9.287  0.00  0.00    +0.000 P 
ATOM    346  OP1 G   B  15      18.747   1.842  10.342  0.00  0.00    +0.000 OA
ATOM    347  OP2 G   B  15      17.947   3.063   8.243  0.00  0.00    +0.000 OA
BRANCH 345 348
ATOM    348  O5' G   B  15      17.487   0.638   8.569  0.00  0.00    +0.000 OA
BRANCH 348 349
ATOM    349  C5' G   B  15      17.399  -0.566   9.325  0.00  0.00    +0.000 C 
BRANCH 349 350
ATOM    350  C4' G   B  15      16.605  -1.598   8.566  0.00  0.00    +0.000 C 
ATOM    351  O4' G   B  15      15.445  -0.956   7.974  0.00  0.00    +0.000 OA
ATOM    352  C3' G   B  15      17.317  -2.240   7.387  0.00  0.00    +0.000 C 
ATOM    353  C2' G   B  15      16.157  -2.686   6.509  0.00  0.00    +0.000 C 
ATOM    354  C1' G   B  15      15.171  -1.536   6.711  0.00  0.00    +0.000 C 
BRANCH 354 355
ATOM    355  N9  G   B  15      15.286  -0.493   5.698  0.00  0.00    +0.000 N 
ATOM    356  C8  G   B  15      15.923   0.717   5.826  0.00  0.00    +0.000 A 
ATOM    357  N7  G   B  15      15.846   1.456   4.752  0.00  0.00    +0.000 NA
ATOM    358  C5  G   B  15      15.118   0.683   3.857  0.00  0.00    +0.000 A 
ATOM    359  C6  G   B  15      14.716   0.952   2.519  0.00  0.00    +0.000 A 
ATOM    360  O6  G   B  15      14.924   1.966   1.837  0.00  0.00    +0.000 OA
ATOM    361  N1  G   B  15      14.001  -0.111   1.977  0.00  0.00    +0.000 N 
ATOM    362  C2  G   B  15      13.705  -1.281   2.635  0.00  0.00    +0.000 A 
ATOM    363  N2  G   B  15      13.003  -2.188   1.947  0.00  0.00    +0.000 N 
ATOM    364  N3  G   B  15      14.071  -1.543   3.879  0.00  0.00    +0.000 NA
ATOM    365  C4  G   B  15      14.770  -0.526   4.425  0.00  0.00    +0.000 A 
ATOM    366  H1  G   B  15      13.686   0.004   1.021  0.00  0.00    +0.000 HD
ATOM    367  H21 G   B  15      12.753  -3.068   2.376  0.00  0.00    +0.000 HD
ATOM    368  H22 G   B  15      12.739  -2.010   0.985  0.00  0.00    +0.000 HD
ENDBRANCH 354 355
BRANCH 353 369
ATOM    369  O2' G   B  15      15.571  -3.871   7.013  0.00  0.00    +0.000 OA
ATOM    370 HO2' G   B  15      14.893  -3.588   7.632  0.00  0.00    +0.000 HD
ENDBRANCH 353 369
BRANCH 352 371
ATOM    371  O3' G   B  15      18.150  -3.317   7.791  0.00  0.00    +0.000 OA
BRANCH 371 372
ATOM    372  P   C   B  16      19.605  -3.475   7.137  0.00  0.00    +0.000 P 
ATOM    373  OP1 C   B  16      20.426  -4.262   8.081  0.00  0.00    +0.000 OA
ATOM    374  OP2 C   B  16      20.071  -2.137   6.704  0.00  0.00    +0.000 OA
BRANCH 372 375
ATOM    375  O5' C   B  16      19.346  -4.362   5.843  0.00  0.00    +0.000 OA
BRANCH 375 376
ATOM    376  C5' C   B  16      18.339  -5.368   5.841  0.00  0.00    +0.000 C 
BRANCH 376 377
ATOM    377  C4' C   B  16      18.183  -5.943   4.457  0.00  0.00    +0.000 C 
ATOM    378  O4' C   B  16      17.151  -5.193   3.758  0.00  0.00    +0.000 OA
ATOM    379  C3' C   B  16      19.400  -5.822   3.557  0.00  0.00    +0.000 C 
ATOM    380  C2' C   B  16      18.782  -5.862   2.167  0.00  0.00    +0.000 C 
ATOM    381  C1' C   B  16      17.491  -5.073   2.386  0.00  0.00    +0.000 C 
BRANCH 381 382
ATOM    382  N1  C   B  16      17.580  -3.642   2.056  0.00  0.00    +0.000 N 
ATOM    383  C2  C   B  16      17.752  -3.267   0.723  0.00  0.00    +0.000 A 
ATOM    384  O2  C   B  16      17.849  -4.149  -0.142  0.00  0.00    +0.000 OA
ATOM    385  N3  C   B  16      17.807  -1.954   0.407  0.00  0.00    +0.000 NA
ATOM    386  C4  C   B  16      17.695  -1.031   1.363  0.00  0.00    +0.000 A 
ATOM    387  N4  C   B  16      17.736   0.254   0.994  0.00  0.00    +0.000 N 
ATOM    388  C5  C   B  16      17.531  -1.384   2.735  0.00  0.00    +0.000 A 
ATOM    389  C6  C   B  16      17.484  -2.690   3.033  0.00  0.00    +0.000 A 
ATOM    390  H41 C   B  16      17.871   0.494   0.017  0.00  0.00    +0.000 HD
ATOM    391  H42 C   B  16      17.652   1.002   1.668  0.00  0.00    +0.000 HD
ENDBRANCH 381 382
BRANCH 380 392
ATOM    392  O2' C   B  16      18.434  -7.185   1.802  0.00  0.00    +0.000 OA
ATOM    393 HO2' C   B  16      17.984  -7.115   0.952  0.00  0.00    +0.000 HD
ENDBRANCH 380 392
BRANCH 379 394
ATOM    394  O3' C   B  16      20.311  -6.891   3.778  0.00  0.00    +0.000 OA
BRANCH 394 395
ATOM    395  P   C   B  17      21.888  -6.635   3.634  0.00  0.00    +0.000 P 
ATOM    396  OP1 C   B  17      22.551  -7.938   3.893  0.00  0.00    +0.000 OA
ATOM    397  OP2 C   B  17      22.258  -5.452   4.446  0.00  0.00    +0.000 OA
BRANCH 395 398
ATOM    398  O5' C   B  17      22.080  -6.265   2.098  0.00  0.00    +0.000 OA
BRANCH 398 399
ATOM    399  C5' C   B  17      22.055  -7.281   1.103  0.00  0.00    +0.000 C 
BRANCH 399 400
ATOM    400  C4' C   B  17      22.447  -6.707  -0.238  0.00  0.00    +0.000 C 
ATOM    401  O4' C   B  17      21.410  -5.777  -0.659  0.00  0.00    +0.000 OA
ATOM    402  C3' C   B  17      23.714  -5.862  -0.248  0.00  0.00    +0.000 C 
ATOM    403  C2' C   B  17      23.495  -4.957  -1.452  0.00  0.00    +0.000 C 
ATOM    404  C1' C   B  17      21.995  -4.689  -1.356  0.00  0.00    +0.000 C 
BRANCH 404 405
ATOM    405  N1  C   B  17      21.684  -3.434  -0.654  0.00  0.00    +0.000 N 
ATOM    406  C2  C   B  17      21.813  -2.236  -1.355  0.00  0.00    +0.000 A 
ATOM    407  O2  C   B  17      22.190  -2.274  -2.534  0.00  0.00    +0.000 OA
ATOM    408  N3  C   B  17      21.529  -1.067  -0.735  0.00  0.00    +0.000 NA
ATOM    409  C4  C   B  17      21.126  -1.067   0.537  0.00  0.00    +0.000 A 
ATOM    410  N4  C   B  17      20.851   0.114   1.101  0.00  0.00    +0.000 N 
ATOM    411  C5  C   B  17      20.985  -2.277   1.282  0.00  0.00    +0.000 A 
ATOM    412  C6  C   B  17      21.276  -3.428   0.652  0.00  0.00    +0.000 A 
ATOM    413  H41 C   B  17      20.933   0.960   0.549  0.00  0.00    +0.000 HD
ATOM    414  H42 C   B  17      20.542   0.185   2.060  0.00  0.00    +0.000 HD
ENDBRANCH 404 405
BRANCH 403 415
ATOM    415  O2' C   B  17      23.746  -5.646  -2.663  0.00  0.00    +0.000 OA
ATOM    416 HO2' C   B  17      22.879  -5.904  -3.015  0.00  0.00    +0.000 HD
ENDBRANCH 403 415
BRANCH 402 417
ATOM    417  O3' C   B  17      24.904  -6.629  -0.372  0.00  0.00    +0.000 OA
BRANCH 417 418
ATOM    418  P   G   B  18      26.285  -6.040   0.201  0.00  0.00    +0.000 P 
ATOM    419  OP1 G   B  18      27.238  -7.167   0.311  0.00  0.00    +0.000 OA
ATOM    420  OP2 G   B  18      25.976  -5.228   1.401  0.00  0.00    +0.000 OA
BRANCH 418 421
ATOM    421  O5' G   B  18      26.801  -5.065  -0.945  0.00  0.00    +0.000 OA
BRANCH 421 422
ATOM    422  C5' G   B  18      27.304  -5.586  -2.172  0.00  0.00    +0.000 C 
BRANCH 422 423
ATOM    423  C4' G   B  18      27.313  -4.514  -3.235  0.00  0.00    +0.000 C 
ATOM    424  O4' G   B  18      26.024  -3.844  -3.224  0.00  0.00    +0.000 OA
ATOM    425  C3' G   B  18      28.312  -3.384  -3.039  0.00  0.00    +0.000 C 
ATOM    426  C2' G   B  18      27.673  -2.240  -3.815  0.00  0.00    +0.000 C 
ATOM    427  C1' G   B  18      26.195  -2.467  -3.510  0.00  0.00    +0.000 C 
BRANCH 427 428
ATOM    428  N9  G   B  18      25.714  -1.687  -2.376  0.00  0.00    +0.000 N 
ATOM    429  C8  G   B  18      25.423  -2.136  -1.114  0.00  0.00    +0.000 A 
ATOM    430  N7  G   B  18      24.985  -1.196  -0.320  0.00  0.00    +0.000 NA
ATOM    431  C5  G   B  18      25.001  -0.052  -1.107  0.00  0.00    +0.000 A 
ATOM    432  C6  G   B  18      24.636   1.289  -0.797  0.00  0.00    +0.000 A 
ATOM    433  O6  G   B  18      24.202   1.749   0.271  0.00  0.00    +0.000 OA
ATOM    434  N1  G   B  18      24.815   2.131  -1.890  0.00  0.00    +0.000 N 
ATOM    435  C2  G   B  18      25.279   1.736  -3.124  0.00  0.00    +0.000 A 
ATOM    436  N2  G   B  18      25.383   2.689  -4.059  0.00  0.00    +0.000 N 
ATOM    437  N3  G   B  18      25.616   0.495  -3.424  0.00  0.00    +0.000 NA
ATOM    438  C4  G   B  18      25.454  -0.340  -2.377  0.00  0.00    +0.000 A 
ATOM    439  H1  G   B  18      24.580   3.104  -1.746  0.00  0.00    +0.000 HD
ATOM    440  H21 G   B  18      25.714   2.457  -4.985  0.00  0.00    +0.000 HD
ATOM    441  H22 G   B  18      25.136   3.650  -3.850  0.00  0.00    +0.000 HD
ENDBRANCH 427 428
BRANCH 426 442
ATOM    442  O2' G   B  18      27.865  -2.395  -5.209  0.00  0.00    +0.000 OA
ATOM    443 HO2' G   B  18      27.217  -3.041  -5.504  0.00  0.00    +0.000 HD
ENDBRANCH 426 442
BRANCH 425 444
ATOM    444  O3' G   B  18      29.596  -3.715  -3.548  0.00  0.00    +0.000 OA
BRANCH 444 445
ATOM    445  P   G   B  19      30.904  -3.166  -2.801  0.00  0.00    +0.000 P 
ATOM    446  OP1 G   B  19      31.990  -4.149  -3.025  0.00  0.00    +0.000 OA
ATOM    447  OP2 G   B  19      30.520  -2.795  -1.418  0.00  0.00    +0.000 OA
BRANCH 445 448
ATOM    448  O5' G   B  19      31.270  -1.833  -3.588  0.00  0.00    +0.000 OA
BRANCH 448 449
ATOM    449  C5' G   B  19      30.924  -1.677  -4.960  0.00  0.00    +0.000 C 
BRANCH 449 450
ATOM    450  C4' G   B  19      30.868  -0.212  -5.317  0.00  0.00    +0.000 C 
ATOM    451  O4' G   B  19      29.575   0.309  -4.914  0.00  0.00    +0.000 OA
ATOM    452  C3' G   B  19      31.868   0.684  -4.603  0.00  0.00    +0.000 C 
ATOM    453  C2' G   B  19      31.179   2.042  -4.650  0.00  0.00    +0.000 C 
ATOM    454  C1' G   B  19      29.716   1.641  -4.453  0.00  0.00    +0.000 C 
BRANCH 454 455
ATOM    455  N9  G   B  19      29.265   1.684  -3.067  0.00  0.00    +0.000 N 
ATOM    456  C8  G   B  19      29.226   0.637  -2.182  0.00  0.00    +0.000 A 
ATOM    457  N7  G   B  19      28.748   0.967  -1.013  0.00  0.00    +0.000 NA
ATOM    458  C5  G   B  19      28.456   2.319  -1.133  0.00  0.00    +0.000 A 
ATOM    459  C6  G   B  19      27.908   3.229  -0.191  0.00  0.00    +0.000 A 
ATOM    460  O6  G   B  19      27.553   3.013   0.976  0.00  0.00    +0.000 OA
ATOM    461  N1  G   B  19      27.787   4.506  -0.725  0.00  0.00    +0.000 N 
ATOM    462  C2  G   B  19      28.143   4.865  -2.003  0.00  0.00    +0.000 A 
ATOM    463  N2  G   B  19      27.958   6.151  -2.333  0.00  0.00    +0.000 N 
ATOM    464  N3  G   B  19      28.649   4.025  -2.893  0.00  0.00    +0.000 NA
ATOM    465  C4  G   B  19      28.778   2.778  -2.393  0.00  0.00    +0.000 A 
ATOM    466  H1  G   B  19      27.406   5.220  -0.118  0.00  0.00    +0.000 HD
ATOM    467  H21 G   B  19      28.210   6.469  -3.266  0.00  0.00    +0.000 HD
ATOM    468  H22 G   B  19      27.562   6.812  -1.676  0.00  0.00    +0.000 HD
ENDBRANCH 454 455
BRANCH 453 469
ATOM    469  O2' G   B  19      31.315   2.636  -5.927  0.00  0.00    +0.000 OA
ATOM    470 HO2' G   B  19      30.680   2.186  -6.503  0.00  0.00    +0.000 HD
ENDBRANCH 453 469
BRANCH 452 471
ATOM    471  O3' G   B  19      33.126   0.691  -5.269  0.00  0.00    +0.000 OA
ATOM    472 HO3' G   B  19      33.986   1.050  -4.539  0.00  0.00    +0.000 HD
ENDBRANCH 452 471
ENDBRANCH 449 450
ENDBRANCH 448 449
ENDBRANCH 445 448
ENDBRANCH 444 445
ENDBRANCH 425 444
ENDBRANCH 422 423
ENDBRANCH 421 422
ENDBRANCH 418 421
ENDBRANCH 417 418
ENDBRANCH 402 417
ENDBRANCH 399 400
ENDBRANCH 398 399
ENDBRANCH 395 398
ENDBRANCH 394 395
ENDBRANCH 379 394
ENDBRANCH 376 377
ENDBRANCH 375 376
ENDBRANCH 372 375
ENDBRANCH 371 372
ENDBRANCH 352 371
ENDBRANCH 349 350
ENDBRANCH 348 349
ENDBRANCH 345 348
ENDBRANCH 344 345
ENDBRANCH 325 344
ENDBRANCH 322 323
ENDBRANCH 321 322
ENDBRANCH 318 321
ENDBRANCH 317 318
ENDBRANCH 303 317
ENDBRANCH 300 301
ENDBRANCH 299 300
ENDBRANCH 296 299
ENDBRANCH 295 296
ENDBRANCH 276 295
ENDBRANCH 273 274
ENDBRANCH 272 273
ENDBRANCH 269 272
ENDBRANCH 268 269
ENDBRANCH 249 268
ENDBRANCH 246 247
ENDBRANCH 245 246
ENDBRANCH 242 245
ENDBRANCH 241 242
ENDBRANCH   3 241
TORSDOF 131
REMARK  Name = /Users/acegid/Desktop/Smoking_Research/Docking/Docking_All_PDB/All_PDB/2MKN_H.pdb
REMARK  553 active torsions:
REMARK  status: ('A' for Active; 'I' for Inactive)
REMARK    1  A    between atoms: N_1  and  CA_5
REMARK    2  A    between atoms: CA_5  and  CB_7
REMARK    3  A    between atoms: CA_5  and  C_12
REMARK    4  A    between atoms: CB_7  and  OG_10
REMARK    5  A    between atoms: C_12  and  N_14
REMARK    6  A    between atoms: N_14  and  CA_16
REMARK    7  A    between atoms: CA_16  and  CB_18
REMARK    8  A    between atoms: CA_16  and  C_26
REMARK    9  A    between atoms: CB_18  and  CG2_20
REMARK   10  A    between atoms: CB_18  and  OG1_24
REMARK   11  A    between atoms: N_28  and  CA_30
REMARK   12  A    between atoms: CA_30  and  CB_32
REMARK   13  A    between atoms: CA_30  and  C_48
REMARK   14  A    between atoms: CB_32  and  CG_35
REMARK   15  A    between atoms: CG_35  and  CD_38
REMARK   16  A    between atoms: CD_38  and  CE_41
REMARK   17  A    between atoms: CE_41  and  NZ_44
REMARK   18  A    between atoms: C_48  and  N_50
REMARK   19  A    between atoms: N_50  and  CA_52
REMARK   20  A    between atoms: CA_52  and  CB_54
REMARK   21  A    between atoms: CA_52  and  C_64
REMARK   22  A    between atoms: CB_54  and  CG1_56
REMARK   23  A    between atoms: CB_54  and  CG2_60
REMARK   24  A    between atoms: N_66  and  CA_68
REMARK   25  A    between atoms: CA_68  and  CB_70
REMARK   26  A    between atoms: CA_68  and  C_79
REMARK   27  A    between atoms: CB_70  and  CG_73
REMARK   28  A    between atoms: CG_73  and  CD_76
REMARK   29  A    between atoms: N_81  and  CA_83
REMARK   30  A    between atoms: CA_83  and  CB_85
REMARK   31  A    between atoms: CA_83  and  C_89
REMARK   32  A    between atoms: N_91  and  CA_93
REMARK   33  A    between atoms: CA_93  and  CB_95
REMARK   34  A    between atoms: CA_93  and  C_108
REMARK   35  A    between atoms: CB_95  and  CG_98
REMARK   36  A    between atoms: CG_98  and  CD1_100
REMARK   37  A    between atoms: CG_98  and  CD2_104
REMARK   38  A    between atoms: C_108  and  N_110
REMARK   39  A    between atoms: N_110  and  CA_112
REMARK   40  A    between atoms: CA_112  and  CB_114
REMARK   41  A    between atoms: CA_112  and  C_125
REMARK   42  A    between atoms: CB_114  and  CG_117
REMARK   43  A    between atoms: N_127  and  CA_129
REMARK   44  A    between atoms: CA_129  and  CB_131
REMARK   45  A    between atoms: CA_129  and  C_142
REMARK   46  A    between atoms: CB_131  and  CG_134
REMARK   47  A    between atoms: CG_134  and  CD_137
REMARK   48  A    between atoms: N_144  and  CA_146
REMARK   49  A    between atoms: CA_146  and  CB_148
REMARK   50  A    between atoms: CB_148  and  CG_151
REMARK   51  A    between atoms: N_158  and  CA_160
REMARK   52  A    between atoms: CA_160  and  CB_162
REMARK   53  A    between atoms: CA_160  and  C_180
REMARK   54  A    between atoms: CB_162  and  CG_165
REMARK   55  A    between atoms: CG_165  and  CD_168
REMARK   56  A    between atoms: CD_168  and  NE_171
REMARK   57  A    between atoms: N_182  and  CA_184
REMARK   58  A    between atoms: CA_184  and  CB_186
REMARK   59  A    between atoms: CA_184  and  C_195
REMARK   60  A    between atoms: CB_186  and  CG_189
REMARK   61  A    between atoms: CG_189  and  CD_192
REMARK   62  A    between atoms: N_197  and  CA_199
REMARK   63  A    between atoms: CA_199  and  CB_201
REMARK   64  A    between atoms: CB_201  and  CG_204
REMARK   65  A    between atoms: CG_204  and  SD_207
REMARK   66  A    between atoms: SD_207  and  CE_208
REMARK   67  A    between atoms: CA_215  and  C_217
REMARK   68  A    between atoms: CA_215  and  CB_219
REMARK   69  A    between atoms: CB_219  and  CG1_221
REMARK   70  A    between atoms: CB_219  and  CG2_224
REMARK   71  A    between atoms: CG1_221  and  CD1_228
REMARK   72  A    between atoms: N_233  and  CA_234
REMARK   73  A    between atoms: CA_234  and  C_236
REMARK   74  A    between atoms: CA_234  and  CB_238
REMARK   75  A    between atoms: CB_238  and  CG_241
REMARK   76  A    between atoms: CA_246  and  C_248
REMARK   77  A    between atoms: N_259  and  CA_260
REMARK   78  A    between atoms: CA_260  and  C_262
REMARK   79  A    between atoms: CA_260  and  CB_264
REMARK   80  A    between atoms: CB_264  and  CG_267
REMARK   81  A    between atoms: N_271  and  CA_272
REMARK   82  A    between atoms: CA_272  and  C_274
REMARK   83  A    between atoms: CA_272  and  CB_276
REMARK   84  A    between atoms: CB_276  and  CG_279
REMARK   85  A    between atoms: CG_279  and  CD_282
REMARK   86  A    between atoms: CD_282  and  CE_285
REMARK   87  A    between atoms: CE_285  and  NZ_288
REMARK   88  A    between atoms: N_293  and  CA_294
REMARK   89  A    between atoms: CA_294  and  C_296
REMARK   90  A    between atoms: CA_294  and  CB_298
REMARK   91  A    between atoms: CB_298  and  CG_301
REMARK   92  A    between atoms: N_313  and  CA_314
REMARK   93  A    between atoms: CA_314  and  C_316
REMARK   94  A    between atoms: CA_314  and  CB_318
REMARK   95  A    between atoms: CB_318  and  SG_321
REMARK   96  A    between atoms: N_324  and  CA_325
REMARK   97  A    between atoms: CA_325  and  C_327
REMARK   98  A    between atoms: CA_325  and  CB_329
REMARK   99  A    between atoms: CB_329  and  OG_332
REMARK  100  A    between atoms: N_335  and  CA_336
REMARK  101  A    between atoms: CA_336  and  C_338
REMARK  102  A    between atoms: CA_336  and  CB_340
REMARK  103  A    between atoms: CB_340  and  CG_343
REMARK  104  A    between atoms: CG_343  and  CD1_345
REMARK  105  A    between atoms: CG_343  and  CD2_349
REMARK  106  A    between atoms: N_354  and  CA_355
REMARK  107  A    between atoms: CA_355  and  C_357
REMARK  108  A    between atoms: CA_355  and  CB_359
REMARK  109  A    between atoms: CB_359  and  SG_362
REMARK  110  A    between atoms: N_365  and  CA_366
REMARK  111  A    between atoms: CA_366  and  C_368
REMARK  112  A    between atoms: CA_366  and  CB_370
REMARK  113  A    between atoms: CB_370  and  CG_373
REMARK  114  A    between atoms: N_383  and  CA_384
REMARK  115  A    between atoms: CA_384  and  C_386
REMARK  116  A    between atoms: CA_384  and  CB_388
REMARK  117  A    between atoms: N_393  and  CA_394
REMARK  118  A    between atoms: CA_394  and  C_396
REMARK  119  A    between atoms: CA_394  and  CB_398
REMARK  120  A    between atoms: CB_398  and  OG1_400
REMARK  121  A    between atoms: CB_398  and  CG2_401
REMARK  122  A    between atoms: N_407  and  CA_408
REMARK  123  A    between atoms: CA_408  and  C_410
REMARK  124  A    between atoms: CA_408  and  CB_412
REMARK  125  A    between atoms: CB_412  and  CG_415
REMARK  126  A    between atoms: N_427  and  CA_428
REMARK  127  A    between atoms: CA_428  and  C_430
REMARK  128  A    between atoms: CA_428  and  CB_432
REMARK  129  A    between atoms: CB_432  and  CG_435
REMARK  130  A    between atoms: N_441  and  CA_442
REMARK  131  A    between atoms: CA_442  and  C_444
REMARK  132  A    between atoms: CA_442  and  CB_446
REMARK  133  A    between atoms: CB_446  and  CG_449
REMARK  134  A    between atoms: CA_454  and  C_456
REMARK  135  A    between atoms: N_467  and  CA_468
REMARK  136  A    between atoms: CA_468  and  C_470
REMARK  137  A    between atoms: CA_468  and  CB_472
REMARK  138  A    between atoms: CB_472  and  CG1_474
REMARK  139  A    between atoms: CB_472  and  CG2_478
REMARK  140  A    between atoms: N_483  and  CA_484
REMARK  141  A    between atoms: CA_484  and  C_486
REMARK  142  A    between atoms: CA_484  and  CB_488
REMARK  143  A    between atoms: CB_488  and  CG_491
REMARK  144  A    between atoms: CG_491  and  SD_494
REMARK  145  A    between atoms: SD_494  and  CE_495
REMARK  146  A    between atoms: N_500  and  CA_501
REMARK  147  A    between atoms: CA_501  and  C_503
REMARK  148  A    between atoms: CA_501  and  CB_505
REMARK  149  A    between atoms: N_510  and  CA_511
REMARK  150  A    between atoms: CA_511  and  C_513
REMARK  151  A    between atoms: CA_511  and  CB_515
REMARK  152  A    between atoms: CB_515  and  CG_518
REMARK  153  A    between atoms: CG_518  and  CD_521
REMARK  154  A    between atoms: N_527  and  CA_528
REMARK  155  A    between atoms: CA_528  and  C_530
REMARK  156  A    between atoms: CA_528  and  CB_532
REMARK  157  A    between atoms: CB_532  and  CG_535
REMARK  158  A    between atoms: CG_535  and  CD_538
REMARK  159  A    between atoms: N_544  and  CA_545
REMARK  160  A    between atoms: CA_545  and  C_547
REMARK  161  A    between atoms: CA_545  and  CB_549
REMARK  162  A    between atoms: CB_549  and  CG_552
REMARK  163  A    between atoms: N_561  and  CA_562
REMARK  164  A    between atoms: CA_562  and  C_564
REMARK  165  A    between atoms: CA_562  and  CB_566
REMARK  166  A    between atoms: CB_566  and  CG_569
REMARK  167  A    between atoms: CZ_578  and  OH_579
REMARK  168  A    between atoms: N_582  and  CA_583
REMARK  169  A    between atoms: CA_583  and  C_585
REMARK  170  A    between atoms: CA_583  and  CB_587
REMARK  171  A    between atoms: CB_587  and  CG1_589
REMARK  172  A    between atoms: CB_587  and  CG2_593
REMARK  173  A    between atoms: N_598  and  CA_599
REMARK  174  A    between atoms: CA_599  and  C_602
REMARK  175  A    between atoms: N_605  and  CA_606
REMARK  176  A    between atoms: CA_606  and  C_608
REMARK  177  A    between atoms: CA_606  and  CB_610
REMARK  178  A    between atoms: CB_610  and  CG_613
REMARK  179  A    between atoms: CG_613  and  CD_616
REMARK  180  A    between atoms: CD_616  and  CE_619
REMARK  181  A    between atoms: CE_619  and  NZ_622
REMARK  182  A    between atoms: N_627  and  CA_628
REMARK  183  A    between atoms: CA_628  and  C_630
REMARK  184  A    between atoms: CA_628  and  CB_632
REMARK  185  A    between atoms: CB_632  and  CG_635
REMARK  186  A    between atoms: CG_635  and  CD_638
REMARK  187  A    between atoms: CD_638  and  CE_641
REMARK  188  A    between atoms: CE_641  and  NZ_644
REMARK  189  A    between atoms: N_649  and  CA_650
REMARK  190  A    between atoms: CA_650  and  C_652
REMARK  191  A    between atoms: CA_650  and  CB_654
REMARK  192  A    between atoms: CB_654  and  CG_657
REMARK  193  A    between atoms: N_666  and  CA_667
REMARK  194  A    between atoms: CA_667  and  C_669
REMARK  195  A    between atoms: CA_667  and  CB_671
REMARK  196  A    between atoms: CB_671  and  CG_674
REMARK  197  A    between atoms: CG_674  and  CD_677
REMARK  198  A    between atoms: CD_677  and  NE_680
REMARK  199  A    between atoms: N_690  and  CA_691
REMARK  200  A    between atoms: CA_691  and  C_693
REMARK  201  A    between atoms: CA_691  and  CB_695
REMARK  202  A    between atoms: CB_695  and  CG_698
REMARK  203  A    between atoms: CG_698  and  CD_701
REMARK  204  A    between atoms: CD_701  and  CE_704
REMARK  205  A    between atoms: CE_704  and  NZ_707
REMARK  206  A    between atoms: N_712  and  CA_713
REMARK  207  A    between atoms: CA_713  and  C_715
REMARK  208  A    between atoms: CA_713  and  CB_717
REMARK  209  A    between atoms: CB_717  and  CG_720
REMARK  210  A    between atoms: CG_720  and  CD_723
REMARK  211  A    between atoms: N_729  and  CA_730
REMARK  212  A    between atoms: CA_730  and  C_732
REMARK  213  A    between atoms: CA_730  and  CB_734
REMARK  214  A    between atoms: CB_734  and  CG_737
REMARK  215  A    between atoms: CG_737  and  CD_740
REMARK  216  A    between atoms: N_744  and  CA_745
REMARK  217  A    between atoms: CA_745  and  C_747
REMARK  218  A    between atoms: CA_745  and  CB_749
REMARK  219  A    between atoms: CB_749  and  OG1_751
REMARK  220  A    between atoms: CB_749  and  CG2_752
REMARK  221  A    between atoms: N_758  and  CA_759
REMARK  222  A    between atoms: CA_759  and  C_761
REMARK  223  A    between atoms: CA_759  and  CB_763
REMARK  224  A    between atoms: CB_763  and  CG_766
REMARK  225  A    between atoms: CG_766  and  CD_769
REMARK  226  A    between atoms: CD_769  and  CE_772
REMARK  227  A    between atoms: CE_772  and  NZ_775
REMARK  228  A    between atoms: N_780  and  CA_781
REMARK  229  A    between atoms: CA_781  and  C_783
REMARK  230  A    between atoms: CA_781  and  CB_785
REMARK  231  A    between atoms: CB_785  and  CG_788
REMARK  232  A    between atoms: CG_788  and  CD1_790
REMARK  233  A    between atoms: CG_788  and  CD2_794
REMARK  234  A    between atoms: N_799  and  CA_800
REMARK  235  A    between atoms: CA_800  and  C_802
REMARK  236  A    between atoms: CA_800  and  CB_804
REMARK  237  A    between atoms: CB_804  and  CG_807
REMARK  238  A    between atoms: CG_807  and  CD_810
REMARK  239  A    between atoms: CD_810  and  CE_813
REMARK  240  A    between atoms: CE_813  and  NZ_816
REMARK  241  A    between atoms: N_821  and  CA_822
REMARK  242  A    between atoms: CA_822  and  C_824
REMARK  243  A    between atoms: CA_822  and  CB_826
REMARK  244  A    between atoms: CB_826  and  CG_829
REMARK  245  A    between atoms: CG_829  and  CD1_831
REMARK  246  A    between atoms: CG_829  and  CD2_835
REMARK  247  A    between atoms: N_840  and  CA_841
REMARK  248  A    between atoms: CA_841  and  C_843
REMARK  249  A    between atoms: CA_841  and  CB_845
REMARK  250  A    between atoms: CB_845  and  CG_848
REMARK  251  A    between atoms: CG_848  and  SD_851
REMARK  252  A    between atoms: SD_851  and  CE_852
REMARK  253  A    between atoms: N_857  and  CA_858
REMARK  254  A    between atoms: CA_858  and  C_860
REMARK  255  A    between atoms: CA_858  and  CB_862
REMARK  256  A    between atoms: N_867  and  CA_868
REMARK  257  A    between atoms: CA_868  and  C_870
REMARK  258  A    between atoms: CA_868  and  CB_872
REMARK  259  A    between atoms: CB_872  and  CG_875
REMARK  260  A    between atoms: CG_875  and  CD_878
REMARK  261  A    between atoms: CD_878  and  NE_881
REMARK  262  A    between atoms: N_891  and  CA_892
REMARK  263  A    between atoms: CA_892  and  C_894
REMARK  264  A    between atoms: CA_892  and  CB_896
REMARK  265  A    between atoms: CB_896  and  CG_899
REMARK  266  A    between atoms: CZ_908  and  OH_909
REMARK  267  A    between atoms: N_912  and  CA_913
REMARK  268  A    between atoms: CA_913  and  C_916
REMARK  269  A    between atoms: N_919  and  CA_920
REMARK  270  A    between atoms: CA_920  and  CB_924
REMARK  271  A    between atoms: O_923  and  N_943
REMARK  272  A    between atoms: CB_924  and  CG_927
REMARK  273  A    between atoms: CG_927  and  CD_930
REMARK  274  A    between atoms: CD_930  and  NE_933
REMARK  275  A    between atoms: N_943  and  CA_945
REMARK  276  A    between atoms: CA_945  and  CB_947
REMARK  277  A    between atoms: CA_945  and  C_960
REMARK  278  A    between atoms: CB_947  and  CG_950
REMARK  279  A    between atoms: CG_950  and  CD1_952
REMARK  280  A    between atoms: CG_950  and  CD2_956
REMARK  281  A    between atoms: N_962  and  CA_964
REMARK  282  A    between atoms: CA_964  and  CB_966
REMARK  283  A    between atoms: CA_964  and  C_970
REMARK  284  A    between atoms: N_972  and  CA_974
REMARK  285  A    between atoms: CA_974  and  CB_976
REMARK  286  A    between atoms: CA_974  and  C_982
REMARK  287  A    between atoms: CB_976  and  CG_979
REMARK  288  A    between atoms: O5'_985  and  C5'_986
REMARK  289  A    between atoms: C5'_986  and  C4'_987
REMARK  290  A    between atoms: C3'_989  and  O3'_990
REMARK  291  A    between atoms: O3'_990  and  P_1017
REMARK  292  A    between atoms: C2'_991  and  O2'_992
REMARK  293  A    between atoms: C1'_993  and  N9_994
REMARK  294  A    between atoms: P_1017  and  O5'_1020
REMARK  295  A    between atoms: O5'_1020  and  C5'_1021
REMARK  296  A    between atoms: C5'_1021  and  C4'_1022
REMARK  297  A    between atoms: C3'_1024  and  O3'_1025
REMARK  298  A    between atoms: O3'_1025  and  P_1048
REMARK  299  A    between atoms: C2'_1026  and  O2'_1027
REMARK  300  A    between atoms: C1'_1028  and  N1_1029
REMARK  301  A    between atoms: P_1048  and  O5'_1051
REMARK  302  A    between atoms: O5'_1051  and  C5'_1052
REMARK  303  A    between atoms: C5'_1052  and  C4'_1053
REMARK  304  A    between atoms: C3'_1055  and  O3'_1056
REMARK  305  A    between atoms: O3'_1056  and  P_1079
REMARK  306  A    between atoms: C2'_1057  and  O2'_1058
REMARK  307  A    between atoms: C1'_1059  and  N1_1060
REMARK  308  A    between atoms: P_1079  and  O5'_1082
REMARK  309  A    between atoms: O5'_1082  and  C5'_1083
REMARK  310  A    between atoms: C5'_1083  and  C4'_1084
REMARK  311  A    between atoms: C3'_1086  and  O3'_1087
REMARK  312  A    between atoms: O3'_1087  and  P_1113
REMARK  313  A    between atoms: C2'_1088  and  O2'_1089
REMARK  314  A    between atoms: C1'_1090  and  N9_1091
REMARK  315  A    between atoms: P_1113  and  O5'_1116
REMARK  316  A    between atoms: O5'_1116  and  C5'_1117
REMARK  317  A    between atoms: C5'_1117  and  C4'_1118
REMARK  318  A    between atoms: C3'_1120  and  O3'_1121
REMARK  319  A    between atoms: O3'_1121  and  P_1143
REMARK  320  A    between atoms: C2'_1122  and  O2'_1123
REMARK  321  A    between atoms: C1'_1124  and  N1_1125
REMARK  322  A    between atoms: P_1143  and  O5'_1146
REMARK  323  A    between atoms: O5'_1146  and  C5'_1147
REMARK  324  A    between atoms: C5'_1147  and  C4'_1148
REMARK  325  A    between atoms: C3'_1150  and  O3'_1151
REMARK  326  A    between atoms: O3'_1151  and  P_1177
REMARK  327  A    between atoms: C2'_1152  and  O2'_1153
REMARK  328  A    between atoms: C1'_1154  and  N9_1155
REMARK  329  A    between atoms: P_1177  and  O5'_1180
REMARK  330  A    between atoms: O5'_1180  and  C5'_1181
REMARK  331  A    between atoms: C5'_1181  and  C4'_1182
REMARK  332  A    between atoms: C3'_1184  and  O3'_1185
REMARK  333  A    between atoms: O3'_1185  and  P_1211
REMARK  334  A    between atoms: C2'_1186  and  O2'_1187
REMARK  335  A    between atoms: C1'_1188  and  N9_1189
REMARK  336  A    between atoms: P_1211  and  O5'_1214
REMARK  337  A    between atoms: O5'_1214  and  C5'_1215
REMARK  338  A    between atoms: C5'_1215  and  C4'_1216
REMARK  339  A    between atoms: C3'_1218  and  O3'_1219
REMARK  340  A    between atoms: O3'_1219  and  P_1241
REMARK  341  A    between atoms: C2'_1220  and  O2'_1221
REMARK  342  A    between atoms: C1'_1222  and  N1_1223
REMARK  343  A    between atoms: P_1241  and  O5'_1244
REMARK  344  A    between atoms: O5'_1244  and  C5'_1245
REMARK  345  A    between atoms: C5'_1245  and  C4'_1246
REMARK  346  A    between atoms: C3'_1248  and  O3'_1249
REMARK  347  A    between atoms: O3'_1249  and  P_1272
REMARK  348  A    between atoms: C2'_1250  and  O2'_1251
REMARK  349  A    between atoms: C1'_1252  and  N1_1253
REMARK  350  A    between atoms: P_1272  and  O5'_1275
REMARK  351  A    between atoms: O5'_1275  and  C5'_1276
REMARK  352  A    between atoms: C5'_1276  and  C4'_1277
REMARK  353  A    between atoms: C3'_1279  and  O3'_1280
REMARK  354  A    between atoms: O3'_1280  and  P_1302
REMARK  355  A    between atoms: C2'_1281  and  O2'_1282
REMARK  356  A    between atoms: C1'_1283  and  N1_1284
REMARK  357  A    between atoms: P_1302  and  O5'_1305
REMARK  358  A    between atoms: O5'_1305  and  C5'_1306
REMARK  359  A    between atoms: C5'_1306  and  C4'_1307
REMARK  360  A    between atoms: C3'_1309  and  O3'_1310
REMARK  361  A    between atoms: O3'_1310  and  P_1336
REMARK  362  A    between atoms: C2'_1311  and  O2'_1312
REMARK  363  A    between atoms: C1'_1313  and  N9_1314
REMARK  364  A    between atoms: P_1336  and  O5'_1339
REMARK  365  A    between atoms: O5'_1339  and  C5'_1340
REMARK  366  A    between atoms: C5'_1340  and  C4'_1341
REMARK  367  A    between atoms: C3'_1343  and  O3'_1344
REMARK  368  A    between atoms: O3'_1344  and  P_1370
REMARK  369  A    between atoms: C2'_1345  and  O2'_1346
REMARK  370  A    between atoms: C1'_1347  and  N9_1348
REMARK  371  A    between atoms: P_1370  and  O5'_1373
REMARK  372  A    between atoms: O5'_1373  and  C5'_1374
REMARK  373  A    between atoms: C5'_1374  and  C4'_1375
REMARK  374  A    between atoms: C3'_1377  and  O3'_1378
REMARK  375  A    between atoms: O3'_1378  and  P_1400
REMARK  376  A    between atoms: C2'_1379  and  O2'_1380
REMARK  377  A    between atoms: C1'_1381  and  N1_1382
REMARK  378  A    between atoms: P_1400  and  O5'_1403
REMARK  379  A    between atoms: O5'_1403  and  C5'_1404
REMARK  380  A    between atoms: C5'_1404  and  C4'_1405
REMARK  381  A    between atoms: C3'_1407  and  O3'_1408
REMARK  382  A    between atoms: O3'_1408  and  P_1434
REMARK  383  A    between atoms: C2'_1409  and  O2'_1410
REMARK  384  A    between atoms: C1'_1411  and  N9_1412
REMARK  385  A    between atoms: P_1434  and  O5'_1437
REMARK  386  A    between atoms: O5'_1437  and  C5'_1438
REMARK  387  A    between atoms: C5'_1438  and  C4'_1439
REMARK  388  A    between atoms: C3'_1441  and  O3'_1442
REMARK  389  A    between atoms: O3'_1442  and  P_1468
REMARK  390  A    between atoms: C2'_1443  and  O2'_1444
REMARK  391  A    between atoms: C1'_1445  and  N9_1446
REMARK  392  A    between atoms: P_1468  and  O5'_1471
REMARK  393  A    between atoms: O5'_1471  and  C5'_1472
REMARK  394  A    between atoms: C5'_1472  and  C4'_1473
REMARK  395  A    between atoms: C3'_1475  and  O3'_1476
REMARK  396  A    between atoms: O3'_1476  and  P_1499
REMARK  397  A    between atoms: C2'_1477  and  O2'_1478
REMARK  398  A    between atoms: C1'_1479  and  N1_1480
REMARK  399  A    between atoms: P_1499  and  O5'_1502
REMARK  400  A    between atoms: O5'_1502  and  C5'_1503
REMARK  401  A    between atoms: C5'_1503  and  C4'_1504
REMARK  402  A    between atoms: C3'_1506  and  O3'_1507
REMARK  403  A    between atoms: O3'_1507  and  P_1530
REMARK  404  A    between atoms: C2'_1508  and  O2'_1509
REMARK  405  A    between atoms: C1'_1510  and  N1_1511
REMARK  406  A    between atoms: P_1530  and  O5'_1533
REMARK  407  A    between atoms: O5'_1533  and  C5'_1534
REMARK  408  A    between atoms: C5'_1534  and  C4'_1535
REMARK  409  A    between atoms: C3'_1537  and  O3'_1538
REMARK  410  A    between atoms: O3'_1538  and  P_1564
REMARK  411  A    between atoms: C2'_1539  and  O2'_1540
REMARK  412  A    between atoms: C1'_1541  and  N9_1542
REMARK  413  A    between atoms: P_1564  and  O5'_1567
REMARK  414  A    between atoms: O5'_1567  and  C5'_1568
REMARK  415  A    between atoms: C5'_1568  and  C4'_1569
REMARK  416  A    between atoms: C3'_1571  and  O3'_1572
REMARK  417  A    between atoms: C2'_1574  and  O2'_1575
REMARK  418  A    between atoms: C1'_1576  and  N9_1577
REMARK  419  A    between atoms: O5'_1602  and  C5'_1604
REMARK  420  A    between atoms: C5'_1604  and  C4'_1605
REMARK  421  A    between atoms: C3'_1607  and  O3'_1608
REMARK  422  A    between atoms: O3'_1608  and  P_1631
REMARK  423  A    between atoms: C2'_1609  and  O2'_1610
REMARK  424  A    between atoms: C1'_1611  and  N1_1612
REMARK  425  A    between atoms: P_1631  and  O5'_1634
REMARK  426  A    between atoms: O5'_1634  and  C5'_1635
REMARK  427  A    between atoms: C5'_1635  and  C4'_1636
REMARK  428  A    between atoms: C3'_1638  and  O3'_1639
REMARK  429  A    between atoms: O3'_1639  and  P_1662
REMARK  430  A    between atoms: C2'_1640  and  O2'_1641
REMARK  431  A    between atoms: C1'_1642  and  N1_1643
REMARK  432  A    between atoms: P_1662  and  O5'_1665
REMARK  433  A    between atoms: O5'_1665  and  C5'_1666
REMARK  434  A    between atoms: C5'_1666  and  C4'_1667
REMARK  435  A    between atoms: C3'_1669  and  O3'_1670
REMARK  436  A    between atoms: O3'_1670  and  P_1696
REMARK  437  A    between atoms: C2'_1671  and  O2'_1672
REMARK  438  A    between atoms: C1'_1673  and  N9_1674
REMARK  439  A    between atoms: P_1696  and  O5'_1699
REMARK  440  A    between atoms: O5'_1699  and  C5'_1700
REMARK  441  A    between atoms: C5'_1700  and  C4'_1701
REMARK  442  A    between atoms: C3'_1703  and  O3'_1704
REMARK  443  A    between atoms: O3'_1704  and  P_1730
REMARK  444  A    between atoms: C2'_1705  and  O2'_1706
REMARK  445  A    between atoms: C1'_1707  and  N9_1708
REMARK  446  A    between atoms: P_1730  and  O5'_1733
REMARK  447  A    between atoms: O5'_1733  and  C5'_1734
REMARK  448  A    between atoms: C5'_1734  and  C4'_1735
REMARK  449  A    between atoms: C3'_1737  and  O3'_1738
REMARK  450  A    between atoms: O3'_1738  and  P_1761
REMARK  451  A    between atoms: C2'_1739  and  O2'_1740
REMARK  452  A    between atoms: C1'_1741  and  N1_1742
REMARK  453  A    between atoms: P_1761  and  O5'_1764
REMARK  454  A    between atoms: O5'_1764  and  C5'_1765
REMARK  455  A    between atoms: C5'_1765  and  C4'_1766
REMARK  456  A    between atoms: C3'_1768  and  O3'_1769
REMARK  457  A    between atoms: O3'_1769  and  P_1792
REMARK  458  A    between atoms: C2'_1770  and  O2'_1771
REMARK  459  A    between atoms: C1'_1772  and  N1_1773
REMARK  460  A    between atoms: P_1792  and  O5'_1795
REMARK  461  A    between atoms: O5'_1795  and  C5'_1796
REMARK  462  A    between atoms: C5'_1796  and  C4'_1797
REMARK  463  A    between atoms: C3'_1799  and  O3'_1800
REMARK  464  A    between atoms: O3'_1800  and  P_1825
REMARK  465  A    between atoms: C2'_1801  and  O2'_1802
REMARK  466  A    between atoms: C1'_1803  and  N9_1804
REMARK  467  A    between atoms: C6_1808  and  N6_1809
REMARK  468  A    between atoms: P_1825  and  O5'_1828
REMARK  469  A    between atoms: O5'_1828  and  C5'_1829
REMARK  470  A    between atoms: C5'_1829  and  C4'_1830
REMARK  471  A    between atoms: C3'_1832  and  O3'_1833
REMARK  472  A    between atoms: O3'_1833  and  P_1856
REMARK  473  A    between atoms: C2'_1834  and  O2'_1835
REMARK  474  A    between atoms: C1'_1836  and  N1_1837
REMARK  475  A    between atoms: P_1856  and  O5'_1859
REMARK  476  A    between atoms: O5'_1859  and  C5'_1860
REMARK  477  A    between atoms: C5'_1860  and  C4'_1861
REMARK  478  A    between atoms: C3'_1863  and  O3'_1864
REMARK  479  A    between atoms: O3'_1864  and  P_1887
REMARK  480  A    between atoms: C2'_1865  and  O2'_1866
REMARK  481  A    between atoms: C1'_1867  and  N1_1868
REMARK  482  A    between atoms: P_1887  and  O5'_1890
REMARK  483  A    between atoms: O5'_1890  and  C5'_1891
REMARK  484  A    between atoms: C5'_1891  and  C4'_1892
REMARK  485  A    between atoms: C3'_1894  and  O3'_1895
REMARK  486  A    between atoms: O3'_1895  and  P_1920
REMARK  487  A    between atoms: C2'_1896  and  O2'_1897
REMARK  488  A    between atoms: C1'_1898  and  N9_1899
REMARK  489  A    between atoms: C6_1903  and  N6_1904
REMARK  490  A    between atoms: P_1920  and  O5'_1923
REMARK  491  A    between atoms: O5'_1923  and  C5'_1924
REMARK  492  A    between atoms: C5'_1924  and  C4'_1925
REMARK  493  A    between atoms: C3'_1927  and  O3'_1928
REMARK  494  A    between atoms: O3'_1928  and  P_1954
REMARK  495  A    between atoms: C2'_1929  and  O2'_1930
REMARK  496  A    between atoms: C1'_1931  and  N9_1932
REMARK  497  A    between atoms: P_1954  and  O5'_1957
REMARK  498  A    between atoms: O5'_1957  and  C5'_1958
REMARK  499  A    between atoms: C5'_1958  and  C4'_1959
REMARK  500  A    between atoms: C3'_1961  and  O3'_1962
REMARK  501  A    between atoms: O3'_1962  and  P_1987
REMARK  502  A    between atoms: C2'_1963  and  O2'_1964
REMARK  503  A    between atoms: C1'_1965  and  N9_1966
REMARK  504  A    between atoms: C6_1970  and  N6_1971
REMARK  505  A    between atoms: P_1987  and  O5'_1990
REMARK  506  A    between atoms: O5'_1990  and  C5'_1991
REMARK  507  A    between atoms: C5'_1991  and  C4'_1992
REMARK  508  A    between atoms: C3'_1994  and  O3'_1995
REMARK  509  A    between atoms: O3'_1995  and  P_2018
REMARK  510  A    between atoms: C2'_1996  and  O2'_1997
REMARK  511  A    between atoms: C1'_1998  and  N1_1999
REMARK  512  A    between atoms: P_2018  and  O5'_2021
REMARK  513  A    between atoms: O5'_2021  and  C5'_2022
REMARK  514  A    between atoms: C5'_2022  and  C4'_2023
REMARK  515  A    between atoms: C3'_2025  and  O3'_2026
REMARK  516  A    between atoms: O3'_2026  and  P_2049
REMARK  517  A    between atoms: C2'_2027  and  O2'_2028
REMARK  518  A    between atoms: C1'_2029  and  N1_2030
REMARK  519  A    between atoms: P_2049  and  O5'_2052
REMARK  520  A    between atoms: O5'_2052  and  C5'_2053
REMARK  521  A    between atoms: C5'_2053  and  C4'_2054
REMARK  522  A    between atoms: C3'_2056  and  O3'_2057
REMARK  523  A    between atoms: O3'_2057  and  P_2082
REMARK  524  A    between atoms: C2'_2058  and  O2'_2059
REMARK  525  A    between atoms: C1'_2060  and  N9_2061
REMARK  526  A    between atoms: C6_2065  and  N6_2066
REMARK  527  A    between atoms: P_2082  and  O5'_2085
REMARK  528  A    between atoms: O5'_2085  and  C5'_2086
REMARK  529  A    between atoms: C5'_2086  and  C4'_2087
REMARK  530  A    between atoms: C3'_2089  and  O3'_2090
REMARK  531  A    between atoms: O3'_2090  and  P_2113
REMARK  532  A    between atoms: C2'_2091  and  O2'_2092
REMARK  533  A    between atoms: C1'_2093  and  N1_2094
REMARK  534  A    between atoms: P_2113  and  O5'_2116
REMARK  535  A    between atoms: O5'_2116  and  C5'_2117
REMARK  536  A    between atoms: C5'_2117  and  C4'_2118
REMARK  537  A    between atoms: C3'_2120  and  O3'_2121
REMARK  538  A    between atoms: O3'_2121  and  P_2147
REMARK  539  A    between atoms: C2'_2122  and  O2'_2123
REMARK  540  A    between atoms: C1'_2124  and  N9_2125
REMARK  541  A    between atoms: P_2147  and  O5'_2150
REMARK  542  A    between atoms: O5'_2150  and  C5'_2151
REMARK  543  A    between atoms: C5'_2151  and  C4'_2152
REMARK  544  A    between atoms: C3'_2154  and  O3'_2155
REMARK  545  A    between atoms: O3'_2155  and  P_2181
REMARK  546  A    between atoms: C2'_2156  and  O2'_2157
REMARK  547  A    between atoms: C1'_2158  and  N9_2159
REMARK  548  A    between atoms: P_2181  and  O5'_2184
REMARK  549  A    between atoms: O5'_2184  and  C5'_2185
REMARK  550  A    between atoms: C5'_2185  and  C4'_2186
REMARK  551  A    between atoms: C3'_2188  and  O3'_2189
REMARK  552  A    between atoms: C2'_2190  and  O2'_2191
REMARK  553  A    between atoms: C1'_2192  and  N1_2193
REMARK                            x       y       z     vdW  Elec       q    Type
REMARK                         _______ _______ _______ _____ _____    ______ ____
ROOT
ATOM      1  P   C   C   1      23.969  10.220   5.955  0.00  0.00    +0.000 P 
ATOM      2  OP1 C   C   1      22.604   9.649   6.070  0.00  0.00    +0.000 OA
ATOM      3  OP2 C   C   1      24.288  11.482   6.669  0.00  0.00    +0.000 OA
ENDROOT
TORSDOF 0
REMARK  Name = /Users/acegid/Desktop/Smoking_Research/Docking/Docking_All_PDB/All_PDB/2MKN_H.pdb
REMARK  553 active torsions:
REMARK  status: ('A' for Active; 'I' for Inactive)
REMARK    1  A    between atoms: N_1  and  CA_5
REMARK    2  A    between atoms: CA_5  and  CB_7
REMARK    3  A    between atoms: CA_5  and  C_12
REMARK    4  A    between atoms: CB_7  and  OG_10
REMARK    5  A    between atoms: C_12  and  N_14
REMARK    6  A    between atoms: N_14  and  CA_16
REMARK    7  A    between atoms: CA_16  and  CB_18
REMARK    8  A    between atoms: CA_16  and  C_26
REMARK    9  A    between atoms: CB_18  and  CG2_20
REMARK   10  A    between atoms: CB_18  and  OG1_24
REMARK   11  A    between atoms: N_28  and  CA_30
REMARK   12  A    between atoms: CA_30  and  CB_32
REMARK   13  A    between atoms: CA_30  and  C_48
REMARK   14  A    between atoms: CB_32  and  CG_35
REMARK   15  A    between atoms: CG_35  and  CD_38
REMARK   16  A    between atoms: CD_38  and  CE_41
REMARK   17  A    between atoms: CE_41  and  NZ_44
REMARK   18  A    between atoms: C_48  and  N_50
REMARK   19  A    between atoms: N_50  and  CA_52
REMARK   20  A    between atoms: CA_52  and  CB_54
REMARK   21  A    between atoms: CA_52  and  C_64
REMARK   22  A    between atoms: CB_54  and  CG1_56
REMARK   23  A    between atoms: CB_54  and  CG2_60
REMARK   24  A    between atoms: N_66  and  CA_68
REMARK   25  A    between atoms: CA_68  and  CB_70
REMARK   26  A    between atoms: CA_68  and  C_79
REMARK   27  A    between atoms: CB_70  and  CG_73
REMARK   28  A    between atoms: CG_73  and  CD_76
REMARK   29  A    between atoms: N_81  and  CA_83
REMARK   30  A    between atoms: CA_83  and  CB_85
REMARK   31  A    between atoms: CA_83  and  C_89
REMARK   32  A    between atoms: N_91  and  CA_93
REMARK   33  A    between atoms: CA_93  and  CB_95
REMARK   34  A    between atoms: CA_93  and  C_108
REMARK   35  A    between atoms: CB_95  and  CG_98
REMARK   36  A    between atoms: CG_98  and  CD1_100
REMARK   37  A    between atoms: CG_98  and  CD2_104
REMARK   38  A    between atoms: C_108  and  N_110
REMARK   39  A    between atoms: N_110  and  CA_112
REMARK   40  A    between atoms: CA_112  and  CB_114
REMARK   41  A    between atoms: CA_112  and  C_125
REMARK   42  A    between atoms: CB_114  and  CG_117
REMARK   43  A    between atoms: N_127  and  CA_129
REMARK   44  A    between atoms: CA_129  and  CB_131
REMARK   45  A    between atoms: CA_129  and  C_142
REMARK   46  A    between atoms: CB_131  and  CG_134
REMARK   47  A    between atoms: CG_134  and  CD_137
REMARK   48  A    between atoms: N_144  and  CA_146
REMARK   49  A    between atoms: CA_146  and  CB_148
REMARK   50  A    between atoms: CB_148  and  CG_151
REMARK   51  A    between atoms: N_158  and  CA_160
REMARK   52  A    between atoms: CA_160  and  CB_162
REMARK   53  A    between atoms: CA_160  and  C_180
REMARK   54  A    between atoms: CB_162  and  CG_165
REMARK   55  A    between atoms: CG_165  and  CD_168
REMARK   56  A    between atoms: CD_168  and  NE_171
REMARK   57  A    between atoms: N_182  and  CA_184
REMARK   58  A    between atoms: CA_184  and  CB_186
REMARK   59  A    between atoms: CA_184  and  C_195
REMARK   60  A    between atoms: CB_186  and  CG_189
REMARK   61  A    between atoms: CG_189  and  CD_192
REMARK   62  A    between atoms: N_197  and  CA_199
REMARK   63  A    between atoms: CA_199  and  CB_201
REMARK   64  A    between atoms: CB_201  and  CG_204
REMARK   65  A    between atoms: CG_204  and  SD_207
REMARK   66  A    between atoms: SD_207  and  CE_208
REMARK   67  A    between atoms: CA_215  and  C_217
REMARK   68  A    between atoms: CA_215  and  CB_219
REMARK   69  A    between atoms: CB_219  and  CG1_221
REMARK   70  A    between atoms: CB_219  and  CG2_224
REMARK   71  A    between atoms: CG1_221  and  CD1_228
REMARK   72  A    between atoms: N_233  and  CA_234
REMARK   73  A    between atoms: CA_234  and  C_236
REMARK   74  A    between atoms: CA_234  and  CB_238
REMARK   75  A    between atoms: CB_238  and  CG_241
REMARK   76  A    between atoms: CA_246  and  C_248
REMARK   77  A    between atoms: N_259  and  CA_260
REMARK   78  A    between atoms: CA_260  and  C_262
REMARK   79  A    between atoms: CA_260  and  CB_264
REMARK   80  A    between atoms: CB_264  and  CG_267
REMARK   81  A    between atoms: N_271  and  CA_272
REMARK   82  A    between atoms: CA_272  and  C_274
REMARK   83  A    between atoms: CA_272  and  CB_276
REMARK   84  A    between atoms: CB_276  and  CG_279
REMARK   85  A    between atoms: CG_279  and  CD_282
REMARK   86  A    between atoms: CD_282  and  CE_285
REMARK   87  A    between atoms: CE_285  and  NZ_288
REMARK   88  A    between atoms: N_293  and  CA_294
REMARK   89  A    between atoms: CA_294  and  C_296
REMARK   90  A    between atoms: CA_294  and  CB_298
REMARK   91  A    between atoms: CB_298  and  CG_301
REMARK   92  A    between atoms: N_313  and  CA_314
REMARK   93  A    between atoms: CA_314  and  C_316
REMARK   94  A    between atoms: CA_314  and  CB_318
REMARK   95  A    between atoms: CB_318  and  SG_321
REMARK   96  A    between atoms: N_324  and  CA_325
REMARK   97  A    between atoms: CA_325  and  C_327
REMARK   98  A    between atoms: CA_325  and  CB_329
REMARK   99  A    between atoms: CB_329  and  OG_332
REMARK  100  A    between atoms: N_335  and  CA_336
REMARK  101  A    between atoms: CA_336  and  C_338
REMARK  102  A    between atoms: CA_336  and  CB_340
REMARK  103  A    between atoms: CB_340  and  CG_343
REMARK  104  A    between atoms: CG_343  and  CD1_345
REMARK  105  A    between atoms: CG_343  and  CD2_349
REMARK  106  A    between atoms: N_354  and  CA_355
REMARK  107  A    between atoms: CA_355  and  C_357
REMARK  108  A    between atoms: CA_355  and  CB_359
REMARK  109  A    between atoms: CB_359  and  SG_362
REMARK  110  A    between atoms: N_365  and  CA_366
REMARK  111  A    between atoms: CA_366  and  C_368
REMARK  112  A    between atoms: CA_366  and  CB_370
REMARK  113  A    between atoms: CB_370  and  CG_373
REMARK  114  A    between atoms: N_383  and  CA_384
REMARK  115  A    between atoms: CA_384  and  C_386
REMARK  116  A    between atoms: CA_384  and  CB_388
REMARK  117  A    between atoms: N_393  and  CA_394
REMARK  118  A    between atoms: CA_394  and  C_396
REMARK  119  A    between atoms: CA_394  and  CB_398
REMARK  120  A    between atoms: CB_398  and  OG1_400
REMARK  121  A    between atoms: CB_398  and  CG2_401
REMARK  122  A    between atoms: N_407  and  CA_408
REMARK  123  A    between atoms: CA_408  and  C_410
REMARK  124  A    between atoms: CA_408  and  CB_412
REMARK  125  A    between atoms: CB_412  and  CG_415
REMARK  126  A    between atoms: N_427  and  CA_428
REMARK  127  A    between atoms: CA_428  and  C_430
REMARK  128  A    between atoms: CA_428  and  CB_432
REMARK  129  A    between atoms: CB_432  and  CG_435
REMARK  130  A    between atoms: N_441  and  CA_442
REMARK  131  A    between atoms: CA_442  and  C_444
REMARK  132  A    between atoms: CA_442  and  CB_446
REMARK  133  A    between atoms: CB_446  and  CG_449
REMARK  134  A    between atoms: CA_454  and  C_456
REMARK  135  A    between atoms: N_467  and  CA_468
REMARK  136  A    between atoms: CA_468  and  C_470
REMARK  137  A    between atoms: CA_468  and  CB_472
REMARK  138  A    between atoms: CB_472  and  CG1_474
REMARK  139  A    between atoms: CB_472  and  CG2_478
REMARK  140  A    between atoms: N_483  and  CA_484
REMARK  141  A    between atoms: CA_484  and  C_486
REMARK  142  A    between atoms: CA_484  and  CB_488
REMARK  143  A    between atoms: CB_488  and  CG_491
REMARK  144  A    between atoms: CG_491  and  SD_494
REMARK  145  A    between atoms: SD_494  and  CE_495
REMARK  146  A    between atoms: N_500  and  CA_501
REMARK  147  A    between atoms: CA_501  and  C_503
REMARK  148  A    between atoms: CA_501  and  CB_505
REMARK  149  A    between atoms: N_510  and  CA_511
REMARK  150  A    between atoms: CA_511  and  C_513
REMARK  151  A    between atoms: CA_511  and  CB_515
REMARK  152  A    between atoms: CB_515  and  CG_518
REMARK  153  A    between atoms: CG_518  and  CD_521
REMARK  154  A    between atoms: N_527  and  CA_528
REMARK  155  A    between atoms: CA_528  and  C_530
REMARK  156  A    between atoms: CA_528  and  CB_532
REMARK  157  A    between atoms: CB_532  and  CG_535
REMARK  158  A    between atoms: CG_535  and  CD_538
REMARK  159  A    between atoms: N_544  and  CA_545
REMARK  160  A    between atoms: CA_545  and  C_547
REMARK  161  A    between atoms: CA_545  and  CB_549
REMARK  162  A    between atoms: CB_549  and  CG_552
REMARK  163  A    between atoms: N_561  and  CA_562
REMARK  164  A    between atoms: CA_562  and  C_564
REMARK  165  A    between atoms: CA_562  and  CB_566
REMARK  166  A    between atoms: CB_566  and  CG_569
REMARK  167  A    between atoms: CZ_578  and  OH_579
REMARK  168  A    between atoms: N_582  and  CA_583
REMARK  169  A    between atoms: CA_583  and  C_585
REMARK  170  A    between atoms: CA_583  and  CB_587
REMARK  171  A    between atoms: CB_587  and  CG1_589
REMARK  172  A    between atoms: CB_587  and  CG2_593
REMARK  173  A    between atoms: N_598  and  CA_599
REMARK  174  A    between atoms: CA_599  and  C_602
REMARK  175  A    between atoms: N_605  and  CA_606
REMARK  176  A    between atoms: CA_606  and  C_608
REMARK  177  A    between atoms: CA_606  and  CB_610
REMARK  178  A    between atoms: CB_610  and  CG_613
REMARK  179  A    between atoms: CG_613  and  CD_616
REMARK  180  A    between atoms: CD_616  and  CE_619
REMARK  181  A    between atoms: CE_619  and  NZ_622
REMARK  182  A    between atoms: N_627  and  CA_628
REMARK  183  A    between atoms: CA_628  and  C_630
REMARK  184  A    between atoms: CA_628  and  CB_632
REMARK  185  A    between atoms: CB_632  and  CG_635
REMARK  186  A    between atoms: CG_635  and  CD_638
REMARK  187  A    between atoms: CD_638  and  CE_641
REMARK  188  A    between atoms: CE_641  and  NZ_644
REMARK  189  A    between atoms: N_649  and  CA_650
REMARK  190  A    between atoms: CA_650  and  C_652
REMARK  191  A    between atoms: CA_650  and  CB_654
REMARK  192  A    between atoms: CB_654  and  CG_657
REMARK  193  A    between atoms: N_666  and  CA_667
REMARK  194  A    between atoms: CA_667  and  C_669
REMARK  195  A    between atoms: CA_667  and  CB_671
REMARK  196  A    between atoms: CB_671  and  CG_674
REMARK  197  A    between atoms: CG_674  and  CD_677
REMARK  198  A    between atoms: CD_677  and  NE_680
REMARK  199  A    between atoms: N_690  and  CA_691
REMARK  200  A    between atoms: CA_691  and  C_693
REMARK  201  A    between atoms: CA_691  and  CB_695
REMARK  202  A    between atoms: CB_695  and  CG_698
REMARK  203  A    between atoms: CG_698  and  CD_701
REMARK  204  A    between atoms: CD_701  and  CE_704
REMARK  205  A    between atoms: CE_704  and  NZ_707
REMARK  206  A    between atoms: N_712  and  CA_713
REMARK  207  A    between atoms: CA_713  and  C_715
REMARK  208  A    between atoms: CA_713  and  CB_717
REMARK  209  A    between atoms: CB_717  and  CG_720
REMARK  210  A    between atoms: CG_720  and  CD_723
REMARK  211  A    between atoms: N_729  and  CA_730
REMARK  212  A    between atoms: CA_730  and  C_732
REMARK  213  A    between atoms: CA_730  and  CB_734
REMARK  214  A    between atoms: CB_734  and  CG_737
REMARK  215  A    between atoms: CG_737  and  CD_740
REMARK  216  A    between atoms: N_744  and  CA_745
REMARK  217  A    between atoms: CA_745  and  C_747
REMARK  218  A    between atoms: CA_745  and  CB_749
REMARK  219  A    between atoms: CB_749  and  OG1_751
REMARK  220  A    between atoms: CB_749  and  CG2_752
REMARK  221  A    between atoms: N_758  and  CA_759
REMARK  222  A    between atoms: CA_759  and  C_761
REMARK  223  A    between atoms: CA_759  and  CB_763
REMARK  224  A    between atoms: CB_763  and  CG_766
REMARK  225  A    between atoms: CG_766  and  CD_769
REMARK  226  A    between atoms: CD_769  and  CE_772
REMARK  227  A    between atoms: CE_772  and  NZ_775
REMARK  228  A    between atoms: N_780  and  CA_781
REMARK  229  A    between atoms: CA_781  and  C_783
REMARK  230  A    between atoms: CA_781  and  CB_785
REMARK  231  A    between atoms: CB_785  and  CG_788
REMARK  232  A    between atoms: CG_788  and  CD1_790
REMARK  233  A    between atoms: CG_788  and  CD2_794
REMARK  234  A    between atoms: N_799  and  CA_800
REMARK  235  A    between atoms: CA_800  and  C_802
REMARK  236  A    between atoms: CA_800  and  CB_804
REMARK  237  A    between atoms: CB_804  and  CG_807
REMARK  238  A    between atoms: CG_807  and  CD_810
REMARK  239  A    between atoms: CD_810  and  CE_813
REMARK  240  A    between atoms: CE_813  and  NZ_816
REMARK  241  A    between atoms: N_821  and  CA_822
REMARK  242  A    between atoms: CA_822  and  C_824
REMARK  243  A    between atoms: CA_822  and  CB_826
REMARK  244  A    between atoms: CB_826  and  CG_829
REMARK  245  A    between atoms: CG_829  and  CD1_831
REMARK  246  A    between atoms: CG_829  and  CD2_835
REMARK  247  A    between atoms: N_840  and  CA_841
REMARK  248  A    between atoms: CA_841  and  C_843
REMARK  249  A    between atoms: CA_841  and  CB_845
REMARK  250  A    between atoms: CB_845  and  CG_848
REMARK  251  A    between atoms: CG_848  and  SD_851
REMARK  252  A    between atoms: SD_851  and  CE_852
REMARK  253  A    between atoms: N_857  and  CA_858
REMARK  254  A    between atoms: CA_858  and  C_860
REMARK  255  A    between atoms: CA_858  and  CB_862
REMARK  256  A    between atoms: N_867  and  CA_868
REMARK  257  A    between atoms: CA_868  and  C_870
REMARK  258  A    between atoms: CA_868  and  CB_872
REMARK  259  A    between atoms: CB_872  and  CG_875
REMARK  260  A    between atoms: CG_875  and  CD_878
REMARK  261  A    between atoms: CD_878  and  NE_881
REMARK  262  A    between atoms: N_891  and  CA_892
REMARK  263  A    between atoms: CA_892  and  C_894
REMARK  264  A    between atoms: CA_892  and  CB_896
REMARK  265  A    between atoms: CB_896  and  CG_899
REMARK  266  A    between atoms: CZ_908  and  OH_909
REMARK  267  A    between atoms: N_912  and  CA_913
REMARK  268  A    between atoms: CA_913  and  C_916
REMARK  269  A    between atoms: N_919  and  CA_920
REMARK  270  A    between atoms: CA_920  and  CB_924
REMARK  271  A    between atoms: O_923  and  N_943
REMARK  272  A    between atoms: CB_924  and  CG_927
REMARK  273  A    between atoms: CG_927  and  CD_930
REMARK  274  A    between atoms: CD_930  and  NE_933
REMARK  275  A    between atoms: N_943  and  CA_945
REMARK  276  A    between atoms: CA_945  and  CB_947
REMARK  277  A    between atoms: CA_945  and  C_960
REMARK  278  A    between atoms: CB_947  and  CG_950
REMARK  279  A    between atoms: CG_950  and  CD1_952
REMARK  280  A    between atoms: CG_950  and  CD2_956
REMARK  281  A    between atoms: N_962  and  CA_964
REMARK  282  A    between atoms: CA_964  and  CB_966
REMARK  283  A    between atoms: CA_964  and  C_970
REMARK  284  A    between atoms: N_972  and  CA_974
REMARK  285  A    between atoms: CA_974  and  CB_976
REMARK  286  A    between atoms: CA_974  and  C_982
REMARK  287  A    between atoms: CB_976  and  CG_979
REMARK  288  A    between atoms: O5'_985  and  C5'_986
REMARK  289  A    between atoms: C5'_986  and  C4'_987
REMARK  290  A    between atoms: C3'_989  and  O3'_990
REMARK  291  A    between atoms: O3'_990  and  P_1017
REMARK  292  A    between atoms: C2'_991  and  O2'_992
REMARK  293  A    between atoms: C1'_993  and  N9_994
REMARK  294  A    between atoms: P_1017  and  O5'_1020
REMARK  295  A    between atoms: O5'_1020  and  C5'_1021
REMARK  296  A    between atoms: C5'_1021  and  C4'_1022
REMARK  297  A    between atoms: C3'_1024  and  O3'_1025
REMARK  298  A    between atoms: O3'_1025  and  P_1048
REMARK  299  A    between atoms: C2'_1026  and  O2'_1027
REMARK  300  A    between atoms: C1'_1028  and  N1_1029
REMARK  301  A    between atoms: P_1048  and  O5'_1051
REMARK  302  A    between atoms: O5'_1051  and  C5'_1052
REMARK  303  A    between atoms: C5'_1052  and  C4'_1053
REMARK  304  A    between atoms: C3'_1055  and  O3'_1056
REMARK  305  A    between atoms: O3'_1056  and  P_1079
REMARK  306  A    between atoms: C2'_1057  and  O2'_1058
REMARK  307  A    between atoms: C1'_1059  and  N1_1060
REMARK  308  A    between atoms: P_1079  and  O5'_1082
REMARK  309  A    between atoms: O5'_1082  and  C5'_1083
REMARK  310  A    between atoms: C5'_1083  and  C4'_1084
REMARK  311  A    between atoms: C3'_1086  and  O3'_1087
REMARK  312  A    between atoms: O3'_1087  and  P_1113
REMARK  313  A    between atoms: C2'_1088  and  O2'_1089
REMARK  314  A    between atoms: C1'_1090  and  N9_1091
REMARK  315  A    between atoms: P_1113  and  O5'_1116
REMARK  316  A    between atoms: O5'_1116  and  C5'_1117
REMARK  317  A    between atoms: C5'_1117  and  C4'_1118
REMARK  318  A    between atoms: C3'_1120  and  O3'_1121
REMARK  319  A    between atoms: O3'_1121  and  P_1143
REMARK  320  A    between atoms: C2'_1122  and  O2'_1123
REMARK  321  A    between atoms: C1'_1124  and  N1_1125
REMARK  322  A    between atoms: P_1143  and  O5'_1146
REMARK  323  A    between atoms: O5'_1146  and  C5'_1147
REMARK  324  A    between atoms: C5'_1147  and  C4'_1148
REMARK  325  A    between atoms: C3'_1150  and  O3'_1151
REMARK  326  A    between atoms: O3'_1151  and  P_1177
REMARK  327  A    between atoms: C2'_1152  and  O2'_1153
REMARK  328  A    between atoms: C1'_1154  and  N9_1155
REMARK  329  A    between atoms: P_1177  and  O5'_1180
REMARK  330  A    between atoms: O5'_1180  and  C5'_1181
REMARK  331  A    between atoms: C5'_1181  and  C4'_1182
REMARK  332  A    between atoms: C3'_1184  and  O3'_1185
REMARK  333  A    between atoms: O3'_1185  and  P_1211
REMARK  334  A    between atoms: C2'_1186  and  O2'_1187
REMARK  335  A    between atoms: C1'_1188  and  N9_1189
REMARK  336  A    between atoms: P_1211  and  O5'_1214
REMARK  337  A    between atoms: O5'_1214  and  C5'_1215
REMARK  338  A    between atoms: C5'_1215  and  C4'_1216
REMARK  339  A    between atoms: C3'_1218  and  O3'_1219
REMARK  340  A    between atoms: O3'_1219  and  P_1241
REMARK  341  A    between atoms: C2'_1220  and  O2'_1221
REMARK  342  A    between atoms: C1'_1222  and  N1_1223
REMARK  343  A    between atoms: P_1241  and  O5'_1244
REMARK  344  A    between atoms: O5'_1244  and  C5'_1245
REMARK  345  A    between atoms: C5'_1245  and  C4'_1246
REMARK  346  A    between atoms: C3'_1248  and  O3'_1249
REMARK  347  A    between atoms: O3'_1249  and  P_1272
REMARK  348  A    between atoms: C2'_1250  and  O2'_1251
REMARK  349  A    between atoms: C1'_1252  and  N1_1253
REMARK  350  A    between atoms: P_1272  and  O5'_1275
REMARK  351  A    between atoms: O5'_1275  and  C5'_1276
REMARK  352  A    between atoms: C5'_1276  and  C4'_1277
REMARK  353  A    between atoms: C3'_1279  and  O3'_1280
REMARK  354  A    between atoms: O3'_1280  and  P_1302
REMARK  355  A    between atoms: C2'_1281  and  O2'_1282
REMARK  356  A    between atoms: C1'_1283  and  N1_1284
REMARK  357  A    between atoms: P_1302  and  O5'_1305
REMARK  358  A    between atoms: O5'_1305  and  C5'_1306
REMARK  359  A    between atoms: C5'_1306  and  C4'_1307
REMARK  360  A    between atoms: C3'_1309  and  O3'_1310
REMARK  361  A    between atoms: O3'_1310  and  P_1336
REMARK  362  A    between atoms: C2'_1311  and  O2'_1312
REMARK  363  A    between atoms: C1'_1313  and  N9_1314
REMARK  364  A    between atoms: P_1336  and  O5'_1339
REMARK  365  A    between atoms: O5'_1339  and  C5'_1340
REMARK  366  A    between atoms: C5'_1340  and  C4'_1341
REMARK  367  A    between atoms: C3'_1343  and  O3'_1344
REMARK  368  A    between atoms: O3'_1344  and  P_1370
REMARK  369  A    between atoms: C2'_1345  and  O2'_1346
REMARK  370  A    between atoms: C1'_1347  and  N9_1348
REMARK  371  A    between atoms: P_1370  and  O5'_1373
REMARK  372  A    between atoms: O5'_1373  and  C5'_1374
REMARK  373  A    between atoms: C5'_1374  and  C4'_1375
REMARK  374  A    between atoms: C3'_1377  and  O3'_1378
REMARK  375  A    between atoms: O3'_1378  and  P_1400
REMARK  376  A    between atoms: C2'_1379  and  O2'_1380
REMARK  377  A    between atoms: C1'_1381  and  N1_1382
REMARK  378  A    between atoms: P_1400  and  O5'_1403
REMARK  379  A    between atoms: O5'_1403  and  C5'_1404
REMARK  380  A    between atoms: C5'_1404  and  C4'_1405
REMARK  381  A    between atoms: C3'_1407  and  O3'_1408
REMARK  382  A    between atoms: O3'_1408  and  P_1434
REMARK  383  A    between atoms: C2'_1409  and  O2'_1410
REMARK  384  A    between atoms: C1'_1411  and  N9_1412
REMARK  385  A    between atoms: P_1434  and  O5'_1437
REMARK  386  A    between atoms: O5'_1437  and  C5'_1438
REMARK  387  A    between atoms: C5'_1438  and  C4'_1439
REMARK  388  A    between atoms: C3'_1441  and  O3'_1442
REMARK  389  A    between atoms: O3'_1442  and  P_1468
REMARK  390  A    between atoms: C2'_1443  and  O2'_1444
REMARK  391  A    between atoms: C1'_1445  and  N9_1446
REMARK  392  A    between atoms: P_1468  and  O5'_1471
REMARK  393  A    between atoms: O5'_1471  and  C5'_1472
REMARK  394  A    between atoms: C5'_1472  and  C4'_1473
REMARK  395  A    between atoms: C3'_1475  and  O3'_1476
REMARK  396  A    between atoms: O3'_1476  and  P_1499
REMARK  397  A    between atoms: C2'_1477  and  O2'_1478
REMARK  398  A    between atoms: C1'_1479  and  N1_1480
REMARK  399  A    between atoms: P_1499  and  O5'_1502
REMARK  400  A    between atoms: O5'_1502  and  C5'_1503
REMARK  401  A    between atoms: C5'_1503  and  C4'_1504
REMARK  402  A    between atoms: C3'_1506  and  O3'_1507
REMARK  403  A    between atoms: O3'_1507  and  P_1530
REMARK  404  A    between atoms: C2'_1508  and  O2'_1509
REMARK  405  A    between atoms: C1'_1510  and  N1_1511
REMARK  406  A    between atoms: P_1530  and  O5'_1533
REMARK  407  A    between atoms: O5'_1533  and  C5'_1534
REMARK  408  A    between atoms: C5'_1534  and  C4'_1535
REMARK  409  A    between atoms: C3'_1537  and  O3'_1538
REMARK  410  A    between atoms: O3'_1538  and  P_1564
REMARK  411  A    between atoms: C2'_1539  and  O2'_1540
REMARK  412  A    between atoms: C1'_1541  and  N9_1542
REMARK  413  A    between atoms: P_1564  and  O5'_1567
REMARK  414  A    between atoms: O5'_1567  and  C5'_1568
REMARK  415  A    between atoms: C5'_1568  and  C4'_1569
REMARK  416  A    between atoms: C3'_1571  and  O3'_1572
REMARK  417  A    between atoms: C2'_1574  and  O2'_1575
REMARK  418  A    between atoms: C1'_1576  and  N9_1577
REMARK  419  A    between atoms: O5'_1602  and  C5'_1604
REMARK  420  A    between atoms: C5'_1604  and  C4'_1605
REMARK  421  A    between atoms: C3'_1607  and  O3'_1608
REMARK  422  A    between atoms: O3'_1608  and  P_1631
REMARK  423  A    between atoms: C2'_1609  and  O2'_1610
REMARK  424  A    between atoms: C1'_1611  and  N1_1612
REMARK  425  A    between atoms: P_1631  and  O5'_1634
REMARK  426  A    between atoms: O5'_1634  and  C5'_1635
REMARK  427  A    between atoms: C5'_1635  and  C4'_1636
REMARK  428  A    between atoms: C3'_1638  and  O3'_1639
REMARK  429  A    between atoms: O3'_1639  and  P_1662
REMARK  430  A    between atoms: C2'_1640  and  O2'_1641
REMARK  431  A    between atoms: C1'_1642  and  N1_1643
REMARK  432  A    between atoms: P_1662  and  O5'_1665
REMARK  433  A    between atoms: O5'_1665  and  C5'_1666
REMARK  434  A    between atoms: C5'_1666  and  C4'_1667
REMARK  435  A    between atoms: C3'_1669  and  O3'_1670
REMARK  436  A    between atoms: O3'_1670  and  P_1696
REMARK  437  A    between atoms: C2'_1671  and  O2'_1672
REMARK  438  A    between atoms: C1'_1673  and  N9_1674
REMARK  439  A    between atoms: P_1696  and  O5'_1699
REMARK  440  A    between atoms: O5'_1699  and  C5'_1700
REMARK  441  A    between atoms: C5'_1700  and  C4'_1701
REMARK  442  A    between atoms: C3'_1703  and  O3'_1704
REMARK  443  A    between atoms: O3'_1704  and  P_1730
REMARK  444  A    between atoms: C2'_1705  and  O2'_1706
REMARK  445  A    between atoms: C1'_1707  and  N9_1708
REMARK  446  A    between atoms: P_1730  and  O5'_1733
REMARK  447  A    between atoms: O5'_1733  and  C5'_1734
REMARK  448  A    between atoms: C5'_1734  and  C4'_1735
REMARK  449  A    between atoms: C3'_1737  and  O3'_1738
REMARK  450  A    between atoms: O3'_1738  and  P_1761
REMARK  451  A    between atoms: C2'_1739  and  O2'_1740
REMARK  452  A    between atoms: C1'_1741  and  N1_1742
REMARK  453  A    between atoms: P_1761  and  O5'_1764
REMARK  454  A    between atoms: O5'_1764  and  C5'_1765
REMARK  455  A    between atoms: C5'_1765  and  C4'_1766
REMARK  456  A    between atoms: C3'_1768  and  O3'_1769
REMARK  457  A    between atoms: O3'_1769  and  P_1792
REMARK  458  A    between atoms: C2'_1770  and  O2'_1771
REMARK  459  A    between atoms: C1'_1772  and  N1_1773
REMARK  460  A    between atoms: P_1792  and  O5'_1795
REMARK  461  A    between atoms: O5'_1795  and  C5'_1796
REMARK  462  A    between atoms: C5'_1796  and  C4'_1797
REMARK  463  A    between atoms: C3'_1799  and  O3'_1800
REMARK  464  A    between atoms: O3'_1800  and  P_1825
REMARK  465  A    between atoms: C2'_1801  and  O2'_1802
REMARK  466  A    between atoms: C1'_1803  and  N9_1804
REMARK  467  A    between atoms: C6_1808  and  N6_1809
REMARK  468  A    between atoms: P_1825  and  O5'_1828
REMARK  469  A    between atoms: O5'_1828  and  C5'_1829
REMARK  470  A    between atoms: C5'_1829  and  C4'_1830
REMARK  471  A    between atoms: C3'_1832  and  O3'_1833
REMARK  472  A    between atoms: O3'_1833  and  P_1856
REMARK  473  A    between atoms: C2'_1834  and  O2'_1835
REMARK  474  A    between atoms: C1'_1836  and  N1_1837
REMARK  475  A    between atoms: P_1856  and  O5'_1859
REMARK  476  A    between atoms: O5'_1859  and  C5'_1860
REMARK  477  A    between atoms: C5'_1860  and  C4'_1861
REMARK  478  A    between atoms: C3'_1863  and  O3'_1864
REMARK  479  A    between atoms: O3'_1864  and  P_1887
REMARK  480  A    between atoms: C2'_1865  and  O2'_1866
REMARK  481  A    between atoms: C1'_1867  and  N1_1868
REMARK  482  A    between atoms: P_1887  and  O5'_1890
REMARK  483  A    between atoms: O5'_1890  and  C5'_1891
REMARK  484  A    between atoms: C5'_1891  and  C4'_1892
REMARK  485  A    between atoms: C3'_1894  and  O3'_1895
REMARK  486  A    between atoms: O3'_1895  and  P_1920
REMARK  487  A    between atoms: C2'_1896  and  O2'_1897
REMARK  488  A    between atoms: C1'_1898  and  N9_1899
REMARK  489  A    between atoms: C6_1903  and  N6_1904
REMARK  490  A    between atoms: P_1920  and  O5'_1923
REMARK  491  A    between atoms: O5'_1923  and  C5'_1924
REMARK  492  A    between atoms: C5'_1924  and  C4'_1925
REMARK  493  A    between atoms: C3'_1927  and  O3'_1928
REMARK  494  A    between atoms: O3'_1928  and  P_1954
REMARK  495  A    between atoms: C2'_1929  and  O2'_1930
REMARK  496  A    between atoms: C1'_1931  and  N9_1932
REMARK  497  A    between atoms: P_1954  and  O5'_1957
REMARK  498  A    between atoms: O5'_1957  and  C5'_1958
REMARK  499  A    between atoms: C5'_1958  and  C4'_1959
REMARK  500  A    between atoms: C3'_1961  and  O3'_1962
REMARK  501  A    between atoms: O3'_1962  and  P_1987
REMARK  502  A    between atoms: C2'_1963  and  O2'_1964
REMARK  503  A    between atoms: C1'_1965  and  N9_1966
REMARK  504  A    between atoms: C6_1970  and  N6_1971
REMARK  505  A    between atoms: P_1987  and  O5'_1990
REMARK  506  A    between atoms: O5'_1990  and  C5'_1991
REMARK  507  A    between atoms: C5'_1991  and  C4'_1992
REMARK  508  A    between atoms: C3'_1994  and  O3'_1995
REMARK  509  A    between atoms: O3'_1995  and  P_2018
REMARK  510  A    between atoms: C2'_1996  and  O2'_1997
REMARK  511  A    between atoms: C1'_1998  and  N1_1999
REMARK  512  A    between atoms: P_2018  and  O5'_2021
REMARK  513  A    between atoms: O5'_2021  and  C5'_2022
REMARK  514  A    between atoms: C5'_2022  and  C4'_2023
REMARK  515  A    between atoms: C3'_2025  and  O3'_2026
REMARK  516  A    between atoms: O3'_2026  and  P_2049
REMARK  517  A    between atoms: C2'_2027  and  O2'_2028
REMARK  518  A    between atoms: C1'_2029  and  N1_2030
REMARK  519  A    between atoms: P_2049  and  O5'_2052
REMARK  520  A    between atoms: O5'_2052  and  C5'_2053
REMARK  521  A    between atoms: C5'_2053  and  C4'_2054
REMARK  522  A    between atoms: C3'_2056  and  O3'_2057
REMARK  523  A    between atoms: O3'_2057  and  P_2082
REMARK  524  A    between atoms: C2'_2058  and  O2'_2059
REMARK  525  A    between atoms: C1'_2060  and  N9_2061
REMARK  526  A    between atoms: C6_2065  and  N6_2066
REMARK  527  A    between atoms: P_2082  and  O5'_2085
REMARK  528  A    between atoms: O5'_2085  and  C5'_2086
REMARK  529  A    between atoms: C5'_2086  and  C4'_2087
REMARK  530  A    between atoms: C3'_2089  and  O3'_2090
REMARK  531  A    between atoms: O3'_2090  and  P_2113
REMARK  532  A    between atoms: C2'_2091  and  O2'_2092
REMARK  533  A    between atoms: C1'_2093  and  N1_2094
REMARK  534  A    between atoms: P_2113  and  O5'_2116
REMARK  535  A    between atoms: O5'_2116  and  C5'_2117
REMARK  536  A    between atoms: C5'_2117  and  C4'_2118
REMARK  537  A    between atoms: C3'_2120  and  O3'_2121
REMARK  538  A    between atoms: O3'_2121  and  P_2147
REMARK  539  A    between atoms: C2'_2122  and  O2'_2123
REMARK  540  A    between atoms: C1'_2124  and  N9_2125
REMARK  541  A    between atoms: P_2147  and  O5'_2150
REMARK  542  A    between atoms: O5'_2150  and  C5'_2151
REMARK  543  A    between atoms: C5'_2151  and  C4'_2152
REMARK  544  A    between atoms: C3'_2154  and  O3'_2155
REMARK  545  A    between atoms: O3'_2155  and  P_2181
REMARK  546  A    between atoms: C2'_2156  and  O2'_2157
REMARK  547  A    between atoms: C1'_2158  and  N9_2159
REMARK  548  A    between atoms: P_2181  and  O5'_2184
REMARK  549  A    between atoms: O5'_2184  and  C5'_2185
REMARK  550  A    between atoms: C5'_2185  and  C4'_2186
REMARK  551  A    between atoms: C3'_2188  and  O3'_2189
REMARK  552  A    between atoms: C2'_2190  and  O2'_2191
REMARK  553  A    between atoms: C1'_2192  and  N1_2193
REMARK                            x       y       z     vdW  Elec       q    Type
REMARK                         _______ _______ _______ _____ _____    ______ ____
ROOT
ATOM      1  C4' A   C  10      -4.176  10.887   7.402  0.00  0.00    +0.000 C 
ATOM      2  O4' A   C  10      -2.769  10.624   7.140  0.00  0.00    +0.000 OA
ATOM      3  C3' A   C  10      -4.729  11.304   6.048  0.00  0.00    +0.000 C 
ATOM      4  C2' A   C  10      -3.571  12.089   5.450  0.00  0.00    +0.000 C 
ATOM      5  C1' A   C  10      -2.376  11.280   5.947  0.00  0.00    +0.000 C 
ENDROOT
BRANCH   5   6
ATOM      6  N9  A   C  10      -1.915  10.280   4.988  0.00  0.00    +0.000 N 
ATOM      7  C8  A   C  10      -2.089   8.920   5.018  0.00  0.00    +0.000 A 
ATOM      8  N7  A   C  10      -1.534   8.293   4.006  0.00  0.00    +0.000 NA
ATOM      9  C5  A   C  10      -0.966   9.313   3.256  0.00  0.00    +0.000 A 
ATOM     10  C6  A   C  10      -0.231   9.311   2.056  0.00  0.00    +0.000 C 
ATOM     11  N1  A   C  10       0.188  10.502   1.575  0.00  0.00    +0.000 NA
ATOM     12  C2  A   C  10      -0.110  11.613   2.261  0.00  0.00    +0.000 C 
ATOM     13  N3  A   C  10      -0.790  11.743   3.400  0.00  0.00    +0.000 NA
ATOM     14  C4  A   C  10      -1.194  10.541   3.848  0.00  0.00    +0.000 A 
BRANCH  10  15
ATOM     15  N6  A   C  10       0.072   8.204   1.374  0.00  0.00    +0.000 NA
ATOM     16  H61 A   C  10       0.599   8.253   0.511  0.00  0.00    +0.000 HD
ATOM     17  H62 A   C  10      -0.237   7.311   1.727  0.00  0.00    +0.000 HD
ENDBRANCH  10  15
ENDBRANCH   5   6
BRANCH   4  18
ATOM     18  O2' A   C  10      -3.488  13.385   6.012  0.00  0.00    +0.000 OA
ATOM     19 HO2' A   C  10      -2.980  13.296   6.830  0.00  0.00    +0.000 HD
ENDBRANCH   4  18
BRANCH   3  20
ATOM     20  O3' A   C  10      -5.902  12.095   6.170  0.00  0.00    +0.000 OA
BRANCH  20  21
ATOM     21  P   G   C  11      -7.047  11.983   5.054  0.00  0.00    +0.000 P 
ATOM     22  OP1 G   C  11      -8.255  12.657   5.592  0.00  0.00    +0.000 OA
ATOM     23  OP2 G   C  11      -7.132  10.568   4.629  0.00  0.00    +0.000 OA
BRANCH  21  24
ATOM     24  O5' G   C  11      -6.491  12.849   3.840  0.00  0.00    +0.000 OA
BRANCH  24  25
ATOM     25  C5' G   C  11      -6.721  14.254   3.787  0.00  0.00    +0.000 C 
BRANCH  25  26
ATOM     26  C4' G   C  11      -6.121  14.837   2.529  0.00  0.00    +0.000 C 
ATOM     27  O4' G   C  11      -4.758  14.347   2.396  0.00  0.00    +0.000 OA
ATOM     28  C3' G   C  11      -6.785  14.424   1.226  0.00  0.00    +0.000 C 
ATOM     29  C2' G   C  11      -5.660  14.598   0.214  0.00  0.00    +0.000 C 
ATOM     30  C1' G   C  11      -4.452  14.140   1.028  0.00  0.00    +0.000 C 
BRANCH  30  31
ATOM     31  N9  G   C  11      -4.101  12.738   0.841  0.00  0.00    +0.000 N 
ATOM     32  C8  G   C  11      -4.333  11.699   1.708  0.00  0.00    +0.000 A 
ATOM     33  N7  G   C  11      -3.880  10.554   1.275  0.00  0.00    +0.000 NA
ATOM     34  C5  G   C  11      -3.319  10.854   0.040  0.00  0.00    +0.000 A 
ATOM     35  C6  G   C  11      -2.672  10.014  -0.909  0.00  0.00    +0.000 A 
ATOM     36  O6  G   C  11      -2.451   8.795  -0.843  0.00  0.00    +0.000 OA
ATOM     37  N1  G   C  11      -2.262  10.730  -2.028  0.00  0.00    +0.000 N 
ATOM     38  C2  G   C  11      -2.448  12.079  -2.215  0.00  0.00    +0.000 A 
ATOM     39  N2  G   C  11      -1.990  12.590  -3.364  0.00  0.00    +0.000 N 
ATOM     40  N3  G   C  11      -3.044  12.872  -1.340  0.00  0.00    +0.000 NA
ATOM     41  C4  G   C  11      -3.453  12.198  -0.245  0.00  0.00    +0.000 A 
ATOM     42  H1  G   C  11      -1.793  10.195  -2.750  0.00  0.00    +0.000 HD
ATOM     43  H21 G   C  11      -2.105  13.576  -3.550  0.00  0.00    +0.000 HD
ATOM     44  H22 G   C  11      -1.542  11.992  -4.047  0.00  0.00    +0.000 HD
ENDBRANCH  30  31
BRANCH  29  45
ATOM     45  O2' G   C  11      -5.478  15.961  -0.123  0.00  0.00    +0.000 OA
ATOM     46 HO2' G   C  11      -5.080  16.386   0.641  0.00  0.00    +0.000 HD
ENDBRANCH  29  45
BRANCH  28  47
ATOM     47  O3' G   C  11      -7.903  15.250   0.932  0.00  0.00    +0.000 OA
BRANCH  47  48
ATOM     48  P   A   C  12      -9.191  14.616   0.221  0.00  0.00    +0.000 P 
ATOM     49  OP1 A   C  12     -10.356  15.455   0.584  0.00  0.00    +0.000 OA
ATOM     50  OP2 A   C  12      -9.225  13.160   0.485  0.00  0.00    +0.000 OA
BRANCH  48  51
ATOM     51  O5' A   C  12      -8.910  14.828  -1.329  0.00  0.00    +0.000 OA
BRANCH  51  52
ATOM     52  C5' A   C  12      -8.191  15.967  -1.786  0.00  0.00    +0.000 C 
BRANCH  52  53
ATOM     53  C4' A   C  12      -7.721  15.742  -3.200  0.00  0.00    +0.000 C 
ATOM     54  O4' A   C  12      -6.415  15.109  -3.154  0.00  0.00    +0.000 OA
ATOM     55  C3' A   C  12      -8.563  14.785  -4.022  0.00  0.00    +0.000 C 
ATOM     56  C2' A   C  12      -7.568  14.280  -5.058  0.00  0.00    +0.000 C 
ATOM     57  C1' A   C  12      -6.292  14.189  -4.225  0.00  0.00    +0.000 C 
BRANCH  57  58
ATOM     58  N9  A   C  12      -6.054  12.862  -3.661  0.00  0.00    +0.000 N 
ATOM     59  C8  A   C  12      -6.326  12.439  -2.385  0.00  0.00    +0.000 A 
ATOM     60  N7  A   C  12      -5.988  11.193  -2.158  0.00  0.00    +0.000 NA
ATOM     61  C5  A   C  12      -5.459  10.765  -3.367  0.00  0.00    +0.000 A 
ATOM     62  C6  A   C  12      -4.920   9.532  -3.779  0.00  0.00    +0.000 C 
ATOM     63  N1  A   C  12      -4.491   9.427  -5.056  0.00  0.00    +0.000 NA
ATOM     64  C2  A   C  12      -4.596  10.499  -5.855  0.00  0.00    +0.000 C 
ATOM     65  N3  A   C  12      -5.078  11.715  -5.579  0.00  0.00    +0.000 NA
ATOM     66  C4  A   C  12      -5.499  11.780  -4.304  0.00  0.00    +0.000 A 
BRANCH  62  67
ATOM     67  N6  A   C  12      -4.804   8.477  -2.976  0.00  0.00    +0.000 NA
ATOM     68  H61 A   C  12      -4.419   7.599  -3.310  0.00  0.00    +0.000 HD
ATOM     69  H62 A   C  12      -5.118   8.556  -2.020  0.00  0.00    +0.000 HD
ENDBRANCH  62  67
ENDBRANCH  57  58
BRANCH  56  70
ATOM     70  O2' A   C  12      -7.371  15.234  -6.085  0.00  0.00    +0.000 OA
ATOM     71 HO2' A   C  12      -6.656  15.820  -5.793  0.00  0.00    +0.000 HD
ENDBRANCH  56  70
BRANCH  55  72
ATOM     72  O3' A   C  12      -9.680  15.435  -4.610  0.00  0.00    +0.000 OA
BRANCH  72  73
ATOM     73  P   C   C  13     -11.082  14.666  -4.690  0.00  0.00    +0.000 P 
ATOM     74  OP1 C   C  13     -12.125  15.669  -4.998  0.00  0.00    +0.000 OA
ATOM     75  OP2 C   C  13     -11.212  13.822  -3.477  0.00  0.00    +0.000 OA
BRANCH  73  76
ATOM     76  O5' C   C  13     -10.909  13.712  -5.948  0.00  0.00    +0.000 OA
BRANCH  76  77
ATOM     77  C5' C   C  13     -10.292  14.196  -7.134  0.00  0.00    +0.000 C 
BRANCH  77  78
ATOM     78  C4' C   C  13     -10.076  13.069  -8.111  0.00  0.00    +0.000 C 
ATOM     79  O4' C   C  13      -8.807  12.432  -7.799  0.00  0.00    +0.000 OA
ATOM     80  C3' C   C  13     -11.082  11.930  -8.049  0.00  0.00    +0.000 C 
ATOM     81  C2' C   C  13     -10.289  10.763  -8.617  0.00  0.00    +0.000 C 
ATOM     82  C1' C   C  13      -8.905  11.038  -8.035  0.00  0.00    +0.000 C 
BRANCH  82  83
ATOM     83  N1  C   C  13      -8.683  10.326  -6.770  0.00  0.00    +0.000 N 
ATOM     84  C2  C   C  13      -8.407   8.963  -6.817  0.00  0.00    +0.000 A 
ATOM     85  O2  C   C  13      -8.372   8.402  -7.920  0.00  0.00    +0.000 OA
ATOM     86  N3  C   C  13      -8.192   8.287  -5.663  0.00  0.00    +0.000 NA
ATOM     87  C4  C   C  13      -8.250   8.930  -4.494  0.00  0.00    +0.000 A 
ATOM     88  N4  C   C  13      -8.027   8.225  -3.382  0.00  0.00    +0.000 N 
ATOM     89  C5  C   C  13      -8.539  10.324  -4.415  0.00  0.00    +0.000 A 
ATOM     90  C6  C   C  13      -8.748  10.977  -5.569  0.00  0.00    +0.000 A 
ATOM     91  H41 C   C  13      -7.822   7.235  -3.450  0.00  0.00    +0.000 HD
ATOM     92  H42 C   C  13      -8.059   8.671  -2.477  0.00  0.00    +0.000 HD
ENDBRANCH  82  83
BRANCH  81  93
ATOM     93  O2' C   C  13     -10.193  10.847 -10.028  0.00  0.00    +0.000 OA
ATOM     94 HO2' C   C  13      -9.440  11.414 -10.211  0.00  0.00    +0.000 HD
ENDBRANCH  81  93
BRANCH  80  95
ATOM     95  O3' C   C  13     -12.266  12.202  -8.778  0.00  0.00    +0.000 OA
BRANCH  95  96
ATOM     96  P   C   C  14     -13.676  11.731  -8.177  0.00  0.00    +0.000 P 
ATOM     97  OP1 C   C  14     -14.710  12.612  -8.759  0.00  0.00    +0.000 OA
ATOM     98  OP2 C   C  14     -13.550  11.624  -6.701  0.00  0.00    +0.000 OA
BRANCH  96  99
ATOM     99  O5' C   C  14     -13.869  10.269  -8.772  0.00  0.00    +0.000 OA
BRANCH  99 100
ATOM    100  C5' C   C  14     -13.876  10.062 -10.178  0.00  0.00    +0.000 C 
BRANCH 100 101
ATOM    101  C4' C   C  14     -13.420   8.662 -10.505  0.00  0.00    +0.000 C 
ATOM    102  O4' C   C  14     -12.145   8.423  -9.843  0.00  0.00    +0.000 OA
ATOM    103  C3' C   C  14     -14.316   7.556  -9.974  0.00  0.00    +0.000 C 
ATOM    104  C2' C   C  14     -13.357   6.379  -9.874  0.00  0.00    +0.000 C 
ATOM    105  C1' C   C  14     -12.074   7.072  -9.418  0.00  0.00    +0.000 C 
BRANCH 105 106
ATOM    106  N1  C   C  14     -11.862   7.033  -7.963  0.00  0.00    +0.000 N 
ATOM    107  C2  C   C  14     -11.418   5.842  -7.392  0.00  0.00    +0.000 A 
ATOM    108  O2  C   C  14     -11.229   4.862  -8.129  0.00  0.00    +0.000 OA
ATOM    109  N3  C   C  14     -11.205   5.783  -6.056  0.00  0.00    +0.000 NA
ATOM    110  C4  C   C  14     -11.421   6.861  -5.299  0.00  0.00    +0.000 A 
ATOM    111  N4  C   C  14     -11.189   6.758  -3.987  0.00  0.00    +0.000 N 
ATOM    112  C5  C   C  14     -11.881   8.093  -5.857  0.00  0.00    +0.000 A 
ATOM    113  C6  C   C  14     -12.089   8.131  -7.182  0.00  0.00    +0.000 A 
ATOM    114  H41 C   C  14     -10.851   5.885  -3.602  0.00  0.00    +0.000 HD
ATOM    115  H42 C   C  14     -11.337   7.549  -3.374  0.00  0.00    +0.000 HD
ENDBRANCH 105 106
BRANCH 104 116
ATOM    116  O2' C   C  14     -13.134   5.807 -11.146  0.00  0.00    +0.000 OA
ATOM    117 HO2' C   C  14     -12.405   6.307 -11.542  0.00  0.00    +0.000 HD
ENDBRANCH 104 116
BRANCH 103 118
ATOM    118  O3' C   C  14     -15.402   7.290 -10.850  0.00  0.00    +0.000 OA
BRANCH 118 119
ATOM    119  P   A   C  15     -16.731   6.608 -10.273  0.00  0.00    +0.000 P 
ATOM    120  OP1 A   C  15     -17.777   6.727 -11.311  0.00  0.00    +0.000 OA
ATOM    121  OP2 A   C  15     -16.975   7.161  -8.919  0.00  0.00    +0.000 OA
BRANCH 119 122
ATOM    122  O5' A   C  15     -16.341   5.072 -10.128  0.00  0.00    +0.000 OA
BRANCH 122 123
ATOM    123  C5' A   C  15     -16.423   4.189 -11.242  0.00  0.00    +0.000 C 
BRANCH 123 124
ATOM    124  C4' A   C  15     -16.394   2.757 -10.768  0.00  0.00    +0.000 C 
ATOM    125  O4' A   C  15     -15.108   2.511 -10.140  0.00  0.00    +0.000 OA
ATOM    126  C3' A   C  15     -17.409   2.384  -9.700  0.00  0.00    +0.000 C 
ATOM    127  C2' A   C  15     -16.739   1.199  -9.018  0.00  0.00    +0.000 C 
ATOM    128  C1' A   C  15     -15.274   1.632  -9.042  0.00  0.00    +0.000 C 
BRANCH 128 129
ATOM    129  N9  A   C  15     -14.868   2.346  -7.834  0.00  0.00    +0.000 N 
ATOM    130  C8  A   C  15     -14.609   3.689  -7.731  0.00  0.00    +0.000 A 
ATOM    131  N7  A   C  15     -14.250   4.068  -6.529  0.00  0.00    +0.000 NA
ATOM    132  C5  A   C  15     -14.280   2.896  -5.789  0.00  0.00    +0.000 A 
ATOM    133  C6  A   C  15     -13.999   2.633  -4.443  0.00  0.00    +0.000 C 
ATOM    134  N1  A   C  15     -14.126   1.359  -4.010  0.00  0.00    +0.000 NA
ATOM    135  C2  A   C  15     -14.508   0.420  -4.888  0.00  0.00    +0.000 C 
ATOM    136  N3  A   C  15     -14.797   0.546  -6.186  0.00  0.00    +0.000 NA
ATOM    137  C4  A   C  15     -14.661   1.826  -6.578  0.00  0.00    +0.000 A 
BRANCH 133 138
ATOM    138  N6  A   C  15     -13.616   3.575  -3.578  0.00  0.00    +0.000 NA
ATOM    139  H61 A   C  15     -13.412   3.351  -2.611  0.00  0.00    +0.000 HD
ATOM    140  H62 A   C  15     -13.518   4.529  -3.899  0.00  0.00    +0.000 HD
ENDBRANCH 133 138
ENDBRANCH 128 129
BRANCH 127 141
ATOM    141  O2' A   C  15     -16.874   0.024  -9.799  0.00  0.00    +0.000 OA
ATOM    142 HO2' A   C  15     -16.253   0.115 -10.534  0.00  0.00    +0.000 HD
ENDBRANCH 127 141
BRANCH 126 143
ATOM    143  O3' A   C  15     -18.670   2.048 -10.260  0.00  0.00    +0.000 OA
BRANCH 143 144
ATOM    144  P   C   C  16     -20.007   2.367  -9.436  0.00  0.00    +0.000 P 
ATOM    145  OP1 C   C  16     -21.131   2.301 -10.393  0.00  0.00    +0.000 OA
ATOM    146  OP2 C   C  16     -19.798   3.599  -8.638  0.00  0.00    +0.000 OA
BRANCH 144 147
ATOM    147  O5' C   C  16     -20.145   1.134  -8.441  0.00  0.00    +0.000 OA
BRANCH 147 148
ATOM    148  C5' C   C  16     -19.953  -0.197  -8.910  0.00  0.00    +0.000 C 
BRANCH 148 149
ATOM    149  C4' C   C  16     -19.727  -1.134  -7.748  0.00  0.00    +0.000 C 
ATOM    150  O4' C   C  16     -18.443  -0.815  -7.147  0.00  0.00    +0.000 OA
ATOM    151  C3' C   C  16     -20.714  -1.006  -6.599  0.00  0.00    +0.000 C 
ATOM    152  C2' C   C  16     -19.907  -1.534  -5.419  0.00  0.00    +0.000 C 
ATOM    153  C1' C   C  16     -18.514  -0.994  -5.744  0.00  0.00    +0.000 C 
BRANCH 153 154
ATOM    154  N1  C   C  16     -18.200   0.287  -5.093  0.00  0.00    +0.000 N 
ATOM    155  C2  C   C  16     -17.701   0.265  -3.793  0.00  0.00    +0.000 A 
ATOM    156  O2  C   C  16     -17.552  -0.833  -3.233  0.00  0.00    +0.000 OA
ATOM    157  N3  C   C  16     -17.392   1.431  -3.178  0.00  0.00    +0.000 NA
ATOM    158  C4  C   C  16     -17.563   2.590  -3.824  0.00  0.00    +0.000 A 
ATOM    159  N4  C   C  16     -17.232   3.717  -3.189  0.00  0.00    +0.000 N 
ATOM    160  C5  C   C  16     -18.078   2.643  -5.154  0.00  0.00    +0.000 A 
ATOM    161  C6  C   C  16     -18.385   1.477  -5.743  0.00  0.00    +0.000 A 
ATOM    162  H41 C   C  16     -16.864   3.694  -2.245  0.00  0.00    +0.000 HD
ATOM    163  H42 C   C  16     -17.347   4.605  -3.653  0.00  0.00    +0.000 HD
ENDBRANCH 153 154
BRANCH 152 164
ATOM    164  O2' C   C  16     -19.842  -2.948  -5.426  0.00  0.00    +0.000 OA
ATOM    165 HO2' C   C  16     -19.082  -3.178  -5.971  0.00  0.00    +0.000 HD
ENDBRANCH 152 164
BRANCH 151 166
ATOM    166  O3' C   C  16     -21.893  -1.763  -6.839  0.00  0.00    +0.000 OA
BRANCH 166 167
ATOM    167  P   G   C  17     -23.320  -1.160  -6.423  0.00  0.00    +0.000 P 
ATOM    168  OP1 G   C  17     -24.343  -2.010  -7.075  0.00  0.00    +0.000 OA
ATOM    169  OP2 G   C  17     -23.311   0.300  -6.678  0.00  0.00    +0.000 OA
BRANCH 167 170
ATOM    170  O5' G   C  17     -23.404  -1.405  -4.853  0.00  0.00    +0.000 OA
BRANCH 170 171
ATOM    171  C5' G   C  17     -23.768  -2.681  -4.343  0.00  0.00    +0.000 C 
BRANCH 171 172
ATOM    172  C4' G   C  17     -23.360  -2.808  -2.896  0.00  0.00    +0.000 C 
ATOM    173  O4' G   C  17     -21.985  -2.352  -2.765  0.00  0.00    +0.000 OA
ATOM    174  C3' G   C  17     -24.129  -1.938  -1.912  0.00  0.00    +0.000 C 
ATOM    175  C2' G   C  17     -23.139  -1.789  -0.765  0.00  0.00    +0.000 C 
ATOM    176  C1' G   C  17     -21.817  -1.691  -1.521  0.00  0.00    +0.000 C 
BRANCH 176 177
ATOM    177  N9  G   C  17     -21.399  -0.315  -1.766  0.00  0.00    +0.000 N 
ATOM    178  C8  G   C  17     -21.391   0.362  -2.961  0.00  0.00    +0.000 A 
ATOM    179  N7  G   C  17     -20.954   1.588  -2.854  0.00  0.00    +0.000 NA
ATOM    180  C5  G   C  17     -20.660   1.731  -1.503  0.00  0.00    +0.000 A 
ATOM    181  C6  G   C  17     -20.149   2.848  -0.777  0.00  0.00    +0.000 A 
ATOM    182  O6  G   C  17     -19.836   3.973  -1.197  0.00  0.00    +0.000 OA
ATOM    183  N1  G   C  17     -20.010   2.553   0.577  0.00  0.00    +0.000 N 
ATOM    184  C2  G   C  17     -20.314   1.345   1.159  0.00  0.00    +0.000 A 
ATOM    185  N2  G   C  17     -20.111   1.246   2.477  0.00  0.00    +0.000 N 
ATOM    186  N3  G   C  17     -20.784   0.303   0.496  0.00  0.00    +0.000 NA
ATOM    187  C4  G   C  17     -20.932   0.564  -0.819  0.00  0.00    +0.000 A 
ATOM    188  H1  G   C  17     -19.655   3.299   1.164  0.00  0.00    +0.000 HD
ATOM    189  H21 G   C  17     -20.317   0.382   2.954  0.00  0.00    +0.000 HD
ATOM    190  H22 G   C  17     -19.754   2.034   3.008  0.00  0.00    +0.000 HD
ENDBRANCH 176 177
BRANCH 175 191
ATOM    191  O2' G   C  17     -23.114  -2.958   0.033  0.00  0.00    +0.000 OA
ATOM    192 HO2' G   C  17     -22.583  -3.596  -0.446  0.00  0.00    +0.000 HD
ENDBRANCH 175 191
BRANCH 174 193
ATOM    193  O3' G   C  17     -25.340  -2.552  -1.494  0.00  0.00    +0.000 OA
BRANCH 193 194
ATOM    194  P   G   C  18     -26.526  -1.645  -0.909  0.00  0.00    +0.000 P 
ATOM    195  OP1 G   C  18     -27.685  -2.537  -0.697  0.00  0.00    +0.000 OA
ATOM    196  OP2 G   C  18     -26.672  -0.453  -1.776  0.00  0.00    +0.000 OA
BRANCH 194 197
ATOM    197  O5' G   C  18     -25.996  -1.175   0.516  0.00  0.00    +0.000 OA
BRANCH 197 198
ATOM    198  C5' G   C  18     -25.943  -2.091   1.607  0.00  0.00    +0.000 C 
BRANCH 198 199
ATOM    199  C4' G   C  18     -25.636  -1.357   2.892  0.00  0.00    +0.000 C 
ATOM    200  O4' G   C  18     -24.309  -0.773   2.779  0.00  0.00    +0.000 OA
ATOM    201  C3' G   C  18     -26.535  -0.174   3.225  0.00  0.00    +0.000 C 
ATOM    202  C2' G   C  18     -25.636   0.673   4.117  0.00  0.00    +0.000 C 
ATOM    203  C1' G   C  18     -24.279   0.477   3.445  0.00  0.00    +0.000 C 
BRANCH 203 204
ATOM    204  N9  G   C  18     -23.963   1.510   2.465  0.00  0.00    +0.000 N 
ATOM    205  C8  G   C  18     -24.157   1.449   1.108  0.00  0.00    +0.000 A 
ATOM    206  N7  G   C  18     -23.767   2.526   0.483  0.00  0.00    +0.000 NA
ATOM    207  C5  G   C  18     -23.287   3.352   1.493  0.00  0.00    +0.000 A 
ATOM    208  C6  G   C  18     -22.729   4.657   1.427  0.00  0.00    +0.000 A 
ATOM    209  O6  G   C  18     -22.540   5.366   0.428  0.00  0.00    +0.000 OA
ATOM    210  N1  G   C  18     -22.376   5.128   2.688  0.00  0.00    +0.000 N 
ATOM    211  C2  G   C  18     -22.542   4.435   3.863  0.00  0.00    +0.000 A 
ATOM    212  N2  G   C  18     -22.153   5.060   4.985  0.00  0.00    +0.000 N 
ATOM    213  N3  G   C  18     -23.058   3.218   3.939  0.00  0.00    +0.000 NA
ATOM    214  C4  G   C  18     -23.406   2.741   2.723  0.00  0.00    +0.000 A 
ATOM    215  H1  G   C  18     -21.966   6.055   2.719  0.00  0.00    +0.000 HD
ATOM    216  H21 G   C  18     -22.250   4.605   5.885  0.00  0.00    +0.000 HD
ATOM    217  H22 G   C  18     -21.763   5.995   4.948  0.00  0.00    +0.000 HD
ENDBRANCH 203 204
BRANCH 202 218
ATOM    218  O2' G   C  18     -25.571   0.131   5.423  0.00  0.00    +0.000 OA
ATOM    219 HO2' G   C  18     -24.692  -0.239   5.525  0.00  0.00    +0.000 HD
ENDBRANCH 202 218
BRANCH 201 220
ATOM    220  O3' G   C  18     -27.725  -0.566   3.895  0.00  0.00    +0.000 OA
BRANCH 220 221
ATOM    221  P   C   C  19     -29.034   0.354   3.781  0.00  0.00    +0.000 P 
ATOM    222  OP1 C   C  19     -30.163  -0.403   4.363  0.00  0.00    +0.000 OA
ATOM    223  OP2 C   C  19     -29.127   0.852   2.389  0.00  0.00    +0.000 OA
BRANCH 221 224
ATOM    224  O5' C   C  19     -28.729   1.590   4.734  0.00  0.00    +0.000 OA
BRANCH 224 225
ATOM    225  C5' C   C  19     -28.427   1.390   6.111  0.00  0.00    +0.000 C 
BRANCH 225 226
ATOM    226  C4' C   C  19     -27.971   2.685   6.738  0.00  0.00    +0.000 C 
ATOM    227  O4' C   C  19     -26.717   3.080   6.118  0.00  0.00    +0.000 OA
ATOM    228  C3' C   C  19     -28.884   3.880   6.516  0.00  0.00    +0.000 C 
ATOM    229  C2' C   C  19     -27.924   5.053   6.658  0.00  0.00    +0.000 C 
ATOM    230  C1' C   C  19     -26.661   4.492   6.004  0.00  0.00    +0.000 C 
BRANCH 230 231
ATOM    231  N1  C   C  19     -26.516   4.841   4.581  0.00  0.00    +0.000 N 
ATOM    232  C2  C   C  19     -26.141   6.142   4.245  0.00  0.00    +0.000 A 
ATOM    233  O2  C   C  19     -25.963   6.965   5.152  0.00  0.00    +0.000 OA
ATOM    234  N3  C   C  19     -25.983   6.472   2.941  0.00  0.00    +0.000 NA
ATOM    235  C4  C   C  19     -26.184   5.555   1.991  0.00  0.00    +0.000 A 
ATOM    236  N4  C   C  19     -25.998   5.920   0.718  0.00  0.00    +0.000 N 
ATOM    237  C5  C   C  19     -26.581   4.222   2.305  0.00  0.00    +0.000 A 
ATOM    238  C6  C   C  19     -26.734   3.912   3.602  0.00  0.00    +0.000 A 
ATOM    239  H41 C   C  19     -25.708   6.864   0.487  0.00  0.00    +0.000 HD
ATOM    240  H42 C   C  19     -26.135   5.252  -0.029  0.00  0.00    +0.000 HD
ENDBRANCH 230 231
BRANCH 229 241
ATOM    241  O2' C   C  19     -27.673   5.311   8.026  0.00  0.00    +0.000 OA
ATOM    242 HO2' C   C  19     -26.799   4.947   8.219  0.00  0.00    +0.000 HD
ENDBRANCH 229 241
BRANCH 228 243
ATOM    243  O3' C   C  19     -29.931   3.972   7.482  0.00  0.00    +0.000 OA
ATOM    244 HO3' C   C  19     -29.688   4.712   8.050  0.00  0.00    +0.000 HD
ENDBRANCH 228 243
ENDBRANCH 225 226
ENDBRANCH 224 225
ENDBRANCH 221 224
ENDBRANCH 220 221
ENDBRANCH 201 220
ENDBRANCH 198 199
ENDBRANCH 197 198
ENDBRANCH 194 197
ENDBRANCH 193 194
ENDBRANCH 174 193
ENDBRANCH 171 172
ENDBRANCH 170 171
ENDBRANCH 167 170
ENDBRANCH 166 167
ENDBRANCH 151 166
ENDBRANCH 148 149
ENDBRANCH 147 148
ENDBRANCH 144 147
ENDBRANCH 143 144
ENDBRANCH 126 143
ENDBRANCH 123 124
ENDBRANCH 122 123
ENDBRANCH 119 122
ENDBRANCH 118 119
ENDBRANCH 103 118
ENDBRANCH 100 101
ENDBRANCH  99 100
ENDBRANCH  96  99
ENDBRANCH  95  96
ENDBRANCH  80  95
ENDBRANCH  77  78
ENDBRANCH  76  77
ENDBRANCH  73  76
ENDBRANCH  72  73
ENDBRANCH  55  72
ENDBRANCH  52  53
ENDBRANCH  51  52
ENDBRANCH  48  51
ENDBRANCH  47  48
ENDBRANCH  28  47
ENDBRANCH  25  26
ENDBRANCH  24  25
ENDBRANCH  21  24
ENDBRANCH  20  21
ENDBRANCH   3  20
BRANCH   1 245
ATOM    245  C5' A   C  10      -4.793   9.651   8.015  0.00  0.00    +0.000 C 
BRANCH 245 246
ATOM    246  O5' A   C  10      -4.419   8.492   7.283  0.00  0.00    +0.000 OA
BRANCH 246 247
ATOM    247  P   A   C  10      -4.317   7.081   8.011  0.00  0.00    +0.000 P 
ATOM    248  OP1 A   C  10      -5.455   6.963   8.950  0.00  0.00    +0.000 OA
ATOM    249  OP2 A   C  10      -4.101   6.028   6.990  0.00  0.00    +0.000 OA
BRANCH 247 250
ATOM    250  O3' C   C   9      -2.996   7.198   8.915  0.00  0.00    +0.000 OA
BRANCH 250 253
ATOM    251  C4' C   C   9      -0.848   6.142   9.343  0.00  0.00    +0.000 C 
ATOM    252  O4' C   C   9       0.500   6.376   8.853  0.00  0.00    +0.000 OA
ATOM    253  C3' C   C   9      -1.734   6.877   8.351  0.00  0.00    +0.000 C 
ATOM    254  C2' C   C   9      -0.899   8.109   8.022  0.00  0.00    +0.000 C 
ATOM    255  C1' C   C   9       0.512   7.521   8.018  0.00  0.00    +0.000 C 
BRANCH 255 256
ATOM    256  N1  C   C   9       0.993   7.122   6.686  0.00  0.00    +0.000 N 
ATOM    257  C2  C   C   9       1.656   8.070   5.909  0.00  0.00    +0.000 A 
ATOM    258  O2  C   C   9       1.788   9.215   6.357  0.00  0.00    +0.000 OA
ATOM    259  N3  C   C   9       2.135   7.717   4.692  0.00  0.00    +0.000 NA
ATOM    260  C4  C   C   9       1.967   6.470   4.245  0.00  0.00    +0.000 A 
ATOM    261  N4  C   C   9       2.475   6.162   3.049  0.00  0.00    +0.000 N 
ATOM    262  C5  C   C   9       1.277   5.483   5.011  0.00  0.00    +0.000 A 
ATOM    263  C6  C   C   9       0.809   5.851   6.215  0.00  0.00    +0.000 A 
ATOM    264  H41 C   C   9       2.968   6.865   2.506  0.00  0.00    +0.000 HD
ATOM    265  H42 C   C   9       2.375   5.229   2.679  0.00  0.00    +0.000 HD
ENDBRANCH 255 256
BRANCH 254 266
ATOM    266  O2' C   C   9      -0.975   9.075   9.056  0.00  0.00    +0.000 OA
ATOM    267 HO2' C   C   9      -0.456   8.737   9.798  0.00  0.00    +0.000 HD
ENDBRANCH 254 266
BRANCH 251 268
ATOM    268  C5' C   C   9      -1.081   4.655   9.426  0.00  0.00    +0.000 C 
BRANCH 268 269
ATOM    269  O5' C   C   9      -1.386   4.140   8.136  0.00  0.00    +0.000 OA
BRANCH 269 270
ATOM    270  P   C   C   9      -1.625   2.584   7.917  0.00  0.00    +0.000 P 
ATOM    271  OP1 C   C   9      -2.814   2.183   8.706  0.00  0.00    +0.000 OA
ATOM    272  OP2 C   C   9      -1.594   2.323   6.461  0.00  0.00    +0.000 OA
BRANCH 270 273
ATOM    273  O3' C   C   8      -0.338   1.905   8.591  0.00  0.00    +0.000 OA
BRANCH 273 276
ATOM    274  C4' C   C   8       1.664   0.607   8.103  0.00  0.00    +0.000 C 
ATOM    275  O4' C   C   8       3.045   0.967   7.832  0.00  0.00    +0.000 OA
ATOM    276  C3' C   C   8       0.898   1.901   7.890  0.00  0.00    +0.000 C 
ATOM    277  C2' C   C   8       1.871   2.948   8.418  0.00  0.00    +0.000 C 
ATOM    278  C1' C   C   8       3.211   2.368   7.966  0.00  0.00    +0.000 C 
BRANCH 278 279
ATOM    279  N1  C   C   8       3.692   2.911   6.686  0.00  0.00    +0.000 N 
ATOM    280  C2  C   C   8       4.481   4.060   6.702  0.00  0.00    +0.000 A 
ATOM    281  O2  C   C   8       4.724   4.601   7.790  0.00  0.00    +0.000 OA
ATOM    282  N3  C   C   8       4.957   4.556   5.536  0.00  0.00    +0.000 NA
ATOM    283  C4  C   C   8       4.667   3.948   4.384  0.00  0.00    +0.000 A 
ATOM    284  N4  C   C   8       5.175   4.463   3.260  0.00  0.00    +0.000 N 
ATOM    285  C5  C   C   8       3.848   2.781   4.335  0.00  0.00    +0.000 A 
ATOM    286  C6  C   C   8       3.385   2.303   5.500  0.00  0.00    +0.000 A 
ATOM    287  H41 C   C   8       5.738   5.303   3.288  0.00  0.00    +0.000 HD
ATOM    288  H42 C   C   8       4.984   4.030   2.366  0.00  0.00    +0.000 HD
ENDBRANCH 278 279
BRANCH 277 289
ATOM    289  O2' C   C   8       1.864   2.978   9.831  0.00  0.00    +0.000 OA
ATOM    290 HO2' C   C   8       2.314   2.166  10.108  0.00  0.00    +0.000 HD
ENDBRANCH 277 289
BRANCH 274 291
ATOM    291  C5' C   C   8       1.274  -0.528   7.193  0.00  0.00    +0.000 C 
BRANCH 291 292
ATOM    292  O5' C   C   8       0.404  -0.057   6.171  0.00  0.00    +0.000 OA
BRANCH 292 293
ATOM    293  P   C   C   8       0.753  -0.299   4.639  0.00  0.00    +0.000 P 
ATOM    294  OP1 C   C   8      -0.450  -0.859   3.983  0.00  0.00    +0.000 OA
ATOM    295  OP2 C   C   8       1.383   0.926   4.094  0.00  0.00    +0.000 OA
BRANCH 293 296
ATOM    296  O3' A   C   7       1.863  -1.454   4.693  0.00  0.00    +0.000 OA
BRANCH 296 299
ATOM    297  C4' A   C   7       3.771  -2.482   3.605  0.00  0.00    +0.000 C 
ATOM    298  O4' A   C   7       5.199  -2.207   3.615  0.00  0.00    +0.000 OA
ATOM    299  C3' A   C   7       3.151  -1.209   4.151  0.00  0.00    +0.000 C 
ATOM    300  C2' A   C   7       4.163  -0.778   5.203  0.00  0.00    +0.000 C 
ATOM    301  C1' A   C   7       5.478  -1.160   4.528  0.00  0.00    +0.000 C 
BRANCH 301 302
ATOM    302  N9  A   C   7       6.117  -0.064   3.802  0.00  0.00    +0.000 N 
ATOM    303  C8  A   C   7       6.123   0.166   2.449  0.00  0.00    +0.000 A 
ATOM    304  N7  A   C   7       6.817   1.222   2.096  0.00  0.00    +0.000 NA
ATOM    305  C5  A   C   7       7.290   1.726   3.298  0.00  0.00    +0.000 A 
ATOM    306  C6  A   C   7       8.092   2.838   3.606  0.00  0.00    +0.000 C 
ATOM    307  N1  A   C   7       8.378   3.068   4.906  0.00  0.00    +0.000 NA
ATOM    308  C2  A   C   7       7.887   2.228   5.828  0.00  0.00    +0.000 C 
ATOM    309  N3  A   C   7       7.126   1.146   5.663  0.00  0.00    +0.000 NA
ATOM    310  C4  A   C   7       6.862   0.949   4.359  0.00  0.00    +0.000 A 
BRANCH 306 311
ATOM    311  N6  A   C   7       8.588   3.664   2.685  0.00  0.00    +0.000 NA
ATOM    312  H61 A   C   7       9.165   4.452   2.951  0.00  0.00    +0.000 HD
ATOM    313  H62 A   C   7       8.387   3.500   1.709  0.00  0.00    +0.000 HD
ENDBRANCH 306 311
ENDBRANCH 301 302
BRANCH 300 314
ATOM    314  O2' A   C   7       4.035  -1.551   6.381  0.00  0.00    +0.000 OA
ATOM    315 HO2' A   C   7       4.342  -2.432   6.156  0.00  0.00    +0.000 HD
ENDBRANCH 300 314
BRANCH 297 316
ATOM    316  C5' A   C   7       3.355  -2.847   2.204  0.00  0.00    +0.000 C 
BRANCH 316 317
ATOM    317  O5' A   C   7       3.788  -1.859   1.285  0.00  0.00    +0.000 OA
BRANCH 317 318
ATOM    318  P   A   C   7       3.823  -2.182  -0.270  0.00  0.00    +0.000 P 
ATOM    319  OP1 A   C   7       2.603  -2.963  -0.601  0.00  0.00    +0.000 OA
ATOM    320  OP2 A   C   7       4.112  -0.927  -1.001  0.00  0.00    +0.000 OA
BRANCH 318 321
ATOM    321  O3' C   C   6       5.076  -3.171  -0.420  0.00  0.00    +0.000 OA
BRANCH 321 324
ATOM    322  C4' C   C   6       7.259  -3.461  -1.443  0.00  0.00    +0.000 C 
ATOM    323  O4' C   C   6       8.616  -3.170  -1.005  0.00  0.00    +0.000 OA
ATOM    324  C3' C   C   6       6.386  -2.631  -0.517  0.00  0.00    +0.000 C 
ATOM    325  C2' C   C   6       7.147  -2.700   0.801  0.00  0.00    +0.000 C 
ATOM    326  C1' C   C   6       8.595  -2.656   0.316  0.00  0.00    +0.000 C 
BRANCH 326 327
ATOM    327  N1  C   C   6       9.189  -1.311   0.292  0.00  0.00    +0.000 N 
ATOM    328  C2  C   C   6       9.744  -0.789   1.464  0.00  0.00    +0.000 A 
ATOM    329  O2  C   C   6       9.681  -1.454   2.509  0.00  0.00    +0.000 OA
ATOM    330  N3  C   C   6      10.335   0.431   1.430  0.00  0.00    +0.000 NA
ATOM    331  C4  C   C   6      10.376   1.120   0.286  0.00  0.00    +0.000 A 
ATOM    332  N4  C   C   6      10.984   2.310   0.292  0.00  0.00    +0.000 N 
ATOM    333  C5  C   C   6       9.796   0.622  -0.916  0.00  0.00    +0.000 A 
ATOM    334  C6  C   C   6       9.217  -0.585  -0.867  0.00  0.00    +0.000 A 
ATOM    335  H41 C   C   6      11.415   2.678   1.134  0.00  0.00    +0.000 HD
ATOM    336  H42 C   C   6      11.028   2.844  -0.567  0.00  0.00    +0.000 HD
ENDBRANCH 326 327
BRANCH 325 337
ATOM    337  O2' C   C   6       6.943  -3.942   1.448  0.00  0.00    +0.000 OA
ATOM    338 HO2' C   C   6       7.037  -4.628   0.779  0.00  0.00    +0.000 HD
ENDBRANCH 325 337
BRANCH 322 339
ATOM    339  C5' C   C   6       7.139  -3.145  -2.913  0.00  0.00    +0.000 C 
BRANCH 339 340
ATOM    340  O5' C   C   6       7.775  -1.907  -3.205  0.00  0.00    +0.000 OA
BRANCH 340 341
ATOM    341  P   C   C   6       8.308  -1.600  -4.671  0.00  0.00    +0.000 P 
ATOM    342  OP1 C   C   6       7.289  -2.076  -5.637  0.00  0.00    +0.000 OA
ATOM    343  OP2 C   C   6       8.759  -0.188  -4.716  0.00  0.00    +0.000 OA
BRANCH 341 344
ATOM    344  O3' C   C   5       9.597  -2.545  -4.813  0.00  0.00    +0.000 OA
BRANCH 344 347
ATOM    345  C4' C   C   5      11.882  -2.341  -5.632  0.00  0.00    +0.000 C 
ATOM    346  O4' C   C   5      13.177  -2.247  -4.979  0.00  0.00    +0.000 OA
ATOM    347  C3' C   C   5      10.885  -2.012  -4.534  0.00  0.00    +0.000 C 
ATOM    348  C2' C   C   5      11.533  -2.642  -3.308  0.00  0.00    +0.000 C 
ATOM    349  C1' C   C   5      13.013  -2.365  -3.576  0.00  0.00    +0.000 C 
BRANCH 349 350
ATOM    350  N1  C   C   5      13.509  -1.134  -2.939  0.00  0.00    +0.000 N 
ATOM    351  C2  C   C   5      13.665  -1.116  -1.555  0.00  0.00    +0.000 A 
ATOM    352  O2  C   C   5      13.375  -2.133  -0.909  0.00  0.00    +0.000 OA
ATOM    353  N3  C   C   5      14.128   0.005  -0.951  0.00  0.00    +0.000 NA
ATOM    354  C4  C   C   5      14.429   1.079  -1.683  0.00  0.00    +0.000 A 
ATOM    355  N4  C   C   5      14.893   2.160  -1.045  0.00  0.00    +0.000 N 
ATOM    356  C5  C   C   5      14.275   1.093  -3.101  0.00  0.00    +0.000 A 
ATOM    357  C6  C   C   5      13.815  -0.027  -3.682  0.00  0.00    +0.000 A 
ATOM    358  H41 C   C   5      14.985   2.148  -0.035  0.00  0.00    +0.000 HD
ATOM    359  H42 C   C   5      15.140   2.997  -1.554  0.00  0.00    +0.000 HD
ENDBRANCH 349 350
BRANCH 348 360
ATOM    360  O2' C   C   5      11.342  -4.045  -3.291  0.00  0.00    +0.000 OA
ATOM    361 HO2' C   C   5      12.218  -4.451  -3.296  0.00  0.00    +0.000 HD
ENDBRANCH 348 360
BRANCH 345 362
ATOM    362  C5' C   C   5      11.872  -1.415  -6.823  0.00  0.00    +0.000 C 
BRANCH 362 363
ATOM    363  O5' C   C   5      12.083  -0.072  -6.407  0.00  0.00    +0.000 OA
BRANCH 363 364
ATOM    364  P   C   C   5      12.206   1.093  -7.483  0.00  0.00    +0.000 P 
ATOM    365  OP1 C   C   5      10.991   1.052  -8.330  0.00  0.00    +0.000 OA
ATOM    366  OP2 C   C   5      12.570   2.346  -6.781  0.00  0.00    +0.000 OA
BRANCH 364 367
ATOM    367  O3' G   C   4      13.444   0.641  -8.399  0.00  0.00    +0.000 OA
BRANCH 367 370
ATOM    368  C4' G   C   4      15.815   0.830  -8.942  0.00  0.00    +0.000 C 
ATOM    369  O4' G   C   4      17.018   0.266  -8.354  0.00  0.00    +0.000 OA
ATOM    370  C3' G   C   4      14.758   0.669  -7.861  0.00  0.00    +0.000 C 
ATOM    371  C2' G   C   4      15.144  -0.659  -7.222  0.00  0.00    +0.000 C 
ATOM    372  C1' G   C   4      16.669  -0.580  -7.274  0.00  0.00    +0.000 C 
BRANCH 372 373
ATOM    373  N9  G   C   4      17.260  -0.031  -6.059  0.00  0.00    +0.000 N 
ATOM    374  C8  G   C   4      17.903   1.174  -5.931  0.00  0.00    +0.000 A 
ATOM    375  N7  G   C   4      18.330   1.404  -4.719  0.00  0.00    +0.000 NA
ATOM    376  C5  G   C   4      17.940   0.282  -4.001  0.00  0.00    +0.000 A 
ATOM    377  C6  G   C   4      18.118  -0.042  -2.631  0.00  0.00    +0.000 A 
ATOM    378  O6  G   C   4      18.672   0.621  -1.745  0.00  0.00    +0.000 OA
ATOM    379  N1  G   C   4      17.567  -1.279  -2.322  0.00  0.00    +0.000 N 
ATOM    380  C2  G   C   4      16.921  -2.102  -3.211  0.00  0.00    +0.000 A 
ATOM    381  N2  G   C   4      16.450  -3.259  -2.717  0.00  0.00    +0.000 N 
ATOM    382  N3  G   C   4      16.748  -1.815  -4.493  0.00  0.00    +0.000 NA
ATOM    383  C4  G   C   4      17.279  -0.615  -4.816  0.00  0.00    +0.000 A 
ATOM    384  H1  G   C   4      17.657  -1.579  -1.361  0.00  0.00    +0.000 HD
ATOM    385  H21 G   C   4      15.958  -3.915  -3.311  0.00  0.00    +0.000 HD
ATOM    386  H22 G   C   4      16.577  -3.492  -1.740  0.00  0.00    +0.000 HD
ENDBRANCH 372 373
BRANCH 371 387
ATOM    387  O2' G   C   4      14.725  -1.750  -8.021  0.00  0.00    +0.000 OA
ATOM    388 HO2' G   C   4      15.520  -2.260  -8.230  0.00  0.00    +0.000 HD
ENDBRANCH 371 387
BRANCH 368 389
ATOM    389  C5' G   C   4      16.109   2.245  -9.379  0.00  0.00    +0.000 C 
BRANCH 389 390
ATOM    390  O5' G   C   4      16.903   2.902  -8.397  0.00  0.00    +0.000 OA
BRANCH 390 391
ATOM    391  P   G   C   4      16.674   4.440  -8.066  0.00  0.00    +0.000 P 
ATOM    392  OP1 G   C   4      15.831   5.022  -9.133  0.00  0.00    +0.000 OA
ATOM    393  OP2 G   C   4      16.251   4.562  -6.651  0.00  0.00    +0.000 OA
BRANCH 391 394
ATOM    394  O3' G   C   3      18.134   5.088  -8.205  0.00  0.00    +0.000 OA
BRANCH 394 397
ATOM    395  C4' G   C   3      19.780   6.518  -7.126  0.00  0.00    +0.000 C 
ATOM    396  O4' G   C   3      20.900   6.257  -6.236  0.00  0.00    +0.000 OA
ATOM    397  C3' G   C   3      18.941   5.253  -7.046  0.00  0.00    +0.000 C 
ATOM    398  C2' G   C   3      20.002   4.168  -6.922  0.00  0.00    +0.000 C 
ATOM    399  C1' G   C   3      21.040   4.860  -6.040  0.00  0.00    +0.000 C 
BRANCH 399 400
ATOM    400  N9  G   C   3      20.884   4.576  -4.618  0.00  0.00    +0.000 N 
ATOM    401  C8  G   C   3      20.414   5.428  -3.650  0.00  0.00    +0.000 A 
ATOM    402  N7  G   C   3      20.400   4.896  -2.457  0.00  0.00    +0.000 NA
ATOM    403  C5  G   C   3      20.885   3.609  -2.652  0.00  0.00    +0.000 A 
ATOM    404  C6  G   C   3      21.099   2.550  -1.722  0.00  0.00    +0.000 A 
ATOM    405  O6  G   C   3      20.901   2.542  -0.494  0.00  0.00    +0.000 OA
ATOM    406  N1  G   C   3      21.596   1.412  -2.351  0.00  0.00    +0.000 N 
ATOM    407  C2  G   C   3      21.862   1.305  -3.697  0.00  0.00    +0.000 A 
ATOM    408  N2  G   C   3      22.335   0.123  -4.120  0.00  0.00    +0.000 N 
ATOM    409  N3  G   C   3      21.675   2.283  -4.569  0.00  0.00    +0.000 NA
ATOM    410  C4  G   C   3      21.186   3.396  -3.983  0.00  0.00    +0.000 A 
ATOM    411  H1  G   C   3      21.767   0.612  -1.755  0.00  0.00    +0.000 HD
ATOM    412  H21 G   C   3      22.554  -0.036  -5.098  0.00  0.00    +0.000 HD
ATOM    413  H22 G   C   3      22.465  -0.638  -3.465  0.00  0.00    +0.000 HD
ENDBRANCH 399 400
BRANCH 398 414
ATOM    414  O2' G   C   3      20.590   3.895  -8.180  0.00  0.00    +0.000 OA
ATOM    415 HO2' G   C   3      21.344   4.491  -8.262  0.00  0.00    +0.000 HD
ENDBRANCH 398 414
BRANCH 395 416
ATOM    416  C5' G   C   3      19.100   7.786  -6.677  0.00  0.00    +0.000 C 
BRANCH 416 417
ATOM    417  O5' G   C   3      19.314   7.994  -5.286  0.00  0.00    +0.000 OA
BRANCH 417 418
ATOM    418  P   G   C   3      19.419   9.466  -4.693  0.00  0.00    +0.000 P 
ATOM    419  OP1 G   C   3      18.806  10.410  -5.654  0.00  0.00    +0.000 OA
ATOM    420  OP2 G   C   3      18.961   9.449  -3.285  0.00  0.00    +0.000 OA
BRANCH 418 421
ATOM    421  O3' C   C   2      20.989   9.781  -4.691  0.00  0.00    +0.000 OA
BRANCH 421 424
ATOM    422  C4' C   C   2      22.831  10.252  -3.195  0.00  0.00    +0.000 C 
ATOM    423  O4' C   C   2      23.898   9.442  -2.633  0.00  0.00    +0.000 OA
ATOM    424  C3' C   C   2      21.809   9.235  -3.670  0.00  0.00    +0.000 C 
ATOM    425  C2' C   C   2      22.689   8.103  -4.181  0.00  0.00    +0.000 C 
ATOM    426  C1' C   C   2      23.833   8.130  -3.167  0.00  0.00    +0.000 C 
BRANCH 426 427
ATOM    427  N1  C   C   2      23.687   7.179  -2.057  0.00  0.00    +0.000 N 
ATOM    428  C2  C   C   2      24.011   5.845  -2.284  0.00  0.00    +0.000 A 
ATOM    429  O2  C   C   2      24.376   5.505  -3.420  0.00  0.00    +0.000 OA
ATOM    430  N3  C   C   2      23.920   4.955  -1.267  0.00  0.00    +0.000 NA
ATOM    431  C4  C   C   2      23.515   5.362  -0.061  0.00  0.00    +0.000 A 
ATOM    432  N4  C   C   2      23.451   4.449   0.912  0.00  0.00    +0.000 N 
ATOM    433  C5  C   C   2      23.163   6.721   0.198  0.00  0.00    +0.000 A 
ATOM    434  C6  C   C   2      23.259   7.587  -0.822  0.00  0.00    +0.000 A 
ATOM    435  H41 C   C   2      23.716   3.491   0.714  0.00  0.00    +0.000 HD
ATOM    436  H42 C   C   2      23.152   4.709   1.841  0.00  0.00    +0.000 HD
ENDBRANCH 426 427
BRANCH 425 437
ATOM    437  O2' C   C   2      23.218   8.398  -5.459  0.00  0.00    +0.000 OA
ATOM    438 HO2' C   C   2      23.944   9.021  -5.323  0.00  0.00    +0.000 HD
ENDBRANCH 425 437
BRANCH 422 439
ATOM    439  C5' C   C   2      22.341  11.200  -2.131  0.00  0.00    +0.000 C 
BRANCH 439 440
ATOM    440  O5' C   C   2      22.078  10.489  -0.927  0.00  0.00    +0.000 OA
BRANCH 440 441
ATOM    441  P   C   C   2      21.723  11.270   0.411  0.00  0.00    +0.000 P 
ATOM    442  OP1 C   C   2      20.823  12.391   0.068  0.00  0.00    +0.000 OA
ATOM    443  OP2 C   C   2      21.304  10.283   1.431  0.00  0.00    +0.000 OA
BRANCH 441 444
ATOM    444  O3' C   C   1      23.123  11.899   0.874  0.00  0.00    +0.000 OA
BRANCH 444 447
ATOM    445  C4' C   C   1      24.932  11.768   2.505  0.00  0.00    +0.000 C 
ATOM    446  O4' C   C   1      26.179  11.025   2.554  0.00  0.00    +0.000 OA
ATOM    447  C3' C   C   1      24.112  11.054   1.443  0.00  0.00    +0.000 C 
ATOM    448  C2' C   C   1      25.178  10.644   0.436  0.00  0.00    +0.000 C 
ATOM    449  C1' C   C   1      26.339  10.280   1.361  0.00  0.00    +0.000 C 
BRANCH 449 450
ATOM    450  N1  C   C   1      26.385   8.856   1.733  0.00  0.00    +0.000 N 
ATOM    451  C2  C   C   1      26.830   7.917   0.799  0.00  0.00    +0.000 A 
ATOM    452  O2  C   C   1      27.152   8.303  -0.335  0.00  0.00    +0.000 OA
ATOM    453  N3  C   C   1      26.894   6.611   1.153  0.00  0.00    +0.000 NA
ATOM    454  C4  C   C   1      26.533   6.234   2.383  0.00  0.00    +0.000 A 
ATOM    455  N4  C   C   1      26.629   4.939   2.696  0.00  0.00    +0.000 N 
ATOM    456  C5  C   C   1      26.064   7.169   3.350  0.00  0.00    +0.000 A 
ATOM    457  C6  C   C   1      26.006   8.456   2.984  0.00  0.00    +0.000 A 
ATOM    458  H41 C   C   1      26.953   4.264   2.014  0.00  0.00    +0.000 HD
ATOM    459  H42 C   C   1      26.368   4.615   3.623  0.00  0.00    +0.000 HD
ENDBRANCH 449 450
BRANCH 448 460
ATOM    460  O2' C   C   1      25.560  11.753  -0.359  0.00  0.00    +0.000 OA
ATOM    461 HO2' C   C   1      26.151  12.295   0.182  0.00  0.00    +0.000 HD
ENDBRANCH 448 460
BRANCH 445 462
ATOM    462  C5' C   C   1      24.345  11.801   3.895  0.00  0.00    +0.000 C 
BRANCH 462 463
ATOM    463  O5' C   C   1      24.237  10.476   4.407  0.00  0.00    +0.000 OA
ATOM    464 HO5' C   C   1      23.446   9.707   3.925  0.00  0.00    +0.000 HD
ENDBRANCH 462 463
ENDBRANCH 445 462
ENDBRANCH 444 447
ENDBRANCH 441 444
ENDBRANCH 440 441
ENDBRANCH 439 440
ENDBRANCH 422 439
ENDBRANCH 421 424
ENDBRANCH 418 421
ENDBRANCH 417 418
ENDBRANCH 416 417
ENDBRANCH 395 416
ENDBRANCH 394 397
ENDBRANCH 391 394
ENDBRANCH 390 391
ENDBRANCH 389 390
ENDBRANCH 368 389
ENDBRANCH 367 370
ENDBRANCH 364 367
ENDBRANCH 363 364
ENDBRANCH 362 363
ENDBRANCH 345 362
ENDBRANCH 344 347
ENDBRANCH 341 344
ENDBRANCH 340 341
ENDBRANCH 339 340
ENDBRANCH 322 339
ENDBRANCH 321 324
ENDBRANCH 318 321
ENDBRANCH 317 318
ENDBRANCH 316 317
ENDBRANCH 297 316
ENDBRANCH 296 299
ENDBRANCH 293 296
ENDBRANCH 292 293
ENDBRANCH 291 292
ENDBRANCH 274 291
ENDBRANCH 273 276
ENDBRANCH 270 273
ENDBRANCH 269 270
ENDBRANCH 268 269
ENDBRANCH 251 268
ENDBRANCH 250 253
ENDBRANCH 247 250
ENDBRANCH 246 247
ENDBRANCH 245 246
ENDBRANCH   1 245
TORSDOF 135
