REMARK  Name = /Users/acegid/Desktop/Smoking_Research/Docking/Docking_All_PDB/All_PDB/2ODC_H.pdb
REMARK  227 active torsions:
REMARK  status: ('A' for Active; 'I' for Inactive)
REMARK    1  A    between atoms: N_1  and  CA_2
REMARK    2  A    between atoms: CA_2  and  C_3
REMARK    3  A    between atoms: CA_2  and  CB_5
REMARK    4  A    between atoms: CB_5  and  CG_6
REMARK    5  A    between atoms: N_21  and  CA_22
REMARK    6  A    between atoms: CA_22  and  C_23
REMARK    7  A    between atoms: CA_22  and  CB_25
REMARK    8  A    between atoms: CB_25  and  CG_26
REMARK    9  A    between atoms: N_33  and  CA_34
REMARK   10  A    between atoms: CA_34  and  C_35
REMARK   11  A    between atoms: CA_34  and  CB_37
REMARK   12  A    between atoms: CB_37  and  CG_38
REMARK   13  A    between atoms: N_47  and  CA_48
REMARK   14  A    between atoms: CA_48  and  C_49
REMARK   15  A    between atoms: CA_48  and  CB_51
REMARK   16  A    between atoms: CB_51  and  CG_52
REMARK   17  A    between atoms: CZ_57  and  OH_58
REMARK   18  A    between atoms: N_68  and  CA_69
REMARK   19  A    between atoms: CA_69  and  C_70
REMARK   20  A    between atoms: CA_69  and  CB_72
REMARK   21  A    between atoms: N_78  and  CA_79
REMARK   22  A    between atoms: CA_79  and  C_80
REMARK   23  A    between atoms: CA_79  and  CB_82
REMARK   24  A    between atoms: CB_82  and  CG_83
REMARK   25  A    between atoms: N_90  and  CA_91
REMARK   26  A    between atoms: CA_91  and  C_92
REMARK   27  A    between atoms: CA_91  and  CB_94
REMARK   28  A    between atoms: CB_94  and  CG_95
REMARK   29  A    between atoms: CG_95  and  CD1_96
REMARK   30  A    between atoms: CG_95  and  CD2_97
REMARK   31  A    between atoms: N_109  and  CA_110
REMARK   32  A    between atoms: CA_110  and  C_111
REMARK   33  A    between atoms: CA_110  and  CB_113
REMARK   34  A    between atoms: CB_113  and  OG_114
REMARK   35  A    between atoms: N_120  and  CA_121
REMARK   36  A    between atoms: CA_121  and  C_122
REMARK   37  A    between atoms: CA_121  and  CB_124
REMARK   38  A    between atoms: CB_124  and  CG_125
REMARK   39  A    between atoms: N_132  and  CA_133
REMARK   40  A    between atoms: CA_133  and  C_134
REMARK   41  A    between atoms: CA_133  and  CB_136
REMARK   42  A    between atoms: CB_136  and  OG1_137
REMARK   43  A    between atoms: CB_136  and  CG2_138
REMARK   44  A    between atoms: N_146  and  CA_147
REMARK   45  A    between atoms: CA_147  and  C_148
REMARK   46  A    between atoms: CA_147  and  CB_150
REMARK   47  A    between atoms: CB_150  and  CG_151
REMARK   48  A    between atoms: CG_151  and  CD_152
REMARK   49  A    between atoms: N_161  and  CA_162
REMARK   50  A    between atoms: CA_162  and  C_163
REMARK   51  A    between atoms: CA_162  and  CB_165
REMARK   52  A    between atoms: CB_165  and  CG_166
REMARK   53  A    between atoms: CG_166  and  CD1_167
REMARK   54  A    between atoms: CG_166  and  CD2_168
REMARK   55  A    between atoms: N_180  and  CA_181
REMARK   56  A    between atoms: CA_181  and  C_182
REMARK   57  A    between atoms: CA_181  and  CB_184
REMARK   58  A    between atoms: CB_184  and  OG1_185
REMARK   59  A    between atoms: CB_184  and  CG2_186
REMARK   60  A    between atoms: N_194  and  CA_195
REMARK   61  A    between atoms: CA_195  and  C_196
REMARK   62  A    between atoms: CA_195  and  CB_198
REMARK   63  A    between atoms: CB_198  and  OG1_199
REMARK   64  A    between atoms: CB_198  and  CG2_200
REMARK   65  A    between atoms: N_208  and  CA_209
REMARK   66  A    between atoms: CA_209  and  C_210
REMARK   67  A    between atoms: CA_209  and  CB_212
REMARK   68  A    between atoms: CB_212  and  CG_213
REMARK   69  A    between atoms: CG_213  and  CD1_214
REMARK   70  A    between atoms: CG_213  and  CD2_215
REMARK   71  A    between atoms: N_227  and  CA_228
REMARK   72  A    between atoms: CA_228  and  C_229
REMARK   73  A    between atoms: CA_228  and  CB_231
REMARK   74  A    between atoms: CB_231  and  CG_232
REMARK   75  A    between atoms: CG_232  and  CD1_233
REMARK   76  A    between atoms: CG_232  and  CD2_234
REMARK   77  A    between atoms: N_246  and  CA_247
REMARK   78  A    between atoms: CA_247  and  C_248
REMARK   79  A    between atoms: CA_247  and  CB_250
REMARK   80  A    between atoms: CB_250  and  CG_251
REMARK   81  A    between atoms: CG_251  and  CD_252
REMARK   82  A    between atoms: CD_252  and  NE_253
REMARK   83  A    between atoms: N_270  and  CA_271
REMARK   84  A    between atoms: CA_271  and  C_272
REMARK   85  A    between atoms: CA_271  and  CB_274
REMARK   86  A    between atoms: CB_274  and  CG_275
REMARK   87  A    between atoms: CG_275  and  CD_276
REMARK   88  A    between atoms: CD_276  and  NE_277
REMARK   89  A    between atoms: N_294  and  CA_295
REMARK   90  A    between atoms: CA_295  and  C_296
REMARK   91  A    between atoms: CA_295  and  CB_298
REMARK   92  A    between atoms: CB_298  and  CG_299
REMARK   93  A    between atoms: CZ_304  and  OH_305
REMARK   94  A    between atoms: N_315  and  CA_316
REMARK   95  A    between atoms: CA_316  and  C_317
REMARK   96  A    between atoms: CA_316  and  CB_319
REMARK   97  A    between atoms: CB_319  and  CG_320
REMARK   98  A    between atoms: N_329  and  CA_330
REMARK   99  A    between atoms: CA_330  and  C_331
REMARK  100  A    between atoms: CA_330  and  CB_333
REMARK  101  A    between atoms: CB_333  and  CG1_334
REMARK  102  A    between atoms: CB_333  and  CG2_335
REMARK  103  A    between atoms: CG1_334  and  CD1_336
REMARK  104  A    between atoms: CA_349  and  C_350
REMARK  105  A    between atoms: N_362  and  CA_363
REMARK  106  A    between atoms: CA_363  and  C_364
REMARK  107  A    between atoms: CA_363  and  CB_366
REMARK  108  A    between atoms: CB_366  and  CG_367
REMARK  109  A    between atoms: N_380  and  CA_381
REMARK  110  A    between atoms: CA_381  and  C_382
REMARK  111  A    between atoms: CA_388  and  C_389
REMARK  112  A    between atoms: N_401  and  CA_402
REMARK  113  A    between atoms: CA_402  and  C_403
REMARK  114  A    between atoms: CA_402  and  CB_405
REMARK  115  A    between atoms: CB_405  and  CG1_406
REMARK  116  A    between atoms: CB_405  and  CG2_407
REMARK  117  A    between atoms: N_417  and  CA_418
REMARK  118  A    between atoms: CA_418  and  C_419
REMARK  119  A    between atoms: CA_418  and  CB_421
REMARK  120  A    between atoms: CB_421  and  CG1_422
REMARK  121  A    between atoms: CB_421  and  CG2_423
REMARK  122  A    between atoms: N_433  and  CA_434
REMARK  123  A    between atoms: CA_434  and  C_435
REMARK  124  A    between atoms: N_440  and  CA_441
REMARK  125  A    between atoms: CA_441  and  C_442
REMARK  126  A    between atoms: CA_441  and  CB_444
REMARK  127  A    between atoms: CB_444  and  OG_445
REMARK  128  A    between atoms: N_451  and  CA_452
REMARK  129  A    between atoms: CA_452  and  C_453
REMARK  130  A    between atoms: CA_452  and  CB_455
REMARK  131  A    between atoms: CB_455  and  OG1_456
REMARK  132  A    between atoms: CB_455  and  CG2_457
REMARK  133  A    between atoms: N_465  and  CA_466
REMARK  134  A    between atoms: CA_466  and  C_467
REMARK  135  A    between atoms: CA_466  and  CB_469
REMARK  136  A    between atoms: CB_469  and  CG_470
REMARK  137  A    between atoms: CG_470  and  CD_471
REMARK  138  A    between atoms: CD_471  and  NE_472
REMARK  139  A    between atoms: N_489  and  CA_490
REMARK  140  A    between atoms: CA_490  and  C_491
REMARK  141  A    between atoms: CA_490  and  CB_493
REMARK  142  A    between atoms: CB_493  and  CG_494
REMARK  143  A    between atoms: CG_494  and  CD_495
REMARK  144  A    between atoms: CD_495  and  NE_496
REMARK  145  A    between atoms: N_513  and  CA_514
REMARK  146  A    between atoms: CA_514  and  C_515
REMARK  147  A    between atoms: CA_514  and  CB_517
REMARK  148  A    between atoms: CB_517  and  CG_518
REMARK  149  A    between atoms: CG_518  and  CD1_519
REMARK  150  A    between atoms: CG_518  and  CD2_520
REMARK  151  A    between atoms: N_532  and  CA_533
REMARK  152  A    between atoms: CA_533  and  C_534
REMARK  153  A    between atoms: CA_533  and  CB_536
REMARK  154  A    between atoms: CB_536  and  CG_537
REMARK  155  A    between atoms: CZ_542  and  OH_543
REMARK  156  A    between atoms: N_553  and  CA_554
REMARK  157  A    between atoms: CA_554  and  C_555
REMARK  158  A    between atoms: CA_554  and  CB_557
REMARK  159  A    between atoms: CB_557  and  CG_558
REMARK  160  A    between atoms: CG_558  and  CD_559
REMARK  161  A    between atoms: N_568  and  CA_569
REMARK  162  A    between atoms: CA_569  and  C_570
REMARK  163  A    between atoms: CA_569  and  CB_572
REMARK  164  A    between atoms: CB_572  and  CG_573
REMARK  165  A    between atoms: CG_573  and  CD_574
REMARK  166  A    between atoms: CD_574  and  CE_575
REMARK  167  A    between atoms: CE_575  and  NZ_576
REMARK  168  A    between atoms: N_590  and  CA_591
REMARK  169  A    between atoms: CA_591  and  C_592
REMARK  170  A    between atoms: CA_591  and  CB_594
REMARK  171  A    between atoms: CB_594  and  CG_595
REMARK  172  A    between atoms: CG_595  and  CD_596
REMARK  173  A    between atoms: CD_596  and  CE_597
REMARK  174  A    between atoms: CE_597  and  NZ_598
REMARK  175  A    between atoms: N_612  and  CA_613
REMARK  176  A    between atoms: CA_613  and  C_614
REMARK  177  A    between atoms: CA_613  and  CB_616
REMARK  178  A    between atoms: CB_616  and  CG1_617
REMARK  179  A    between atoms: CB_616  and  CG2_618
REMARK  180  A    between atoms: CG1_617  and  CD1_619
REMARK  181  A    between atoms: N_631  and  CA_632
REMARK  182  A    between atoms: CA_632  and  C_633
REMARK  183  A    between atoms: CA_632  and  CB_635
REMARK  184  A    between atoms: CB_635  and  CG_636
REMARK  185  A    between atoms: N_651  and  CA_652
REMARK  186  A    between atoms: CA_652  and  C_653
REMARK  187  A    between atoms: CA_652  and  CB_655
REMARK  188  A    between atoms: CB_655  and  CG_656
REMARK  189  A    between atoms: CG_656  and  CD_657
REMARK  190  A    between atoms: N_666  and  CA_667
REMARK  191  A    between atoms: CA_667  and  C_668
REMARK  192  A    between atoms: CA_667  and  CB_670
REMARK  193  A    between atoms: CB_670  and  CG_671
REMARK  194  A    between atoms: CZ_676  and  OH_677
REMARK  195  A    between atoms: N_687  and  CA_688
REMARK  196  A    between atoms: CA_688  and  C_689
REMARK  197  A    between atoms: CA_688  and  CB_691
REMARK  198  A    between atoms: CB_691  and  CG_692
REMARK  199  A    between atoms: CG_692  and  CD_693
REMARK  200  A    between atoms: N_702  and  CA_703
REMARK  201  A    between atoms: CA_703  and  C_704
REMARK  202  A    between atoms: CA_703  and  CB_706
REMARK  203  A    between atoms: CB_706  and  OG1_707
REMARK  204  A    between atoms: CB_706  and  CG2_708
REMARK  205  A    between atoms: N_716  and  CA_717
REMARK  206  A    between atoms: CA_717  and  C_718
REMARK  207  A    between atoms: CA_717  and  CB_720
REMARK  208  A    between atoms: CB_720  and  CG_721
REMARK  209  A    between atoms: CG_721  and  CD_722
REMARK  210  A    between atoms: N_733  and  CA_734
REMARK  211  A    between atoms: CA_734  and  C_735
REMARK  212  A    between atoms: CA_734  and  CB_737
REMARK  213  A    between atoms: CB_737  and  CG_738
REMARK  214  A    between atoms: CG_738  and  CD_739
REMARK  215  A    between atoms: CD_739  and  NE_740
REMARK  216  A    between atoms: N_757  and  CA_758
REMARK  217  A    between atoms: CA_758  and  C_759
REMARK  218  A    between atoms: CA_758  and  CB_761
REMARK  219  A    between atoms: CB_761  and  CG_762
REMARK  220  A    between atoms: CG_762  and  CD_763
REMARK  221  A    between atoms: CD_763  and  NE_764
REMARK  222  A    between atoms: N_781  and  CA_782
REMARK  223  A    between atoms: CA_782  and  C_783
REMARK  224  A    between atoms: CA_782  and  CB_785
REMARK  225  A    between atoms: CB_785  and  CG_786
REMARK  226  A    between atoms: CG_786  and  CD_787
REMARK  227  A    between atoms: CD_787  and  NE_788
REMARK                            x       y       z     vdW  Elec       q    Type
REMARK                         _______ _______ _______ _____ _____    ______ ____
ROOT
ATOM      1  CA  VAL A  26      27.894 -19.177   2.374  0.00  0.00    +0.000 C 
ENDROOT
BRANCH   1   4
ATOM      2  C   PRO A  25      28.038 -18.270   4.623  0.00  0.00    +0.000 C 
ATOM      3  O   PRO A  25      26.826 -18.184   4.639  0.00  0.00    +0.000 OA
ATOM      4  N   VAL A  26      28.668 -18.741   3.577  0.00  0.00    +0.000 N 
ATOM      5  H   VAL A  26      29.645 -18.811   3.582  0.00  0.00    +0.000 HD
BRANCH   2   9
ATOM      6  C   GLY A  24      28.493 -15.438   5.791  0.00  0.00    +0.000 C 
ATOM      7  O   GLY A  24      28.964 -15.376   4.671  0.00  0.00    +0.000 OA
ATOM      8  N   PRO A  25      28.405 -16.575   6.436  0.00  0.00    +0.000 N 
ATOM      9  CA  PRO A  25      28.875 -17.858   5.845  0.00  0.00    +0.000 C 
ATOM     10  CB  PRO A  25      28.704 -18.898   6.972  0.00  0.00    +0.000 C 
ATOM     11  CG  PRO A  25      28.278 -18.151   8.205  0.00  0.00    +0.000 C 
ATOM     12  CD  PRO A  25      27.849 -16.748   7.782  0.00  0.00    +0.000 C 
BRANCH   6  13
ATOM     13  CA  GLY A  24      27.989 -14.174   6.498  0.00  0.00    +0.000 C 
BRANCH  13  16
ATOM     14  C   HIS A  23      28.042 -12.113   5.214  0.00  0.00    +0.000 C 
ATOM     15  O   HIS A  23      29.068 -11.769   5.772  0.00  0.00    +0.000 OA
ATOM     16  N   GLY A  24      27.444 -13.238   5.483  0.00  0.00    +0.000 N 
ATOM     17  H   GLY A  24      26.628 -13.471   4.999  0.00  0.00    +0.000 HD
BRANCH  14  18
ATOM     18  CA  HIS A  23      27.378 -11.254   4.143  0.00  0.00    +0.000 C 
BRANCH  18  21
ATOM     19  C   PRO A  22      27.116  -8.898   3.704  0.00  0.00    +0.000 C 
ATOM     20  O   PRO A  22      26.035  -9.139   3.197  0.00  0.00    +0.000 OA
ATOM     21  N   HIS A  23      27.861  -9.852   4.202  0.00  0.00    +0.000 N 
ATOM     22  H   HIS A  23      28.726  -9.643   4.615  0.00  0.00    +0.000 HD
BRANCH  19  26
ATOM     23  C   ILE A  21      27.790  -7.115   1.367  0.00  0.00    +0.000 C 
ATOM     24  O   ILE A  21      28.390  -8.166   1.247  0.00  0.00    +0.000 OA
ATOM     25  N   PRO A  22      27.388  -6.688   2.544  0.00  0.00    +0.000 N 
ATOM     26  CA  PRO A  22      27.638  -7.462   3.797  0.00  0.00    +0.000 C 
ATOM     27  CB  PRO A  22      26.855  -6.703   4.880  0.00  0.00    +0.000 C 
ATOM     28  CG  PRO A  22      26.571  -5.343   4.327  0.00  0.00    +0.000 C 
ATOM     29  CD  PRO A  22      26.672  -5.430   2.806  0.00  0.00    +0.000 C 
BRANCH  23  30
ATOM     30  CA  ILE A  21      27.492  -6.248   0.126  0.00  0.00    +0.000 C 
BRANCH  30  33
ATOM     31  C   ASN A  20      29.178  -4.538  -0.267  0.00  0.00    +0.000 C 
ATOM     32  O   ASN A  20      28.512  -3.754   0.379  0.00  0.00    +0.000 OA
ATOM     33  N   ILE A  21      28.783  -5.775  -0.459  0.00  0.00    +0.000 N 
ATOM     34  H   ILE A  21      29.326  -6.395  -0.990  0.00  0.00    +0.000 HD
BRANCH  31  35
ATOM     35  CA  ASN A  20      30.505  -4.108  -0.895  0.00  0.00    +0.000 C 
BRANCH  35  38
ATOM     36  C   TYR A  19      29.634  -4.181  -3.153  0.00  0.00    +0.000 C 
ATOM     37  O   TYR A  19      28.735  -3.436  -2.816  0.00  0.00    +0.000 OA
ATOM     38  N   ASN A  20      30.550  -4.571  -2.307  0.00  0.00    +0.000 N 
ATOM     39  H   ASN A  20      31.253  -5.186  -2.595  0.00  0.00    +0.000 HD
BRANCH  36  40
ATOM     40  CA  TYR A  19      29.739  -4.692  -4.588  0.00  0.00    +0.000 C 
BRANCH  40  43
ATOM     41  C   ARG A  18      32.054  -5.151  -5.000  0.00  0.00    +0.000 C 
ATOM     42  O   ARG A  18      32.210  -3.959  -5.180  0.00  0.00    +0.000 OA
ATOM     43  N   TYR A  19      30.885  -5.631  -4.705  0.00  0.00    +0.000 N 
ATOM     44  H   TYR A  19      30.752  -6.602  -4.576  0.00  0.00    +0.000 HD
BRANCH  41  45
ATOM     45  CA  ARG A  18      33.213  -6.124  -5.146  0.00  0.00    +0.000 C 
BRANCH  45  48
ATOM     46  C   ARG A  17      33.007  -6.837  -2.851  0.00  0.00    +0.000 C 
ATOM     47  O   ARG A  17      32.961  -5.672  -2.518  0.00  0.00    +0.000 OA
ATOM     48  N   ARG A  18      33.118  -7.175  -4.102  0.00  0.00    +0.000 N 
ATOM     49  H   ARG A  18      33.131  -8.119  -4.366  0.00  0.00    +0.000 HD
BRANCH  46  50
ATOM     50  CA  ARG A  17      32.913  -7.964  -1.821  0.00  0.00    +0.000 C 
BRANCH  50  53
ATOM     51  C   LEU A  16      30.681  -8.633  -2.430  0.00  0.00    +0.000 C 
ATOM     52  O   LEU A  16      30.289  -7.501  -2.228  0.00  0.00    +0.000 OA
ATOM     53  N   ARG A  17      31.920  -8.967  -2.266  0.00  0.00    +0.000 N 
ATOM     54  H   ARG A  17      32.202  -9.890  -2.434  0.00  0.00    +0.000 HD
BRANCH  51  55
ATOM     55  CA  LEU A  16      29.746  -9.737  -2.878  0.00  0.00    +0.000 C 
BRANCH  55  58
ATOM     56  C   LEU A  15      30.930 -10.078  -4.961  0.00  0.00    +0.000 C 
ATOM     57  O   LEU A  15      30.767  -8.896  -5.227  0.00  0.00    +0.000 OA
ATOM     58  N   LEU A  16      30.481 -10.592  -3.850  0.00  0.00    +0.000 N 
ATOM     59  H   LEU A  16      30.630 -11.541  -3.653  0.00  0.00    +0.000 HD
BRANCH  56  60
ATOM     60  CA  LEU A  15      31.681 -11.016  -5.915  0.00  0.00    +0.000 C 
BRANCH  60  63
ATOM     61  C   THR A  14      33.724 -11.309  -4.630  0.00  0.00    +0.000 C 
ATOM     62  O   THR A  14      33.924 -10.118  -4.724  0.00  0.00    +0.000 OA
ATOM     63  N   LEU A  15      32.666 -11.860  -5.168  0.00  0.00    +0.000 N 
ATOM     64  H   LEU A  15      32.519 -12.824  -5.080  0.00  0.00    +0.000 HD
BRANCH  61  65
ATOM     65  CA  THR A  14      34.711 -12.216  -3.880  0.00  0.00    +0.000 C 
BRANCH  65  68
ATOM     66  C   THR A  13      33.083 -13.125  -2.355  0.00  0.00    +0.000 C 
ATOM     67  O   THR A  13      32.852 -11.990  -1.984  0.00  0.00    +0.000 OA
ATOM     68  N   THR A  14      33.975 -13.360  -3.279  0.00  0.00    +0.000 N 
ATOM     69  H   THR A  14      34.162 -14.277  -3.571  0.00  0.00    +0.000 HD
BRANCH  66  70
ATOM     70  CA  THR A  13      32.343 -14.316  -1.744  0.00  0.00    +0.000 C 
BRANCH  70  73
ATOM     71  C   LEU A  12      31.076 -14.874  -3.748  0.00  0.00    +0.000 C 
ATOM     72  O   LEU A  12      30.645 -13.739  -3.785  0.00  0.00    +0.000 OA
ATOM     73  N   THR A  13      31.904 -15.261  -2.815  0.00  0.00    +0.000 N 
ATOM     74  H   THR A  13      32.235 -16.182  -2.809  0.00  0.00    +0.000 HD
BRANCH  71  75
ATOM     75  CA  LEU A  12      30.666 -15.919  -4.793  0.00  0.00    +0.000 C 
BRANCH  75  78
ATOM     76  C   GLU A  11      32.811 -16.067  -5.835  0.00  0.00    +0.000 C 
ATOM     77  O   GLU A  11      32.707 -14.893  -6.075  0.00  0.00    +0.000 OA
ATOM     78  N   LEU A  12      31.867 -16.684  -5.218  0.00  0.00    +0.000 N 
ATOM     79  H   LEU A  12      31.943 -17.638  -5.034  0.00  0.00    +0.000 HD
BRANCH  76  80
ATOM     80  CA  GLU A  11      34.041 -16.870  -6.262  0.00  0.00    +0.000 C 
BRANCH  80  83
ATOM     81  C   THR A  10      34.839 -17.544  -4.081  0.00  0.00    +0.000 C 
ATOM     82  O   THR A  10      35.041 -16.377  -3.820  0.00  0.00    +0.000 OA
ATOM     83  N   GLU A  11      34.357 -17.903  -5.234  0.00  0.00    +0.000 N 
ATOM     84  H   GLU A  11      34.196 -18.848  -5.422  0.00  0.00    +0.000 HD
BRANCH  81  85
ATOM     85  CA  THR A  10      35.147 -18.650  -3.069  0.00  0.00    +0.000 C 
BRANCH  85  88
ATOM     86  C   ASP A   9      32.840 -19.268  -2.716  0.00  0.00    +0.000 C 
ATOM     87  O   ASP A   9      32.608 -18.117  -2.413  0.00  0.00    +0.000 OA
ATOM     88  N   THR A  10      34.038 -19.644  -3.056  0.00  0.00    +0.000 N 
ATOM     89  H   THR A  10      34.210 -20.576  -3.296  0.00  0.00    +0.000 HD
BRANCH  86  90
ATOM     90  CA  ASP A   9      31.733 -20.324  -2.704  0.00  0.00    +0.000 C 
BRANCH  90  93
ATOM     91  C   SER A   8      31.867 -20.624  -5.121  0.00  0.00    +0.000 C 
ATOM     92  O   SER A   8      31.850 -19.423  -5.252  0.00  0.00    +0.000 OA
ATOM     93  N   ASP A   9      31.802 -21.175  -3.937  0.00  0.00    +0.000 N 
ATOM     94  H   ASP A   9      31.775 -22.155  -3.859  0.00  0.00    +0.000 HD
BRANCH  91  95
ATOM     95  CA  SER A   8      31.909 -21.553  -6.345  0.00  0.00    +0.000 C 
BRANCH  95  98
ATOM     96  C   LEU A   7      30.179 -20.695  -7.812  0.00  0.00    +0.000 C 
ATOM     97  O   LEU A   7      29.341 -21.186  -7.078  0.00  0.00    +0.000 OA
ATOM     98  N   SER A   8      31.450 -20.808  -7.557  0.00  0.00    +0.000 N 
ATOM     99  H   SER A   8      32.097 -20.393  -8.161  0.00  0.00    +0.000 HD
BRANCH  96 100
ATOM    100  CA  LEU A   7      29.784 -19.913  -9.069  0.00  0.00    +0.000 C 
BRANCH 100 103
ATOM    101  C   ASP A   6      28.802 -21.676 -10.390  0.00  0.00    +0.000 C 
ATOM    102  O   ASP A   6      29.908 -22.164 -10.530  0.00  0.00    +0.000 OA
ATOM    103  N   LEU A   7      28.623 -20.587  -9.701  0.00  0.00    +0.000 N 
ATOM    104  H   LEU A   7      27.728 -20.219  -9.597  0.00  0.00    +0.000 HD
BRANCH 101 105
ATOM    105  CA  ASP A   6      27.561 -22.326 -11.006  0.00  0.00    +0.000 C 
BRANCH 105 108
ATOM    106  C   ALA A   5      25.881 -21.945  -9.318  0.00  0.00    +0.000 C 
ATOM    107  O   ALA A   5      26.444 -22.782  -8.643  0.00  0.00    +0.000 OA
ATOM    108  N   ASP A   6      26.332 -21.637 -10.502  0.00  0.00    +0.000 N 
ATOM    109  H   ASP A   6      25.863 -20.975 -11.063  0.00  0.00    +0.000 HD
BRANCH 106 110
ATOM    110  CA  ALA A   5      24.621 -21.239  -8.812  0.00  0.00    +0.000 C 
ATOM    111  CB  ALA A   5      23.414 -22.143  -8.997  0.00  0.00    +0.000 C 
BRANCH 110 114
ATOM    112  C   TYR A   4      25.200 -18.955  -9.317  0.00  0.00    +0.000 C 
ATOM    113  O   TYR A   4      26.088 -19.044  -8.498  0.00  0.00    +0.000 OA
ATOM    114  N   ALA A   5      24.416 -19.966  -9.561  0.00  0.00    +0.000 N 
ATOM    115  H   ALA A   5      23.700 -19.890 -10.229  0.00  0.00    +0.000 HD
BRANCH 112 116
ATOM    116  CA  TYR A   4      24.976 -17.657 -10.098  0.00  0.00    +0.000 C 
BRANCH 116 119
ATOM    117  C   ASN A   3      24.692 -18.535 -12.322  0.00  0.00    +0.000 C 
ATOM    118  O   ASN A   3      25.848 -18.904 -12.298  0.00  0.00    +0.000 OA
ATOM    119  N   TYR A   4      24.156 -17.931 -11.303  0.00  0.00    +0.000 N 
ATOM    120  H   TYR A   4      23.216 -17.642 -11.336  0.00  0.00    +0.000 HD
BRANCH 117 121
ATOM    121  CA  ASN A   3      23.802 -18.785 -13.540  0.00  0.00    +0.000 C 
BRANCH 121 124
ATOM    122  C   ASP A   2      22.619 -20.423 -12.207  0.00  0.00    +0.000 C 
ATOM    123  O   ASP A   2      23.684 -20.777 -11.738  0.00  0.00    +0.000 OA
ATOM    124  N   ASN A   3      22.554 -19.467 -13.090  0.00  0.00    +0.000 N 
ATOM    125  H   ASN A   3      21.694 -19.207 -13.477  0.00  0.00    +0.000 HD
BRANCH 122 126
ATOM    126  CA  ASP A   2      21.310 -21.103 -11.798  0.00  0.00    +0.000 C 
BRANCH 126 129
ATOM    127  C   HIS A   1      21.817 -23.376 -12.459  0.00  0.00    +0.000 C 
ATOM    128  O   HIS A   1      21.815 -23.034 -13.624  0.00  0.00    +0.000 OA
ATOM    129  N   ASP A   2      21.591 -22.535 -11.499  0.00  0.00    +0.000 N 
ATOM    130  H   ASP A   2      21.674 -22.850 -10.576  0.00  0.00    +0.000 HD
BRANCH 127 131
ATOM    131  CA  HIS A   1      22.142 -24.816 -12.040  0.00  0.00    +0.000 C 
BRANCH 131 132
ATOM    132  N   HIS A   1      22.864 -24.796 -10.728  0.00  0.00    +0.000 N 
ATOM    133  H   HIS A   1      22.646 -23.912 -10.224  0.00  0.00    +0.000 HD
ATOM    134  H2  HIS A   1      23.889 -24.855 -10.897  0.00  0.00    +0.000 HD
ATOM    135  H3  HIS A   1      22.568 -25.602 -10.153  0.00  0.00    +0.000 HD
ENDBRANCH 131 132
BRANCH 131 136
ATOM    136  CB  HIS A   1      20.820 -25.615 -11.936  0.00  0.00    +0.000 C 
BRANCH 136 137
ATOM    137  CG  HIS A   1      20.707 -26.362 -10.627  0.00  0.00    +0.000 C 
ATOM    138  ND1 HIS A   1      21.157 -25.850  -9.415  0.00  0.00    +0.000 N 
ATOM    139  CD2 HIS A   1      20.161 -27.587 -10.333  0.00  0.00    +0.000 C 
ATOM    140  CE1 HIS A   1      20.877 -26.759  -8.462  0.00  0.00    +0.000 C 
ATOM    141  NE2 HIS A   1      20.270 -27.832  -8.971  0.00  0.00    +0.000 N 
ATOM    142  HD1 HIS A   1      21.604 -24.989  -9.279  0.00  0.00    +0.000 HD
ATOM    143  HE2 HIS A   1      19.962 -28.625  -8.486  0.00  0.00    +0.000 HD
ENDBRANCH 136 137
ENDBRANCH 131 136
ENDBRANCH 127 131
ENDBRANCH 126 129
BRANCH 126 144
ATOM    144  CB  ASP A   2      20.721 -20.400 -10.572  0.00  0.00    +0.000 C 
BRANCH 144 145
ATOM    145  CG  ASP A   2      19.211 -20.629 -10.537  0.00  0.00    +0.000 C 
ATOM    146  OD1 ASP A   2      18.743 -21.459 -11.300  0.00  0.00    +0.000 OA
ATOM    147  OD2 ASP A   2      18.548 -19.965  -9.760  0.00  0.00    +0.000 OA
ENDBRANCH 144 145
ENDBRANCH 126 144
ENDBRANCH 122 126
ENDBRANCH 121 124
BRANCH 121 148
ATOM    148  CB  ASN A   3      23.429 -17.444 -14.211  0.00  0.00    +0.000 C 
BRANCH 148 149
ATOM    149  CG  ASN A   3      23.809 -17.454 -15.701  0.00  0.00    +0.000 C 
ATOM    150  OD1 ASN A   3      24.570 -18.290 -16.145  0.00  0.00    +0.000 OA
ATOM    151  ND2 ASN A   3      23.312 -16.545 -16.494  0.00  0.00    +0.000 N 
ATOM    152 HD21 ASN A   3      22.703 -15.865 -16.140  0.00  0.00    +0.000 HD
ATOM    153 HD22 ASN A   3      23.549 -16.545 -17.444  0.00  0.00    +0.000 HD
ENDBRANCH 148 149
ENDBRANCH 121 148
ENDBRANCH 117 121
ENDBRANCH 116 119
BRANCH 116 154
ATOM    154  CB  TYR A   4      24.249 -16.639  -9.222  0.00  0.00    +0.000 C 
BRANCH 154 155
ATOM    155  CG  TYR A   4      24.105 -15.357 -10.002  0.00  0.00    +0.000 A 
ATOM    156  CD1 TYR A   4      23.060 -15.216 -10.923  0.00  0.00    +0.000 A 
ATOM    157  CD2 TYR A   4      25.017 -14.314  -9.812  0.00  0.00    +0.000 A 
ATOM    158  CE1 TYR A   4      22.930 -14.031 -11.657  0.00  0.00    +0.000 A 
ATOM    159  CE2 TYR A   4      24.886 -13.128 -10.544  0.00  0.00    +0.000 A 
ATOM    160  CZ  TYR A   4      23.842 -12.987 -11.467  0.00  0.00    +0.000 A 
BRANCH 160 161
ATOM    161  OH  TYR A   4      23.714 -11.819 -12.191  0.00  0.00    +0.000 OA
ATOM    162  HH  TYR A   4      23.762 -11.083 -11.576  0.00  0.00    +0.000 HD
ENDBRANCH 160 161
ENDBRANCH 154 155
ENDBRANCH 116 154
ENDBRANCH 112 116
ENDBRANCH 110 114
ENDBRANCH 106 110
ENDBRANCH 105 108
BRANCH 105 163
ATOM    163  CB  ASP A   6      27.640 -22.217 -12.527  0.00  0.00    +0.000 C 
BRANCH 163 164
ATOM    164  CG  ASP A   6      26.510 -23.033 -13.152  0.00  0.00    +0.000 C 
ATOM    165  OD1 ASP A   6      25.933 -23.846 -12.448  0.00  0.00    +0.000 OA
ATOM    166  OD2 ASP A   6      26.238 -22.829 -14.322  0.00  0.00    +0.000 OA
ENDBRANCH 163 164
ENDBRANCH 105 163
ENDBRANCH 101 105
ENDBRANCH 100 103
BRANCH 100 167
ATOM    167  CB  LEU A   7      29.390 -18.475  -8.704  0.00  0.00    +0.000 C 
BRANCH 167 168
ATOM    168  CG  LEU A   7      28.827 -17.754  -9.942  0.00  0.00    +0.000 C 
ATOM    169  CD1 LEU A   7      28.348 -16.357  -9.544  0.00  0.00    +0.000 C 
ATOM    170  CD2 LEU A   7      29.911 -17.617 -11.018  0.00  0.00    +0.000 C 
ENDBRANCH 167 168
ENDBRANCH 100 167
ENDBRANCH  96 100
ENDBRANCH  95  98
BRANCH  95 171
ATOM    171  CB  SER A   8      33.335 -22.064  -6.577  0.00  0.00    +0.000 C 
BRANCH 171 172
ATOM    172  OG  SER A   8      34.011 -22.145  -5.337  0.00  0.00    +0.000 OA
ATOM    173  HG  SER A   8      34.596 -21.383  -5.267  0.00  0.00    +0.000 HD
ENDBRANCH 171 172
ENDBRANCH  95 171
ENDBRANCH  91  95
ENDBRANCH  90  93
BRANCH  90 174
ATOM    174  CB  ASP A   9      31.919 -21.207  -1.466  0.00  0.00    +0.000 C 
BRANCH 174 175
ATOM    175  CG  ASP A   9      30.573 -21.775  -1.013  0.00  0.00    +0.000 C 
ATOM    176  OD1 ASP A   9      29.653 -21.779  -1.812  0.00  0.00    +0.000 OA
ATOM    177  OD2 ASP A   9      30.487 -22.184   0.133  0.00  0.00    +0.000 OA
ENDBRANCH 174 175
ENDBRANCH  90 174
ENDBRANCH  86  90
ENDBRANCH  85  88
BRANCH  85 178
ATOM    178  CB  THR A  10      36.460 -19.342  -3.444  0.00  0.00    +0.000 C 
ATOM    179  CG2 THR A  10      37.618 -18.360  -3.269  0.00  0.00    +0.000 C 
BRANCH 178 180
ATOM    180  OG1 THR A  10      36.656 -20.472  -2.604  0.00  0.00    +0.000 OA
ATOM    181  HG1 THR A  10      35.809 -20.707  -2.218  0.00  0.00    +0.000 HD
ENDBRANCH 178 180
ENDBRANCH  85 178
ENDBRANCH  81  85
ENDBRANCH  80  83
BRANCH  80 182
ATOM    182  CB  GLU A  11      33.785 -17.542  -7.610  0.00  0.00    +0.000 C 
BRANCH 182 183
ATOM    183  CG  GLU A  11      35.025 -18.350  -8.014  0.00  0.00    +0.000 C 
BRANCH 183 184
ATOM    184  CD  GLU A  11      35.131 -18.424  -9.540  0.00  0.00    +0.000 C 
ATOM    185  OE1 GLU A  11      34.237 -17.927 -10.205  0.00  0.00    +0.000 OA
ATOM    186  OE2 GLU A  11      36.112 -18.969 -10.017  0.00  0.00    +0.000 OA
ENDBRANCH 183 184
ENDBRANCH 182 183
ENDBRANCH  80 182
ENDBRANCH  76  80
ENDBRANCH  75  78
BRANCH  75 187
ATOM    187  CB  LEU A  12      29.641 -16.883  -4.191  0.00  0.00    +0.000 C 
BRANCH 187 188
ATOM    188  CG  LEU A  12      28.248 -16.241  -4.154  0.00  0.00    +0.000 C 
ATOM    189  CD1 LEU A  12      27.594 -16.352  -5.537  0.00  0.00    +0.000 C 
ATOM    190  CD2 LEU A  12      27.376 -16.967  -3.110  0.00  0.00    +0.000 C 
ENDBRANCH 187 188
ENDBRANCH  75 187
ENDBRANCH  71  75
ENDBRANCH  70  73
BRANCH  70 191
ATOM    191  CB  THR A  13      33.283 -15.053  -0.787  0.00  0.00    +0.000 C 
ATOM    192  CG2 THR A  13      33.709 -14.112   0.341  0.00  0.00    +0.000 C 
BRANCH 191 193
ATOM    193  OG1 THR A  13      32.602 -16.166  -0.231  0.00  0.00    +0.000 OA
ATOM    194  HG1 THR A  13      31.893 -16.410  -0.830  0.00  0.00    +0.000 HD
ENDBRANCH 191 193
ENDBRANCH  70 191
ENDBRANCH  66  70
ENDBRANCH  65  68
BRANCH  65 195
ATOM    195  CB  THR A  14      35.805 -12.726  -4.838  0.00  0.00    +0.000 C 
ATOM    196  CG2 THR A  14      35.186 -13.205  -6.149  0.00  0.00    +0.000 C 
BRANCH 195 197
ATOM    197  OG1 THR A  14      36.709 -11.668  -5.114  0.00  0.00    +0.000 OA
ATOM    198  HG1 THR A  14      36.204 -10.952  -5.510  0.00  0.00    +0.000 HD
ENDBRANCH 195 197
ENDBRANCH  65 195
ENDBRANCH  61  65
ENDBRANCH  60  63
BRANCH  60 199
ATOM    199  CB  LEU A  15      30.668 -11.918  -6.622  0.00  0.00    +0.000 C 
BRANCH 199 200
ATOM    200  CG  LEU A  15      31.316 -12.565  -7.856  0.00  0.00    +0.000 C 
ATOM    201  CD1 LEU A  15      30.420 -13.706  -8.386  0.00  0.00    +0.000 C 
ATOM    202  CD2 LEU A  15      31.537 -11.503  -8.961  0.00  0.00    +0.000 C 
ENDBRANCH 199 200
ENDBRANCH  60 199
ENDBRANCH  56  60
ENDBRANCH  55  58
BRANCH  55 203
ATOM    203  CB  LEU A  16      29.330 -10.576  -1.662  0.00  0.00    +0.000 C 
BRANCH 203 204
ATOM    204  CG  LEU A  16      28.194 -11.536  -2.034  0.00  0.00    +0.000 C 
ATOM    205  CD1 LEU A  16      28.020 -12.564  -0.915  0.00  0.00    +0.000 C 
ATOM    206  CD2 LEU A  16      26.881 -10.756  -2.181  0.00  0.00    +0.000 C 
ENDBRANCH 203 204
ENDBRANCH  55 203
ENDBRANCH  51  55
ENDBRANCH  50  53
BRANCH  50 207
ATOM    207  CB  ARG A  17      34.280  -8.653  -1.691  0.00  0.00    +0.000 C 
BRANCH 207 208
ATOM    208  CG  ARG A  17      34.822  -8.462  -0.279  0.00  0.00    +0.000 C 
BRANCH 208 209
ATOM    209  CD  ARG A  17      36.294  -8.862  -0.221  0.00  0.00    +0.000 C 
BRANCH 209 210
ATOM    210  NE  ARG A  17      36.494  -9.597   1.063  0.00  0.00    +0.000 N 
ATOM    211  CZ  ARG A  17      37.683  -9.905   1.480  0.00  0.00    +0.000 C 
ATOM    212  NH1 ARG A  17      38.732  -9.431   0.866  0.00  0.00    +0.000 N 
ATOM    213  NH2 ARG A  17      37.825 -10.656   2.536  0.00  0.00    +0.000 N 
ATOM    214  HE  ARG A  17      35.713  -9.900   1.570  0.00  0.00    +0.000 HD
ATOM    215 HH11 ARG A  17      38.618  -8.832   0.072  0.00  0.00    +0.000 HD
ATOM    216 HH12 ARG A  17      39.648  -9.656   1.194  0.00  0.00    +0.000 HD
ATOM    217 HH21 ARG A  17      37.018 -10.995   3.019  0.00  0.00    +0.000 HD
ATOM    218 HH22 ARG A  17      38.740 -10.887   2.865  0.00  0.00    +0.000 HD
ENDBRANCH 209 210
ENDBRANCH 208 209
ENDBRANCH 207 208
ENDBRANCH  50 207
ENDBRANCH  46  50
ENDBRANCH  45  48
BRANCH  45 219
ATOM    219  CB  ARG A  18      33.147  -6.771  -6.532  0.00  0.00    +0.000 C 
BRANCH 219 220
ATOM    220  CG  ARG A  18      33.061  -5.678  -7.611  0.00  0.00    +0.000 C 
BRANCH 220 221
ATOM    221  CD  ARG A  18      32.970  -6.306  -9.007  0.00  0.00    +0.000 C 
BRANCH 221 222
ATOM    222  NE  ARG A  18      34.063  -5.746  -9.848  0.00  0.00    +0.000 N 
ATOM    223  CZ  ARG A  18      34.270  -6.213 -11.043  0.00  0.00    +0.000 C 
ATOM    224  NH1 ARG A  18      33.481  -7.133 -11.526  0.00  0.00    +0.000 N 
ATOM    225  NH2 ARG A  18      35.253  -5.748 -11.762  0.00  0.00    +0.000 N 
ATOM    226  HE  ARG A  18      34.637  -5.035  -9.493  0.00  0.00    +0.000 HD
ATOM    227 HH11 ARG A  18      32.719  -7.476 -10.977  0.00  0.00    +0.000 HD
ATOM    228 HH12 ARG A  18      33.636  -7.492 -12.446  0.00  0.00    +0.000 HD
ATOM    229 HH21 ARG A  18      35.846  -5.033 -11.394  0.00  0.00    +0.000 HD
ATOM    230 HH22 ARG A  18      35.411  -6.106 -12.682  0.00  0.00    +0.000 HD
ENDBRANCH 221 222
ENDBRANCH 220 221
ENDBRANCH 219 220
ENDBRANCH  45 219
ENDBRANCH  41  45
ENDBRANCH  40  43
BRANCH  40 231
ATOM    231  CB  TYR A  19      28.458  -5.424  -4.982  0.00  0.00    +0.000 C 
BRANCH 231 232
ATOM    232  CG  TYR A  19      28.723  -6.234  -6.229  0.00  0.00    +0.000 A 
ATOM    233  CD1 TYR A  19      29.156  -5.596  -7.398  0.00  0.00    +0.000 A 
ATOM    234  CD2 TYR A  19      28.534  -7.620  -6.219  0.00  0.00    +0.000 A 
ATOM    235  CE1 TYR A  19      29.408  -6.345  -8.554  0.00  0.00    +0.000 A 
ATOM    236  CE2 TYR A  19      28.787  -8.369  -7.374  0.00  0.00    +0.000 A 
ATOM    237  CZ  TYR A  19      29.217  -7.731  -8.543  0.00  0.00    +0.000 A 
BRANCH 237 238
ATOM    238  OH  TYR A  19      29.466  -8.471  -9.682  0.00  0.00    +0.000 OA
ATOM    239  HH  TYR A  19      28.621  -8.715 -10.066  0.00  0.00    +0.000 HD
ENDBRANCH 237 238
ENDBRANCH 231 232
ENDBRANCH  40 231
ENDBRANCH  36  40
ENDBRANCH  35  38
BRANCH  35 240
ATOM    240  CB  ASN A  20      30.629  -2.577  -0.853  0.00  0.00    +0.000 C 
BRANCH 240 241
ATOM    241  CG  ASN A  20      31.839  -2.147  -1.682  0.00  0.00    +0.000 C 
ATOM    242  OD1 ASN A  20      31.898  -1.032  -2.165  0.00  0.00    +0.000 OA
ATOM    243  ND2 ASN A  20      32.814  -2.992  -1.870  0.00  0.00    +0.000 N 
ATOM    244 HD21 ASN A  20      32.764  -3.890  -1.481  0.00  0.00    +0.000 HD
ATOM    245 HD22 ASN A  20      33.595  -2.731  -2.402  0.00  0.00    +0.000 HD
ENDBRANCH 240 241
ENDBRANCH  35 240
ENDBRANCH  31  35
ENDBRANCH  30  33
BRANCH  30 246
ATOM    246  CB  ILE A  21      26.737  -7.089  -0.907  0.00  0.00    +0.000 C 
ATOM    247  CG2 ILE A  21      25.605  -7.840  -0.205  0.00  0.00    +0.000 C 
BRANCH 246 248
ATOM    248  CG1 ILE A  21      26.135  -6.162  -1.969  0.00  0.00    +0.000 C 
ATOM    249  CD1 ILE A  21      25.662  -6.962  -3.191  0.00  0.00    +0.000 C 
ENDBRANCH 246 248
ENDBRANCH  30 246
ENDBRANCH  23  30
ENDBRANCH  19  26
ENDBRANCH  18  21
BRANCH  18 250
ATOM    250  CB  HIS A  23      27.671 -11.839   2.773  0.00  0.00    +0.000 C 
BRANCH 250 251
ATOM    251  CG  HIS A  23      29.122 -11.639   2.427  0.00  0.00    +0.000 C 
ATOM    252  ND1 HIS A  23      29.602 -10.453   1.885  0.00  0.00    +0.000 N 
ATOM    253  CD2 HIS A  23      30.212 -12.467   2.539  0.00  0.00    +0.000 C 
ATOM    254  CE1 HIS A  23      30.927 -10.602   1.694  0.00  0.00    +0.000 C 
ATOM    255  NE2 HIS A  23      31.345 -11.809   2.076  0.00  0.00    +0.000 N 
ATOM    256  HD1 HIS A  23      29.073  -9.656   1.674  0.00  0.00    +0.000 HD
ATOM    257  HE2 HIS A  23      32.261 -12.158   2.043  0.00  0.00    +0.000 HD
ENDBRANCH 250 251
ENDBRANCH  18 250
ENDBRANCH  14  18
ENDBRANCH  13  16
ENDBRANCH   6  13
ENDBRANCH   2   9
ENDBRANCH   1   4
BRANCH   1 258
ATOM    258  C   VAL A  26      27.673 -20.697   2.435  0.00  0.00    +0.000 C 
ATOM    259  O   VAL A  26      28.610 -21.468   2.458  0.00  0.00    +0.000 OA
ATOM    260  N   VAL A  27      26.437 -21.128   2.471  0.00  0.00    +0.000 N 
ATOM    261  H   VAL A  27      25.700 -20.480   2.466  0.00  0.00    +0.000 HD
BRANCH 260 262
ATOM    262  CA  VAL A  27      26.143 -22.590   2.536  0.00  0.00    +0.000 C 
BRANCH 262 263
ATOM    263  C   VAL A  27      24.890 -22.873   1.695  0.00  0.00    +0.000 C 
ATOM    264  O   VAL A  27      24.006 -22.051   1.592  0.00  0.00    +0.000 OA
ATOM    265  N   GLY A  28      24.807 -24.031   1.096  0.00  0.00    +0.000 N 
ATOM    266  H   GLY A  28      25.540 -24.677   1.189  0.00  0.00    +0.000 HD
BRANCH 265 267
ATOM    267  CA  GLY A  28      23.609 -24.363   0.268  0.00  0.00    +0.000 C 
BRANCH 267 268
ATOM    268  C   GLY A  28      22.331 -23.914   0.994  0.00  0.00    +0.000 C 
ATOM    269  O   GLY A  28      21.371 -23.491   0.378  0.00  0.00    +0.000 OA
ATOM    270  N   SER A  29      22.307 -24.011   2.297  0.00  0.00    +0.000 N 
ATOM    271  H   SER A  29      23.090 -24.358   2.773  0.00  0.00    +0.000 HD
BRANCH 270 272
ATOM    272  CA  SER A  29      21.096 -23.594   3.065  0.00  0.00    +0.000 C 
BRANCH 272 273
ATOM    273  C   SER A  29      20.831 -22.092   2.886  0.00  0.00    +0.000 C 
ATOM    274  O   SER A  29      19.694 -21.668   2.832  0.00  0.00    +0.000 OA
ATOM    275  N   THR A  30      21.862 -21.287   2.793  0.00  0.00    +0.000 N 
ATOM    276  H   THR A  30      22.772 -21.647   2.849  0.00  0.00    +0.000 HD
BRANCH 275 277
ATOM    277  CA  THR A  30      21.654 -19.813   2.625  0.00  0.00    +0.000 C 
BRANCH 277 278
ATOM    278  C   THR A  30      22.312 -19.353   1.321  0.00  0.00    +0.000 C 
ATOM    279  O   THR A  30      22.306 -18.186   0.984  0.00  0.00    +0.000 OA
ATOM    280  N   ARG A  31      22.872 -20.266   0.582  0.00  0.00    +0.000 N 
ATOM    281  H   ARG A  31      22.862 -21.210   0.863  0.00  0.00    +0.000 HD
BRANCH 280 282
ATOM    282  CA  ARG A  31      23.516 -19.880  -0.706  0.00  0.00    +0.000 C 
BRANCH 282 283
ATOM    283  C   ARG A  31      22.472 -19.245  -1.614  0.00  0.00    +0.000 C 
ATOM    284  O   ARG A  31      22.738 -18.273  -2.292  0.00  0.00    +0.000 OA
ATOM    285  N   ARG A  32      21.302 -19.809  -1.678  0.00  0.00    +0.000 N 
ATOM    286  H   ARG A  32      21.101 -20.606  -1.143  0.00  0.00    +0.000 HD
BRANCH 285 287
ATOM    287  CA  ARG A  32      20.274 -19.243  -2.586  0.00  0.00    +0.000 C 
BRANCH 287 288
ATOM    288  C   ARG A  32      19.999 -17.797  -2.221  0.00  0.00    +0.000 C 
ATOM    289  O   ARG A  32      19.908 -16.935  -3.075  0.00  0.00    +0.000 OA
ATOM    290  N   LEU A  33      19.849 -17.518  -0.968  0.00  0.00    +0.000 N 
ATOM    291  H   LEU A  33      19.911 -18.226  -0.293  0.00  0.00    +0.000 HD
BRANCH 290 292
ATOM    292  CA  LEU A  33      19.555 -16.128  -0.568  0.00  0.00    +0.000 C 
BRANCH 292 293
ATOM    293  C   LEU A  33      20.674 -15.237  -1.083  0.00  0.00    +0.000 C 
ATOM    294  O   LEU A  33      20.444 -14.136  -1.538  0.00  0.00    +0.000 OA
ATOM    295  N   TYR A  34      21.887 -15.709  -1.033  0.00  0.00    +0.000 N 
ATOM    296  H   TYR A  34      22.056 -16.611  -0.675  0.00  0.00    +0.000 HD
BRANCH 295 297
ATOM    297  CA  TYR A  34      23.019 -14.886  -1.543  0.00  0.00    +0.000 C 
BRANCH 297 298
ATOM    298  C   TYR A  34      22.936 -14.734  -3.064  0.00  0.00    +0.000 C 
ATOM    299  O   TYR A  34      23.229 -13.687  -3.608  0.00  0.00    +0.000 OA
ATOM    300  N   GLU A  35      22.541 -15.765  -3.758  0.00  0.00    +0.000 N 
ATOM    301  H   GLU A  35      22.306 -16.602  -3.304  0.00  0.00    +0.000 HD
BRANCH 300 302
ATOM    302  CA  GLU A  35      22.454 -15.663  -5.242  0.00  0.00    +0.000 C 
BRANCH 302 303
ATOM    303  C   GLU A  35      21.415 -14.612  -5.609  0.00  0.00    +0.000 C 
ATOM    304  O   GLU A  35      21.581 -13.862  -6.553  0.00  0.00    +0.000 OA
ATOM    305  N   LYS A  36      20.341 -14.548  -4.876  0.00  0.00    +0.000 N 
ATOM    306  H   LYS A  36      20.212 -15.146  -4.111  0.00  0.00    +0.000 HD
BRANCH 305 307
ATOM    307  CA  LYS A  36      19.294 -13.544  -5.187  0.00  0.00    +0.000 C 
BRANCH 307 308
ATOM    308  C   LYS A  36      19.821 -12.137  -4.900  0.00  0.00    +0.000 C 
ATOM    309  O   LYS A  36      19.537 -11.198  -5.618  0.00  0.00    +0.000 OA
ATOM    310  N   LYS A  37      20.569 -11.981  -3.839  0.00  0.00    +0.000 N 
ATOM    311  H   LYS A  37      20.770 -12.749  -3.264  0.00  0.00    +0.000 HD
BRANCH 310 312
ATOM    312  CA  LYS A  37      21.094 -10.631  -3.489  0.00  0.00    +0.000 C 
BRANCH 312 313
ATOM    313  C   LYS A  37      21.994 -10.105  -4.596  0.00  0.00    +0.000 C 
ATOM    314  O   LYS A  37      21.910  -8.954  -4.975  0.00  0.00    +0.000 OA
ATOM    315  N   ILE A  38      22.853 -10.922  -5.128  0.00  0.00    +0.000 N 
ATOM    316  H   ILE A  38      22.929 -11.856  -4.837  0.00  0.00    +0.000 HD
BRANCH 315 317
ATOM    317  CA  ILE A  38      23.743 -10.448  -6.211  0.00  0.00    +0.000 C 
BRANCH 317 318
ATOM    318  C   ILE A  38      22.903 -10.139  -7.446  0.00  0.00    +0.000 C 
ATOM    319  O   ILE A  38      23.168  -9.200  -8.168  0.00  0.00    +0.000 OA
ATOM    320  N   PHE A  39      21.884 -10.921  -7.687  0.00  0.00    +0.000 N 
ATOM    321  H   PHE A  39      21.677 -11.663  -7.080  0.00  0.00    +0.000 HD
BRANCH 320 322
ATOM    322  CA  PHE A  39      21.024 -10.677  -8.875  0.00  0.00    +0.000 C 
BRANCH 322 323
ATOM    323  C   PHE A  39      20.367  -9.297  -8.758  0.00  0.00    +0.000 C 
ATOM    324  O   PHE A  39      20.316  -8.537  -9.702  0.00  0.00    +0.000 OA
ATOM    325  N   GLU A  40      19.848  -8.979  -7.607  0.00  0.00    +0.000 N 
ATOM    326  H   GLU A  40      19.897  -9.624  -6.868  0.00  0.00    +0.000 HD
BRANCH 325 327
ATOM    327  CA  GLU A  40      19.171  -7.658  -7.433  0.00  0.00    +0.000 C 
BRANCH 327 328
ATOM    328  C   GLU A  40      20.167  -6.510  -7.665  0.00  0.00    +0.000 C 
ATOM    329  O   GLU A  40      19.859  -5.523  -8.311  0.00  0.00    +0.000 OA
ATOM    330  N   TYR A  41      21.362  -6.628  -7.158  0.00  0.00    +0.000 N 
ATOM    331  H   TYR A  41      21.608  -7.434  -6.661  0.00  0.00    +0.000 HD
BRANCH 330 332
ATOM    332  CA  TYR A  41      22.362  -5.539  -7.364  0.00  0.00    +0.000 C 
BRANCH 332 333
ATOM    333  C   TYR A  41      22.769  -5.494  -8.841  0.00  0.00    +0.000 C 
ATOM    334  O   TYR A  41      22.679  -4.468  -9.497  0.00  0.00    +0.000 OA
ATOM    335  N   GLU A  42      23.208  -6.608  -9.364  0.00  0.00    +0.000 N 
ATOM    336  H   GLU A  42      23.261  -7.413  -8.811  0.00  0.00    +0.000 HD
BRANCH 335 337
ATOM    337  CA  GLU A  42      23.631  -6.667 -10.791  0.00  0.00    +0.000 C 
BRANCH 337 338
ATOM    338  C   GLU A  42      22.490  -6.191 -11.670  0.00  0.00    +0.000 C 
ATOM    339  O   GLU A  42      22.707  -5.568 -12.695  0.00  0.00    +0.000 OA
ATOM    340  N   THR A  43      21.265  -6.448 -11.285  0.00  0.00    +0.000 N 
ATOM    341  H   THR A  43      21.061  -6.914 -10.450  0.00  0.00    +0.000 HD
BRANCH 340 342
ATOM    342  CA  THR A  43      20.122  -5.977 -12.101  0.00  0.00    +0.000 C 
BRANCH 342 343
ATOM    343  C   THR A  43      20.168  -4.460 -12.154  0.00  0.00    +0.000 C 
ATOM    344  O   THR A  43      19.991  -3.857 -13.199  0.00  0.00    +0.000 OA
ATOM    345  N   GLN A  44      20.412  -3.821 -11.038  0.00  0.00    +0.000 N 
ATOM    346  H   GLN A  44      20.558  -4.317 -10.195  0.00  0.00    +0.000 HD
BRANCH 345 347
ATOM    347  CA  GLN A  44      20.465  -2.340 -11.063  0.00  0.00    +0.000 C 
BRANCH 347 348
ATOM    348  C   GLN A  44      21.505  -1.880 -12.082  0.00  0.00    +0.000 C 
ATOM    349  O   GLN A  44      21.238  -1.024 -12.899  0.00  0.00    +0.000 OA
ATOM    350  N   ARG A  45      22.696  -2.413 -12.030  0.00  0.00    +0.000 N 
ATOM    351  H   ARG A  45      22.909  -3.089 -11.345  0.00  0.00    +0.000 HD
BRANCH 350 352
ATOM    352  CA  ARG A  45      23.740  -1.969 -12.986  0.00  0.00    +0.000 C 
BRANCH 352 353
ATOM    353  C   ARG A  45      23.241  -2.225 -14.404  0.00  0.00    +0.000 C 
ATOM    354  O   ARG A  45      23.580  -1.507 -15.325  0.00  0.00    +0.000 OA
ATOM    355  N   ARG A  46      22.435  -3.234 -14.599  0.00  0.00    +0.000 N 
ATOM    356  H   ARG A  46      22.186  -3.827 -13.857  0.00  0.00    +0.000 HD
BRANCH 355 357
ATOM    357  CA  ARG A  46      21.927  -3.492 -15.971  0.00  0.00    +0.000 C 
BRANCH 357 358
ATOM    358  C   ARG A  46      20.874  -2.442 -16.327  0.00  0.00    +0.000 C 
ATOM    359  O   ARG A  46      20.582  -2.223 -17.486  0.00  0.00    +0.000 OA
ATOM    360  N   ARG A  47      20.299  -1.782 -15.354  0.00  0.00    +0.000 N 
ATOM    361  H   ARG A  47      20.511  -1.964 -14.411  0.00  0.00    +0.000 HD
BRANCH 360 362
ATOM    362  CA  ARG A  47      19.279  -0.737 -15.660  0.00  0.00    +0.000 C 
BRANCH 362 363
ATOM    363  C   ARG A  47      19.922   0.649 -15.502  0.00  0.00    +0.000 C 
ATOM    364  O   ARG A  47      20.393   0.938 -14.414  0.00  0.00    +0.000 OA
ATOM    365  OXT ARG A  47      19.928   1.394 -16.467  0.00  0.00    +0.000 OA
ENDBRANCH 362 363
BRANCH 362 366
ATOM    366  CB  ARG A  47      18.105  -0.875 -14.676  0.00  0.00    +0.000 C 
BRANCH 366 367
ATOM    367  CG  ARG A  47      16.939  -1.605 -15.352  0.00  0.00    +0.000 C 
BRANCH 367 368
ATOM    368  CD  ARG A  47      15.721  -1.640 -14.415  0.00  0.00    +0.000 C 
BRANCH 368 369
ATOM    369  NE  ARG A  47      15.495  -3.038 -13.954  0.00  0.00    +0.000 N 
ATOM    370  CZ  ARG A  47      14.680  -3.272 -12.964  0.00  0.00    +0.000 C 
ATOM    371  NH1 ARG A  47      14.069  -2.281 -12.375  0.00  0.00    +0.000 N 
ATOM    372  NH2 ARG A  47      14.475  -4.497 -12.563  0.00  0.00    +0.000 N 
ATOM    373  HE  ARG A  47      15.956  -3.781 -14.397  0.00  0.00    +0.000 HD
ATOM    374 HH11 ARG A  47      14.226  -1.343 -12.683  0.00  0.00    +0.000 HD
ATOM    375 HH12 ARG A  47      13.443  -2.459 -11.616  0.00  0.00    +0.000 HD
ATOM    376 HH21 ARG A  47      14.943  -5.256 -13.015  0.00  0.00    +0.000 HD
ATOM    377 HH22 ARG A  47      13.849  -4.676 -11.804  0.00  0.00    +0.000 HD
ENDBRANCH 368 369
ENDBRANCH 367 368
ENDBRANCH 366 367
ENDBRANCH 362 366
ENDBRANCH 360 362
ENDBRANCH 357 358
BRANCH 357 378
ATOM    378  CB  ARG A  46      21.339  -4.899 -16.071  0.00  0.00    +0.000 C 
BRANCH 378 379
ATOM    379  CG  ARG A  46      22.482  -5.901 -16.264  0.00  0.00    +0.000 C 
BRANCH 379 380
ATOM    380  CD  ARG A  46      21.919  -7.283 -16.593  0.00  0.00    +0.000 C 
BRANCH 380 381
ATOM    381  NE  ARG A  46      22.841  -8.317 -16.044  0.00  0.00    +0.000 N 
ATOM    382  CZ  ARG A  46      22.483  -9.571 -16.024  0.00  0.00    +0.000 C 
ATOM    383  NH1 ARG A  46      21.368  -9.940 -16.592  0.00  0.00    +0.000 N 
ATOM    384  NH2 ARG A  46      23.250 -10.458 -15.453  0.00  0.00    +0.000 N 
ATOM    385  HE  ARG A  46      23.703  -8.049 -15.662  0.00  0.00    +0.000 HD
ATOM    386 HH11 ARG A  46      20.788  -9.262 -17.044  0.00  0.00    +0.000 HD
ATOM    387 HH12 ARG A  46      21.093 -10.901 -16.576  0.00  0.00    +0.000 HD
ATOM    388 HH21 ARG A  46      24.112 -10.176 -15.031  0.00  0.00    +0.000 HD
ATOM    389 HH22 ARG A  46      22.974 -11.419 -15.433  0.00  0.00    +0.000 HD
ENDBRANCH 380 381
ENDBRANCH 379 380
ENDBRANCH 378 379
ENDBRANCH 357 378
ENDBRANCH 355 357
ENDBRANCH 352 353
BRANCH 352 390
ATOM    390  CB  ARG A  45      25.064  -2.706 -12.709  0.00  0.00    +0.000 C 
BRANCH 390 391
ATOM    391  CG  ARG A  45      25.284  -2.826 -11.178  0.00  0.00    +0.000 C 
BRANCH 391 392
ATOM    392  CD  ARG A  45      26.569  -2.119 -10.736  0.00  0.00    +0.000 C 
BRANCH 392 393
ATOM    393  NE  ARG A  45      27.731  -2.999 -11.049  0.00  0.00    +0.000 N 
ATOM    394  CZ  ARG A  45      28.942  -2.610 -10.775  0.00  0.00    +0.000 C 
ATOM    395  NH1 ARG A  45      29.136  -1.484 -10.142  0.00  0.00    +0.000 N 
ATOM    396  NH2 ARG A  45      29.957  -3.358 -11.104  0.00  0.00    +0.000 N 
ATOM    397  HE  ARG A  45      27.583  -3.863 -11.486  0.00  0.00    +0.000 HD
ATOM    398 HH11 ARG A  45      28.355  -0.922  -9.870  0.00  0.00    +0.000 HD
ATOM    399 HH12 ARG A  45      30.066  -1.188  -9.923  0.00  0.00    +0.000 HD
ATOM    400 HH21 ARG A  45      29.804  -4.230 -11.569  0.00  0.00    +0.000 HD
ATOM    401 HH22 ARG A  45      30.887  -3.062 -10.888  0.00  0.00    +0.000 HD
ENDBRANCH 392 393
ENDBRANCH 391 392
ENDBRANCH 390 391
ENDBRANCH 352 390
ENDBRANCH 350 352
ENDBRANCH 347 348
BRANCH 347 402
ATOM    402  CB  GLN A  44      20.854  -1.790  -9.684  0.00  0.00    +0.000 C 
BRANCH 402 403
ATOM    403  CG  GLN A  44      19.604  -1.580  -8.828  0.00  0.00    +0.000 C 
BRANCH 403 404
ATOM    404  CD  GLN A  44      19.991  -0.814  -7.562  0.00  0.00    +0.000 C 
ATOM    405  OE1 GLN A  44      21.143  -0.473  -7.374  0.00  0.00    +0.000 OA
ATOM    406  NE2 GLN A  44      19.070  -0.511  -6.692  0.00  0.00    +0.000 N 
ATOM    407 HE21 GLN A  44      18.141  -0.774  -6.851  0.00  0.00    +0.000 HD
ATOM    408 HE22 GLN A  44      19.308  -0.016  -5.880  0.00  0.00    +0.000 HD
ENDBRANCH 403 404
ENDBRANCH 402 403
ENDBRANCH 347 402
ENDBRANCH 345 347
ENDBRANCH 342 343
BRANCH 342 409
ATOM    409  CB  THR A  43      18.824  -6.433 -11.434  0.00  0.00    +0.000 C 
ATOM    410  CG2 THR A  43      17.619  -5.855 -12.175  0.00  0.00    +0.000 C 
BRANCH 409 411
ATOM    411  OG1 THR A  43      18.757  -7.853 -11.436  0.00  0.00    +0.000 OA
ATOM    412  HG1 THR A  43      19.303  -8.178 -10.716  0.00  0.00    +0.000 HD
ENDBRANCH 409 411
ENDBRANCH 342 409
ENDBRANCH 340 342
ENDBRANCH 337 338
BRANCH 337 413
ATOM    413  CB  GLU A  42      23.951  -8.113 -11.158  0.00  0.00    +0.000 C 
BRANCH 413 414
ATOM    414  CG  GLU A  42      25.119  -8.622 -10.321  0.00  0.00    +0.000 C 
BRANCH 414 415
ATOM    415  CD  GLU A  42      26.441  -8.127 -10.910  0.00  0.00    +0.000 C 
ATOM    416  OE1 GLU A  42      26.842  -8.654 -11.936  0.00  0.00    +0.000 OA
ATOM    417  OE2 GLU A  42      27.044  -7.251 -10.314  0.00  0.00    +0.000 OA
ENDBRANCH 414 415
ENDBRANCH 413 414
ENDBRANCH 337 413
ENDBRANCH 335 337
ENDBRANCH 332 333
BRANCH 332 418
ATOM    418  CB  TYR A  41      23.588  -5.823  -6.497  0.00  0.00    +0.000 C 
BRANCH 418 419
ATOM    419  CG  TYR A  41      24.529  -4.649  -6.553  0.00  0.00    +0.000 A 
ATOM    420  CD1 TYR A  41      24.290  -3.527  -5.752  0.00  0.00    +0.000 A 
ATOM    421  CD2 TYR A  41      25.642  -4.681  -7.400  0.00  0.00    +0.000 A 
ATOM    422  CE1 TYR A  41      25.163  -2.436  -5.798  0.00  0.00    +0.000 A 
ATOM    423  CE2 TYR A  41      26.515  -3.590  -7.447  0.00  0.00    +0.000 A 
ATOM    424  CZ  TYR A  41      26.276  -2.467  -6.646  0.00  0.00    +0.000 A 
BRANCH 424 425
ATOM    425  OH  TYR A  41      27.140  -1.393  -6.690  0.00  0.00    +0.000 OA
ATOM    426  HH  TYR A  41      27.893  -1.597  -6.130  0.00  0.00    +0.000 HD
ENDBRANCH 424 425
ENDBRANCH 418 419
ENDBRANCH 332 418
ENDBRANCH 330 332
ENDBRANCH 327 328
BRANCH 327 427
ATOM    427  CB  GLU A  40      18.580  -7.564  -6.019  0.00  0.00    +0.000 C 
BRANCH 427 428
ATOM    428  CG  GLU A  40      17.872  -6.216  -5.855  0.00  0.00    +0.000 C 
BRANCH 428 429
ATOM    429  CD  GLU A  40      16.982  -6.250  -4.611  0.00  0.00    +0.000 C 
ATOM    430  OE1 GLU A  40      16.737  -7.335  -4.110  0.00  0.00    +0.000 OA
ATOM    431  OE2 GLU A  40      16.551  -5.190  -4.186  0.00  0.00    +0.000 OA
ENDBRANCH 428 429
ENDBRANCH 427 428
ENDBRANCH 327 427
ENDBRANCH 325 327
ENDBRANCH 322 323
BRANCH 322 432
ATOM    432  CB  PHE A  39      19.930 -11.750  -8.942  0.00  0.00    +0.000 C 
BRANCH 432 433
ATOM    433  CG  PHE A  39      19.160 -11.589 -10.230  0.00  0.00    +0.000 A 
ATOM    434  CD1 PHE A  39      18.114 -10.660 -10.307  0.00  0.00    +0.000 A 
ATOM    435  CD2 PHE A  39      19.498 -12.357 -11.349  0.00  0.00    +0.000 A 
ATOM    436  CE1 PHE A  39      17.405 -10.503 -11.504  0.00  0.00    +0.000 A 
ATOM    437  CE2 PHE A  39      18.791 -12.199 -12.546  0.00  0.00    +0.000 A 
ATOM    438  CZ  PHE A  39      17.744 -11.273 -12.624  0.00  0.00    +0.000 A 
ENDBRANCH 432 433
ENDBRANCH 322 432
ENDBRANCH 320 322
ENDBRANCH 317 318
BRANCH 317 439
ATOM    439  CB  ILE A  38      24.743 -11.545  -6.541  0.00  0.00    +0.000 C 
ATOM    440  CG2 ILE A  38      25.741 -11.047  -7.581  0.00  0.00    +0.000 C 
BRANCH 439 441
ATOM    441  CG1 ILE A  38      25.505 -11.953  -5.286  0.00  0.00    +0.000 C 
ATOM    442  CD1 ILE A  38      26.220 -13.266  -5.578  0.00  0.00    +0.000 C 
ENDBRANCH 439 441
ENDBRANCH 317 439
ENDBRANCH 315 317
ENDBRANCH 312 313
BRANCH 312 443
ATOM    443  CB  LYS A  37      21.903 -10.696  -2.190  0.00  0.00    +0.000 C 
BRANCH 443 444
ATOM    444  CG  LYS A  37      20.962 -10.882  -0.992  0.00  0.00    +0.000 C 
BRANCH 444 445
ATOM    445  CD  LYS A  37      21.534 -10.178   0.247  0.00  0.00    +0.000 C 
BRANCH 445 446
ATOM    446  CE  LYS A  37      20.476 -10.121   1.363  0.00  0.00    +0.000 C 
BRANCH 446 447
ATOM    447  NZ  LYS A  37      20.853 -11.063   2.452  0.00  0.00    +0.000 N 
ATOM    448  HZ1 LYS A  37      21.846 -11.347   2.336  0.00  0.00    +0.000 HD
ATOM    449  HZ2 LYS A  37      20.242 -11.904   2.410  0.00  0.00    +0.000 HD
ATOM    450  HZ3 LYS A  37      20.735 -10.592   3.372  0.00  0.00    +0.000 HD
ENDBRANCH 446 447
ENDBRANCH 445 446
ENDBRANCH 444 445
ENDBRANCH 443 444
ENDBRANCH 312 443
ENDBRANCH 310 312
ENDBRANCH 307 308
BRANCH 307 451
ATOM    451  CB  LYS A  36      18.071 -13.814  -4.314  0.00  0.00    +0.000 C 
BRANCH 451 452
ATOM    452  CG  LYS A  36      16.925 -12.910  -4.767  0.00  0.00    +0.000 C 
BRANCH 452 453
ATOM    453  CD  LYS A  36      15.651 -13.217  -3.947  0.00  0.00    +0.000 C 
BRANCH 453 454
ATOM    454  CE  LYS A  36      14.399 -13.270  -4.850  0.00  0.00    +0.000 C 
BRANCH 454 455
ATOM    455  NZ  LYS A  36      13.349 -12.383  -4.282  0.00  0.00    +0.000 N 
ATOM    456  HZ1 LYS A  36      13.607 -12.115  -3.311  0.00  0.00    +0.000 HD
ATOM    457  HZ2 LYS A  36      12.437 -12.884  -4.274  0.00  0.00    +0.000 HD
ATOM    458  HZ3 LYS A  36      13.269 -11.525  -4.865  0.00  0.00    +0.000 HD
ENDBRANCH 454 455
ENDBRANCH 453 454
ENDBRANCH 452 453
ENDBRANCH 451 452
ENDBRANCH 307 451
ENDBRANCH 305 307
ENDBRANCH 302 303
BRANCH 302 459
ATOM    459  CB  GLU A  35      22.029 -16.997  -5.851  0.00  0.00    +0.000 C 
BRANCH 459 460
ATOM    460  CG  GLU A  35      23.116 -18.040  -5.619  0.00  0.00    +0.000 C 
BRANCH 460 461
ATOM    461  CD  GLU A  35      22.713 -19.343  -6.306  0.00  0.00    +0.000 C 
ATOM    462  OE1 GLU A  35      21.740 -19.326  -7.041  0.00  0.00    +0.000 OA
ATOM    463  OE2 GLU A  35      23.380 -20.336  -6.082  0.00  0.00    +0.000 OA
ENDBRANCH 460 461
ENDBRANCH 459 460
ENDBRANCH 302 459
ENDBRANCH 300 302
ENDBRANCH 297 298
BRANCH 297 464
ATOM    464  CB  TYR A  34      24.335 -15.565  -1.170  0.00  0.00    +0.000 C 
BRANCH 464 465
ATOM    465  CG  TYR A  34      24.623 -15.296   0.283  0.00  0.00    +0.000 A 
ATOM    466  CD1 TYR A  34      24.823 -13.984   0.709  0.00  0.00    +0.000 A 
ATOM    467  CD2 TYR A  34      24.690 -16.350   1.202  0.00  0.00    +0.000 A 
ATOM    468  CE1 TYR A  34      25.084 -13.711   2.047  0.00  0.00    +0.000 A 
ATOM    469  CE2 TYR A  34      24.953 -16.080   2.551  0.00  0.00    +0.000 A 
ATOM    470  CZ  TYR A  34      25.153 -14.758   2.973  0.00  0.00    +0.000 A 
BRANCH 470 471
ATOM    471  OH  TYR A  34      25.413 -14.490   4.301  0.00  0.00    +0.000 OA
ATOM    472  HH  TYR A  34      24.675 -14.816   4.820  0.00  0.00    +0.000 HD
ENDBRANCH 470 471
ENDBRANCH 464 465
ENDBRANCH 297 464
ENDBRANCH 295 297
ENDBRANCH 292 293
BRANCH 292 473
ATOM    473  CB  LEU A  33      19.449 -16.058   0.958  0.00  0.00    +0.000 C 
BRANCH 473 474
ATOM    474  CG  LEU A  33      19.276 -14.608   1.438  0.00  0.00    +0.000 C 
ATOM    475  CD1 LEU A  33      17.983 -13.983   0.869  0.00  0.00    +0.000 C 
ATOM    476  CD2 LEU A  33      19.215 -14.612   2.971  0.00  0.00    +0.000 C 
ENDBRANCH 473 474
ENDBRANCH 292 473
ENDBRANCH 290 292
ENDBRANCH 287 288
BRANCH 287 477
ATOM    477  CB  ARG A  32      18.976 -20.027  -2.448  0.00  0.00    +0.000 C 
BRANCH 477 478
ATOM    478  CG  ARG A  32      17.905 -19.370  -3.325  0.00  0.00    +0.000 C 
BRANCH 478 479
ATOM    479  CD  ARG A  32      16.565 -20.075  -3.141  0.00  0.00    +0.000 C 
BRANCH 479 480
ATOM    480  NE  ARG A  32      15.918 -20.182  -4.472  0.00  0.00    +0.000 N 
ATOM    481  CZ  ARG A  32      14.838 -20.885  -4.611  0.00  0.00    +0.000 C 
ATOM    482  NH1 ARG A  32      14.262 -21.397  -3.560  0.00  0.00    +0.000 N 
ATOM    483  NH2 ARG A  32      14.323 -21.058  -5.794  0.00  0.00    +0.000 N 
ATOM    484  HE  ARG A  32      16.329 -19.752  -5.252  0.00  0.00    +0.000 HD
ATOM    485 HH11 ARG A  32      14.654 -21.246  -2.651  0.00  0.00    +0.000 HD
ATOM    486 HH12 ARG A  32      13.428 -21.938  -3.660  0.00  0.00    +0.000 HD
ATOM    487 HH21 ARG A  32      14.762 -20.648  -6.595  0.00  0.00    +0.000 HD
ATOM    488 HH22 ARG A  32      13.491 -21.600  -5.903  0.00  0.00    +0.000 HD
ENDBRANCH 479 480
ENDBRANCH 478 479
ENDBRANCH 477 478
ENDBRANCH 287 477
ENDBRANCH 285 287
ENDBRANCH 282 283
BRANCH 282 489
ATOM    489  CB  ARG A  31      24.059 -21.119  -1.415  0.00  0.00    +0.000 C 
BRANCH 489 490
ATOM    490  CG  ARG A  31      24.661 -20.712  -2.775  0.00  0.00    +0.000 C 
BRANCH 490 491
ATOM    491  CD  ARG A  31      24.858 -21.939  -3.672  0.00  0.00    +0.000 C 
BRANCH 491 492
ATOM    492  NE  ARG A  31      26.312 -22.086  -3.936  0.00  0.00    +0.000 N 
ATOM    493  CZ  ARG A  31      26.752 -23.096  -4.620  0.00  0.00    +0.000 C 
ATOM    494  NH1 ARG A  31      25.906 -23.929  -5.163  0.00  0.00    +0.000 N 
ATOM    495  NH2 ARG A  31      28.033 -23.260  -4.785  0.00  0.00    +0.000 N 
ATOM    496  HE  ARG A  31      26.943 -21.434  -3.566  0.00  0.00    +0.000 HD
ATOM    497 HH11 ARG A  31      24.922 -23.785  -5.051  0.00  0.00    +0.000 HD
ATOM    498 HH12 ARG A  31      26.240 -24.705  -5.696  0.00  0.00    +0.000 HD
ATOM    499 HH21 ARG A  31      28.675 -22.608  -4.382  0.00  0.00    +0.000 HD
ATOM    500 HH22 ARG A  31      28.374 -24.036  -5.314  0.00  0.00    +0.000 HD
ENDBRANCH 491 492
ENDBRANCH 490 491
ENDBRANCH 489 490
ENDBRANCH 282 489
ENDBRANCH 280 282
ENDBRANCH 277 278
BRANCH 277 501
ATOM    501  CB  THR A  30      22.266 -19.063   3.814  0.00  0.00    +0.000 C 
ATOM    502  CG2 THR A  30      21.657 -19.569   5.135  0.00  0.00    +0.000 C 
BRANCH 501 503
ATOM    503  OG1 THR A  30      23.673 -19.267   3.833  0.00  0.00    +0.000 OA
ATOM    504  HG1 THR A  30      24.048 -18.831   3.064  0.00  0.00    +0.000 HD
ENDBRANCH 501 503
ENDBRANCH 277 501
ENDBRANCH 275 277
ENDBRANCH 272 273
BRANCH 272 505
ATOM    505  CB  SER A  29      21.299 -23.923   4.552  0.00  0.00    +0.000 C 
BRANCH 505 506
ATOM    506  OG  SER A  29      20.561 -25.093   4.880  0.00  0.00    +0.000 OA
ATOM    507  HG  SER A  29      20.462 -25.121   5.836  0.00  0.00    +0.000 HD
ENDBRANCH 505 506
ENDBRANCH 272 505
ENDBRANCH 270 272
ENDBRANCH 267 268
ENDBRANCH 265 267
ENDBRANCH 262 263
BRANCH 262 508
ATOM    508  CB  VAL A  27      25.890 -22.983   4.008  0.00  0.00    +0.000 C 
ATOM    509  CG1 VAL A  27      24.814 -22.057   4.611  0.00  0.00    +0.000 C 
ATOM    510  CG2 VAL A  27      25.443 -24.461   4.126  0.00  0.00    +0.000 C 
ENDBRANCH 262 508
ENDBRANCH 260 262
ENDBRANCH   1 258
BRANCH   1 511
ATOM    511  CB  VAL A  26      28.676 -18.820   1.102  0.00  0.00    +0.000 C 
ATOM    512  CG1 VAL A  26      27.875 -19.238  -0.149  0.00  0.00    +0.000 C 
ATOM    513  CG2 VAL A  26      28.942 -17.307   1.067  0.00  0.00    +0.000 C 
ENDBRANCH   1 511
TORSDOF 203
