REMARK  Name = /Users/acegid/Desktop/Smoking_Research/Docking/Docking_All_PDB/All_PDB/6AXD_H.pdb
REMARK  305 active torsions:
REMARK  status: ('A' for Active; 'I' for Inactive)
REMARK    1  A    between atoms: N_1  and  CA_5
REMARK    2  A    between atoms: CA_5  and  CB_7
REMARK    3  A    between atoms: CA_5  and  C_18
REMARK    4  A    between atoms: CB_7  and  CG_10
REMARK    5  A    between atoms: CG_10  and  SD_13
REMARK    6  A    between atoms: SD_13  and  CE_14
REMARK    7  A    between atoms: N_20  and  CA_22
REMARK    8  A    between atoms: CA_22  and  C_25
REMARK    9  A    between atoms: N_27  and  CA_29
REMARK   10  A    between atoms: CA_29  and  CB_31
REMARK   11  A    between atoms: CA_29  and  C_36
REMARK   12  A    between atoms: CB_31  and  OG_34
REMARK   13  A    between atoms: N_38  and  CA_40
REMARK   14  A    between atoms: CA_40  and  CB_42
REMARK   15  A    between atoms: CA_40  and  C_47
REMARK   16  A    between atoms: CB_42  and  OG_45
REMARK   17  A    between atoms: N_49  and  CA_51
REMARK   18  A    between atoms: CA_51  and  CB_53
REMARK   19  A    between atoms: CA_51  and  C_64
REMARK   20  A    between atoms: CB_53  and  CG_56
REMARK   21  A    between atoms: N_66  and  CA_68
REMARK   22  A    between atoms: CA_68  and  CB_70
REMARK   23  A    between atoms: CA_68  and  C_81
REMARK   24  A    between atoms: CB_70  and  CG_73
REMARK   25  A    between atoms: N_83  and  CA_85
REMARK   26  A    between atoms: CA_85  and  CB_87
REMARK   27  A    between atoms: CA_85  and  C_98
REMARK   28  A    between atoms: CB_87  and  CG_90
REMARK   29  A    between atoms: N_100  and  CA_102
REMARK   30  A    between atoms: CA_102  and  CB_104
REMARK   31  A    between atoms: CA_102  and  C_115
REMARK   32  A    between atoms: CB_104  and  CG_107
REMARK   33  A    between atoms: N_117  and  CA_119
REMARK   34  A    between atoms: CA_119  and  CB_121
REMARK   35  A    between atoms: CA_119  and  C_132
REMARK   36  A    between atoms: CB_121  and  CG_124
REMARK   37  A    between atoms: N_134  and  CA_136
REMARK   38  A    between atoms: CA_136  and  CB_138
REMARK   39  A    between atoms: CA_136  and  C_149
REMARK   40  A    between atoms: CB_138  and  CG_141
REMARK   41  A    between atoms: N_151  and  CA_153
REMARK   42  A    between atoms: CA_153  and  CB_155
REMARK   43  A    between atoms: CA_153  and  C_166
REMARK   44  A    between atoms: CB_155  and  CG_158
REMARK   45  A    between atoms: N_168  and  CA_170
REMARK   46  A    between atoms: CA_170  and  CB_172
REMARK   47  A    between atoms: CA_170  and  C_183
REMARK   48  A    between atoms: CB_172  and  CG_175
REMARK   49  A    between atoms: N_185  and  CA_187
REMARK   50  A    between atoms: CA_187  and  CB_189
REMARK   51  A    between atoms: CA_187  and  C_202
REMARK   52  A    between atoms: CB_189  and  CG_192
REMARK   53  A    between atoms: CG_192  and  CD1_194
REMARK   54  A    between atoms: CG_192  and  CD2_198
REMARK   55  A    between atoms: N_204  and  CA_206
REMARK   56  A    between atoms: CA_206  and  CB_208
REMARK   57  A    between atoms: CA_206  and  C_216
REMARK   58  A    between atoms: CB_208  and  CG_211
REMARK   59  A    between atoms: N_218  and  CA_220
REMARK   60  A    between atoms: CA_220  and  C_223
REMARK   61  A    between atoms: N_225  and  CA_227
REMARK   62  A    between atoms: CA_227  and  CB_229
REMARK   63  A    between atoms: CA_227  and  C_234
REMARK   64  A    between atoms: CB_229  and  OG_232
REMARK   65  A    between atoms: N_236  and  CA_238
REMARK   66  A    between atoms: CA_238  and  CB_240
REMARK   67  A    between atoms: CA_238  and  C_245
REMARK   68  A    between atoms: CB_240  and  OG_243
REMARK   69  A    between atoms: N_247  and  CA_249
REMARK   70  A    between atoms: CA_249  and  CB_251
REMARK   71  A    between atoms: CA_249  and  C_264
REMARK   72  A    between atoms: CB_251  and  CG_254
REMARK   73  A    between atoms: CG_254  and  CD1_256
REMARK   74  A    between atoms: CG_254  and  CD2_260
REMARK   75  A    between atoms: N_266  and  CA_268
REMARK   76  A    between atoms: CA_268  and  CB_270
REMARK   77  A    between atoms: CA_268  and  C_280
REMARK   78  A    between atoms: CB_270  and  CG1_272
REMARK   79  A    between atoms: CB_270  and  CG2_276
REMARK   80  A    between atoms: CA_292  and  C_294
REMARK   81  A    between atoms: N_296  and  CA_298
REMARK   82  A    between atoms: CA_298  and  CB_300
REMARK   83  A    between atoms: CA_298  and  C_318
REMARK   84  A    between atoms: CB_300  and  CG_303
REMARK   85  A    between atoms: CG_303  and  CD_306
REMARK   86  A    between atoms: CD_306  and  NE_309
REMARK   87  A    between atoms: N_320  and  CA_322
REMARK   88  A    between atoms: CA_322  and  C_325
REMARK   89  A    between atoms: N_327  and  CA_329
REMARK   90  A    between atoms: CA_329  and  CB_331
REMARK   91  A    between atoms: CA_329  and  C_336
REMARK   92  A    between atoms: CB_331  and  OG_334
REMARK   93  A    between atoms: N_338  and  CA_340
REMARK   94  A    between atoms: CA_340  and  CB_342
REMARK   95  A    between atoms: CA_340  and  C_355
REMARK   96  A    between atoms: CB_342  and  CG2_344
REMARK   97  A    between atoms: CB_342  and  CG1_348
REMARK   98  A    between atoms: CG1_348  and  CD1_351
REMARK   99  A    between atoms: N_357  and  CA_359
REMARK  100  A    between atoms: CA_359  and  CB_361
REMARK  101  A    between atoms: CA_359  and  C_377
REMARK  102  A    between atoms: CB_361  and  CG_364
REMARK  103  A    between atoms: CG_364  and  CD_367
REMARK  104  A    between atoms: CD_367  and  CE_370
REMARK  105  A    between atoms: CE_370  and  NZ_373
REMARK  106  A    between atoms: N_379  and  CA_381
REMARK  107  A    between atoms: CA_381  and  CB_383
REMARK  108  A    between atoms: CA_381  and  C_388
REMARK  109  A    between atoms: CB_383  and  OG_386
REMARK  110  A    between atoms: N_390  and  CA_392
REMARK  111  A    between atoms: CA_392  and  CB_394
REMARK  112  A    between atoms: CA_392  and  C_399
REMARK  113  A    between atoms: CB_394  and  OG_397
REMARK  114  A    between atoms: N_401  and  CA_403
REMARK  115  A    between atoms: CA_403  and  C_406
REMARK  116  A    between atoms: N_408  and  CA_410
REMARK  117  A    between atoms: CA_410  and  CB_412
REMARK  118  A    between atoms: CA_410  and  C_425
REMARK  119  A    between atoms: CB_412  and  CG_415
REMARK  120  A    between atoms: CG_415  and  CD1_417
REMARK  121  A    between atoms: CG_415  and  CD2_421
REMARK  122  A    between atoms: N_427  and  CA_429
REMARK  123  A    between atoms: CA_429  and  CB_431
REMARK  124  A    between atoms: CA_429  and  C_440
REMARK  125  A    between atoms: CB_431  and  CG_434
REMARK  126  A    between atoms: CG_434  and  CD_437
REMARK  127  A    between atoms: N_442  and  CA_444
REMARK  128  A    between atoms: CA_444  and  CB_446
REMARK  129  A    between atoms: CA_444  and  C_451
REMARK  130  A    between atoms: CB_446  and  OG_449
REMARK  131  A    between atoms: N_453  and  CA_455
REMARK  132  A    between atoms: CA_455  and  CB_457
REMARK  133  A    between atoms: CA_455  and  C_465
REMARK  134  A    between atoms: CB_457  and  CG_460
REMARK  135  A    between atoms: N_467  and  CA_469
REMARK  136  A    between atoms: CA_469  and  CB_471
REMARK  137  A    between atoms: CA_469  and  C_476
REMARK  138  A    between atoms: CB_471  and  OG_474
REMARK  139  A    between atoms: N_478  and  CA_480
REMARK  140  A    between atoms: CA_480  and  CB_482
REMARK  141  A    between atoms: CA_480  and  C_488
REMARK  142  A    between atoms: CB_482  and  CG_485
REMARK  143  A    between atoms: N_490  and  CA_492
REMARK  144  A    between atoms: CA_492  and  CB_494
REMARK  145  A    between atoms: CA_492  and  C_498
REMARK  146  A    between atoms: N_500  and  CA_502
REMARK  147  A    between atoms: CA_502  and  C_505
REMARK  148  A    between atoms: N_507  and  CA_509
REMARK  149  A    between atoms: CA_509  and  CB_511
REMARK  150  A    between atoms: CA_509  and  C_524
REMARK  151  A    between atoms: CB_511  and  CG2_513
REMARK  152  A    between atoms: CB_511  and  CG1_517
REMARK  153  A    between atoms: CG1_517  and  CD1_520
REMARK  154  A    between atoms: N_526  and  CA_528
REMARK  155  A    between atoms: CA_528  and  CB_530
REMARK  156  A    between atoms: CA_528  and  C_538
REMARK  157  A    between atoms: CB_530  and  CG_533
REMARK  158  A    between atoms: N_540  and  CA_542
REMARK  159  A    between atoms: CA_542  and  CB_544
REMARK  160  A    between atoms: CB_544  and  CG_547
REMARK  161  A    between atoms: CG_547  and  CD1_549
REMARK  162  A    between atoms: CG_547  and  CD2_553
REMARK  163  A    between atoms: N_559  and  CA_560
REMARK  164  A    between atoms: CA_560  and  C_561
REMARK  165  A    between atoms: CA_560  and  CB_563
REMARK  166  A    between atoms: CB_563  and  CG1_564
REMARK  167  A    between atoms: CB_563  and  CG2_565
REMARK  168  A    between atoms: CG1_564  and  CD1_566
REMARK  169  A    between atoms: N_578  and  CA_579
REMARK  170  A    between atoms: CA_579  and  C_580
REMARK  171  A    between atoms: CA_579  and  CB_582
REMARK  172  A    between atoms: N_588  and  CA_589
REMARK  173  A    between atoms: CA_589  and  C_590
REMARK  174  A    between atoms: CA_589  and  CB_592
REMARK  175  A    between atoms: CB_592  and  CG_593
REMARK  176  A    between atoms: CG_593  and  CD1_594
REMARK  177  A    between atoms: CG_593  and  CD2_595
REMARK  178  A    between atoms: CA_608  and  C_609
REMARK  179  A    between atoms: N_621  and  CA_622
REMARK  180  A    between atoms: CA_622  and  C_623
REMARK  181  A    between atoms: CA_622  and  CB_625
REMARK  182  A    between atoms: N_631  and  CA_632
REMARK  183  A    between atoms: CA_632  and  C_633
REMARK  184  A    between atoms: CA_632  and  CB_635
REMARK  185  A    between atoms: CB_635  and  CG_636
REMARK  186  A    between atoms: N_651  and  CA_652
REMARK  187  A    between atoms: CA_652  and  C_653
REMARK  188  A    between atoms: CA_652  and  CB_655
REMARK  189  A    between atoms: CB_655  and  OG_656
REMARK  190  A    between atoms: N_662  and  CA_663
REMARK  191  A    between atoms: CA_663  and  C_664
REMARK  192  A    between atoms: CA_663  and  CB_666
REMARK  193  A    between atoms: CB_666  and  CG_667
REMARK  194  A    between atoms: CG_667  and  CD_668
REMARK  195  A    between atoms: N_679  and  CA_680
REMARK  196  A    between atoms: CA_680  and  C_681
REMARK  197  A    between atoms: CA_680  and  CB_683
REMARK  198  A    between atoms: CB_683  and  CG1_684
REMARK  199  A    between atoms: CB_683  and  CG2_685
REMARK  200  A    between atoms: N_695  and  CA_696
REMARK  201  A    between atoms: CA_696  and  C_697
REMARK  202  A    between atoms: CA_696  and  CB_699
REMARK  203  A    between atoms: CB_699  and  CG_700
REMARK  204  A    between atoms: CA_708  and  C_709
REMARK  205  A    between atoms: N_721  and  CA_722
REMARK  206  A    between atoms: CA_722  and  C_723
REMARK  207  A    between atoms: CA_722  and  CB_725
REMARK  208  A    between atoms: CB_725  and  CG_726
REMARK  209  A    between atoms: CG_726  and  CD_727
REMARK  210  A    between atoms: N_736  and  CA_737
REMARK  211  A    between atoms: CA_737  and  C_738
REMARK  212  A    between atoms: CA_737  and  CB_740
REMARK  213  A    between atoms: CB_740  and  CG1_741
REMARK  214  A    between atoms: CB_740  and  CG2_742
REMARK  215  A    between atoms: N_752  and  CA_753
REMARK  216  A    between atoms: CA_753  and  C_754
REMARK  217  A    between atoms: CA_753  and  CB_756
REMARK  218  A    between atoms: CB_756  and  CG_757
REMARK  219  A    between atoms: N_772  and  CA_773
REMARK  220  A    between atoms: CA_773  and  C_774
REMARK  221  A    between atoms: CA_773  and  CB_776
REMARK  222  A    between atoms: N_782  and  CA_783
REMARK  223  A    between atoms: CA_783  and  C_784
REMARK  224  A    between atoms: CA_783  and  CB_786
REMARK  225  A    between atoms: N_792  and  CA_793
REMARK  226  A    between atoms: CA_793  and  C_794
REMARK  227  A    between atoms: CA_793  and  CB_796
REMARK  228  A    between atoms: CB_796  and  CG_797
REMARK  229  A    between atoms: CG_797  and  CD1_798
REMARK  230  A    between atoms: CG_797  and  CD2_799
REMARK  231  A    between atoms: CA_812  and  C_813
REMARK  232  A    between atoms: N_825  and  CA_826
REMARK  233  A    between atoms: CA_826  and  C_827
REMARK  234  A    between atoms: CA_826  and  CB_829
REMARK  235  A    between atoms: N_835  and  CA_836
REMARK  236  A    between atoms: CA_836  and  C_837
REMARK  237  A    between atoms: CA_836  and  CB_839
REMARK  238  A    between atoms: CB_839  and  CG_840
REMARK  239  A    between atoms: CG_840  and  CD_841
REMARK  240  A    between atoms: N_850  and  CA_851
REMARK  241  A    between atoms: CA_851  and  C_852
REMARK  242  A    between atoms: CA_851  and  CB_854
REMARK  243  A    between atoms: CB_854  and  CG_855
REMARK  244  A    between atoms: CG_855  and  CD1_856
REMARK  245  A    between atoms: CG_855  and  CD2_857
REMARK  246  A    between atoms: N_869  and  CA_870
REMARK  247  A    between atoms: CA_870  and  C_871
REMARK  248  A    between atoms: CA_870  and  CB_873
REMARK  249  A    between atoms: CB_873  and  CG_874
REMARK  250  A    between atoms: CG_874  and  CD_875
REMARK  251  A    between atoms: N_886  and  CA_887
REMARK  252  A    between atoms: CA_887  and  C_888
REMARK  253  A    between atoms: CA_887  and  CB_890
REMARK  254  A    between atoms: CB_890  and  CG_891
REMARK  255  A    between atoms: CG_891  and  CD_892
REMARK  256  A    between atoms: CD_892  and  NE_893
REMARK  257  A    between atoms: N_910  and  CA_911
REMARK  258  A    between atoms: CA_911  and  C_912
REMARK  259  A    between atoms: CA_911  and  CB_914
REMARK  260  A    between atoms: CB_914  and  CG_915
REMARK  261  A    between atoms: CG_915  and  CD_916
REMARK  262  A    between atoms: N_925  and  CA_926
REMARK  263  A    between atoms: CA_926  and  C_927
REMARK  264  A    between atoms: CA_926  and  CB_929
REMARK  265  A    between atoms: CB_929  and  CG_930
REMARK  266  A    between atoms: CG_930  and  CD1_931
REMARK  267  A    between atoms: CG_930  and  CD2_932
REMARK  268  A    between atoms: N_944  and  CA_945
REMARK  269  A    between atoms: CA_945  and  C_946
REMARK  270  A    between atoms: CA_945  and  CB_948
REMARK  271  A    between atoms: CB_948  and  CG_949
REMARK  272  A    between atoms: CG_949  and  CD_950
REMARK  273  A    between atoms: CD_950  and  CE_951
REMARK  274  A    between atoms: CE_951  and  NZ_952
REMARK  275  A    between atoms: N_966  and  CA_967
REMARK  276  A    between atoms: CA_967  and  C_968
REMARK  277  A    between atoms: CA_967  and  CB_970
REMARK  278  A    between atoms: N_976  and  CA_977
REMARK  279  A    between atoms: CA_977  and  C_978
REMARK  280  A    between atoms: CA_977  and  CB_980
REMARK  281  A    between atoms: N_986  and  CA_987
REMARK  282  A    between atoms: CA_987  and  C_988
REMARK  283  A    between atoms: CA_987  and  CB_990
REMARK  284  A    between atoms: CB_990  and  CG_991
REMARK  285  A    between atoms: CZ_996  and  OH_997
REMARK  286  A    between atoms: N_1007  and  CA_1008
REMARK  287  A    between atoms: CA_1008  and  C_1009
REMARK  288  A    between atoms: CA_1008  and  CB_1011
REMARK  289  A    between atoms: CB_1011  and  CG_1012
REMARK  290  A    between atoms: N_1019  and  CA_1020
REMARK  291  A    between atoms: CA_1020  and  C_1021
REMARK  292  A    between atoms: CA_1020  and  CB_1023
REMARK  293  A    between atoms: CB_1023  and  CG_1024
REMARK  294  A    between atoms: CG_1024  and  CD_1025
REMARK  295  A    between atoms: N_1036  and  CA_1037
REMARK  296  A    between atoms: CA_1037  and  C_1038
REMARK  297  A    between atoms: CA_1037  and  CB_1040
REMARK  298  A    between atoms: CB_1040  and  CG_1041
REMARK  299  A    between atoms: CG_1041  and  CD_1042
REMARK  300  A    between atoms: CD_1042  and  NE_1043
REMARK  301  A    between atoms: N_1060  and  CA_1061
REMARK  302  A    between atoms: CA_1061  and  C_1062
REMARK  303  A    between atoms: CA_1061  and  CB_1064
REMARK  304  A    between atoms: CB_1064  and  CG_1065
REMARK  305  A    between atoms: CG_1065  and  CD_1066
REMARK                            x       y       z     vdW  Elec       q    Type
REMARK                         _______ _______ _______ _____ _____    ______ ____
ROOT
ATOM      1  C   LEU A  18      -5.864 -50.004  92.267  0.00  0.00    +0.000 C 
ATOM      2  O   LEU A  18      -6.648 -50.873  91.875  0.00  0.00    +0.000 OA
ATOM      3  N   VAL A  19      -5.679 -48.857  91.185  0.00  0.00    +0.000 N 
ATOM      4  H   VAL A  19      -6.457 -48.170  91.766  0.00  0.00    +0.000 HD
ENDROOT
BRANCH   3   5
ATOM      5  CA  VAL A  19      -5.360 -47.989  89.750  0.00  0.00    +0.000 C 
BRANCH   5   6
ATOM      6  C   VAL A  19      -5.590 -47.594  88.029  0.00  0.00    +0.000 C 
ATOM      7  O   VAL A  19      -6.138 -48.561  87.513  0.00  0.00    +0.000 OA
ATOM      8  N   PRO A  20      -5.430 -46.418  86.960  0.00  0.00    +0.000 N 
ATOM      9  CD  PRO A  20      -4.780 -45.298  87.615  0.00  0.00    +0.000 C 
ATOM     10  CG  PRO A  20      -3.339 -45.392  87.157  0.00  0.00    +0.000 C 
ATOM     11  CB  PRO A  20      -3.671 -45.461  85.671  0.00  0.00    +0.000 C 
ATOM     12  CA  PRO A  20      -5.183 -45.633  85.467  0.00  0.00    +0.000 C 
BRANCH  12  13
ATOM     13  C   PRO A  20      -5.551 -45.258  83.780  0.00  0.00    +0.000 C 
ATOM     14  O   PRO A  20      -6.405 -46.055  83.392  0.00  0.00    +0.000 OA
ATOM     15  N   ARG A  21      -5.406 -44.127  82.690  0.00  0.00    +0.000 N 
ATOM     16  H   ARG A  21      -6.138 -43.376  83.250  0.00  0.00    +0.000 HD
BRANCH  15  17
ATOM     17  CA  ARG A  21      -4.980 -43.309  81.250  0.00  0.00    +0.000 C 
BRANCH  17  18
ATOM     18  C   ARG A  21      -4.973 -43.015  79.501  0.00  0.00    +0.000 C 
ATOM     19  O   ARG A  21      -4.966 -44.097  78.956  0.00  0.00    +0.000 OA
ATOM     20  N   GLY A  22      -4.807 -41.879  78.400  0.00  0.00    +0.000 N 
ATOM     21  H   GLY A  22      -3.973 -41.175  78.861  0.00  0.00    +0.000 HD
BRANCH  20  22
ATOM     22  CA  GLY A  22      -4.852 -41.038  76.886  0.00  0.00    +0.000 C 
BRANCH  22  23
ATOM     23  C   GLY A  22      -4.390 -40.727  75.189  0.00  0.00    +0.000 C 
ATOM     24  O   GLY A  22      -3.903 -41.766  74.768  0.00  0.00    +0.000 OA
ATOM     25  N   SER A  23      -4.447 -39.648  74.019  0.00  0.00    +0.000 N 
ATOM     26  H   SER A  23      -5.397 -39.115  74.494  0.00  0.00    +0.000 HD
BRANCH  25  27
ATOM     27  CA  SER A  23      -4.092 -38.827  72.544  0.00  0.00    +0.000 C 
BRANCH  27  28
ATOM     28  C   SER A  23      -3.937 -38.633  70.800  0.00  0.00    +0.000 C 
ATOM     29  O   SER A  23      -4.358 -39.699  70.355  0.00  0.00    +0.000 OA
ATOM     30  N   ILE A  24      -3.817 -37.509  69.692  0.00  0.00    +0.000 N 
ATOM     31  H   ILE A  24      -4.551 -36.765  70.258  0.00  0.00    +0.000 HD
BRANCH  30  32
ATOM     32  CA  ILE A  24      -3.500 -36.783  68.171  0.00  0.00    +0.000 C 
BRANCH  32  33
ATOM     33  C   ILE A  24      -3.681 -36.481  66.445  0.00  0.00    +0.000 C 
ATOM     34  O   ILE A  24      -4.297 -37.405  65.899  0.00  0.00    +0.000 OA
ATOM     35  N   LYS A  25      -3.440 -35.320  65.423  0.00  0.00    +0.000 N 
ATOM     36  H   LYS A  25      -4.092 -34.520  66.013  0.00  0.00    +0.000 HD
BRANCH  35  37
ATOM     37  CA  LYS A  25      -3.481 -34.485  63.933  0.00  0.00    +0.000 C 
BRANCH  37  38
ATOM     38  C   LYS A  25      -3.303 -34.134  62.209  0.00  0.00    +0.000 C 
ATOM     39  O   LYS A  25      -3.481 -35.154  61.592  0.00  0.00    +0.000 OA
ATOM     40  N   SER A  26      -3.090 -32.984  61.166  0.00  0.00    +0.000 N 
ATOM     41  H   SER A  26      -3.840 -32.232  61.701  0.00  0.00    +0.000 HD
BRANCH  40  42
ATOM     42  CA  SER A  26      -2.719 -32.248  59.673  0.00  0.00    +0.000 C 
BRANCH  42  43
ATOM     43  C   SER A  26      -2.875 -31.910  57.945  0.00  0.00    +0.000 C 
ATOM     44  O   SER A  26      -3.249 -32.942  57.406  0.00  0.00    +0.000 OA
ATOM     45  N   SER A  27      -2.585 -30.790  56.852  0.00  0.00    +0.000 N 
ATOM     46  H   SER A  27      -3.060 -29.916  57.502  0.00  0.00    +0.000 HD
BRANCH  45  47
ATOM     47  CA  SER A  27      -2.213 -30.054  55.346  0.00  0.00    +0.000 C 
BRANCH  47  48
ATOM     48  C   SER A  27      -2.450 -29.672  53.636  0.00  0.00    +0.000 C 
ATOM     49  O   SER A  27      -3.003 -30.651  53.158  0.00  0.00    +0.000 OA
ATOM     50  N   GLY A  28      -2.083 -28.607  52.509  0.00  0.00    +0.000 N 
ATOM     51  H   GLY A  28      -1.294 -27.997  53.149  0.00  0.00    +0.000 HD
BRANCH  50  52
ATOM     52  CA  GLY A  28      -2.100 -27.669  51.065  0.00  0.00    +0.000 C 
BRANCH  52  53
ATOM     53  C   GLY A  28      -1.964 -27.378  49.317  0.00  0.00    +0.000 C 
ATOM     54  O   GLY A  28      -2.004 -28.495  48.833  0.00  0.00    +0.000 OA
ATOM     55  N   LEU A  29      -1.759 -26.250  48.190  0.00  0.00    +0.000 N 
ATOM     56  H   LEU A  29      -2.257 -25.421  48.879  0.00  0.00    +0.000 HD
BRANCH  55  57
ATOM     57  CA  LEU A  29      -1.475 -25.484  46.659  0.00  0.00    +0.000 C 
BRANCH  57  58
ATOM     58  C   LEU A  29      -1.814 -25.104  44.964  0.00  0.00    +0.000 C 
ATOM     59  O   LEU A  29      -2.748 -25.842  44.660  0.00  0.00    +0.000 OA
ATOM     60  N   GLU A  30      -1.614 -23.974  43.862  0.00  0.00    +0.000 N 
ATOM     61  H   GLU A  30      -2.274 -23.189  44.465  0.00  0.00    +0.000 HD
BRANCH  60  62
ATOM     62  CA  GLU A  30      -1.242 -23.148  42.407  0.00  0.00    +0.000 C 
BRANCH  62  63
ATOM     63  C   GLU A  30      -1.404 -22.818  40.670  0.00  0.00    +0.000 C 
ATOM     64  O   GLU A  30      -1.960 -23.752  40.089  0.00  0.00    +0.000 OA
ATOM     65  N   SER A  31      -1.224 -21.658  39.605  0.00  0.00    +0.000 N 
ATOM     66  H   SER A  31      -1.974 -20.923  40.162  0.00  0.00    +0.000 HD
BRANCH  65  67
ATOM     67  CA  SER A  31      -0.834 -20.860  38.126  0.00  0.00    +0.000 C 
BRANCH  67  68
ATOM     68  C   SER A  31      -0.948 -20.541  36.369  0.00  0.00    +0.000 C 
ATOM     69  O   SER A  31      -1.320 -21.611  35.889  0.00  0.00    +0.000 OA
ATOM     70  N   ASN A  32      -0.739 -19.410  35.234  0.00  0.00    +0.000 N 
ATOM     71  H   ASN A  32      -1.448 -18.649  35.806  0.00  0.00    +0.000 HD
BRANCH  70  72
ATOM     72  CA  ASN A  32      -0.368 -18.621  33.725  0.00  0.00    +0.000 C 
BRANCH  72  73
ATOM     73  C   ASN A  32      -0.508 -18.293  31.980  0.00  0.00    +0.000 C 
ATOM     74  O   ASN A  32      -1.071 -19.281  31.514  0.00  0.00    +0.000 OA
ATOM     75  N   SER A  33      -0.262 -17.150  30.884  0.00  0.00    +0.000 N 
ATOM     76  H   SER A  33      -0.902 -16.352  31.487  0.00  0.00    +0.000 HD
BRANCH  75  77
ATOM     77  CA  SER A  33       0.153 -16.325  29.405  0.00  0.00    +0.000 C 
BRANCH  77  78
ATOM     78  C   SER A  33       0.030 -15.959  27.645  0.00  0.00    +0.000 C 
ATOM     79  O   SER A  33      -0.508 -16.975  27.215  0.00  0.00    +0.000 OA
ATOM     80  N   ASP A  34       0.242 -14.802  26.498  0.00  0.00    +0.000 N 
ATOM     81  H   ASP A  34      -0.338 -13.951  27.086  0.00  0.00    +0.000 HD
BRANCH  80  82
ATOM     82  CA  ASP A  34       0.279 -14.014  24.905  0.00  0.00    +0.000 C 
BRANCH  82  83
ATOM     83  C   ASP A  34       0.569 -13.581  23.138  0.00  0.00    +0.000 C 
ATOM     84  O   ASP A  34       0.571 -14.663  22.575  0.00  0.00    +0.000 OA
ATOM     85  N   ALA A  35       0.671 -12.453  21.953  0.00  0.00    +0.000 N 
ATOM     86  H   ALA A  35      -0.008 -11.684  22.551  0.00  0.00    +0.000 HD
BRANCH  85  87
ATOM     87  CA  ALA A  35       0.974 -11.592  20.441  0.00  0.00    +0.000 C 
ATOM     88  CB  ALA A  35       2.323 -11.056  20.855  0.00  0.00    +0.000 C 
BRANCH  87  89
ATOM     89  C   ALA A  35       0.936 -11.173  18.679  0.00  0.00    +0.000 C 
ATOM     90  O   ALA A  35       0.708 -12.231  18.149  0.00  0.00    +0.000 OA
ATOM     91  N   GLY A  36       1.073 -10.004  17.567  0.00  0.00    +0.000 N 
ATOM     92  H   GLY A  36       1.417  -9.165  18.330  0.00  0.00    +0.000 HD
BRANCH  91  93
ATOM     93  CA  GLY A  36       0.965  -9.103  16.075  0.00  0.00    +0.000 C 
BRANCH  93  94
ATOM     94  C   GLY A  36       1.300  -8.717  14.335  0.00  0.00    +0.000 C 
ATOM     95  O   GLY A  36       1.885  -9.692  13.840  0.00  0.00    +0.000 OA
ATOM     96  N   ILE A  37       1.165  -7.602  13.145  0.00  0.00    +0.000 N 
ATOM     97  H   ILE A  37       0.167  -7.045  13.465  0.00  0.00    +0.000 HD
BRANCH  96  98
ATOM     98  CA  ILE A  37       1.420  -7.091  11.478  0.00  0.00    +0.000 C 
BRANCH  98  99
ATOM     99  C   ILE A  37       1.054  -5.908  10.131  0.00  0.00    +0.000 C 
ATOM    100  O   ILE A  37       0.016  -5.397  10.519  0.00  0.00    +0.000 OA
ATOM    101  N   ASN A  38       1.255  -5.389   8.580  0.00  0.00    +0.000 N 
ATOM    102  H   ASN A  38       0.673  -6.255   8.013  0.00  0.00    +0.000 HD
BRANCH 101 103
ATOM    103  CA  ASN A  38       1.368  -4.136   7.353  0.00  0.00    +0.000 C 
BRANCH 103 104
ATOM    104  C   ASN A  38       1.270  -3.684   5.585  0.00  0.00    +0.000 C 
ATOM    105  O   ASN A  38       0.667  -4.616   5.040  0.00  0.00    +0.000 OA
ATOM    106  N   LEU A  39       1.441  -2.509   4.441  0.00  0.00    +0.000 N 
ATOM    107  H   LEU A  39       0.962  -1.704   5.172  0.00  0.00    +0.000 HD
BRANCH 106 108
ATOM    108  CA  LEU A  39       1.541  -1.701   2.854  0.00  0.00    +0.000 C 
BRANCH 108 109
ATOM    109  CB  LEU A  39       3.029  -1.771   2.522  0.00  0.00    +0.000 C 
BRANCH 109 110
ATOM    110  CG  LEU A  39       4.002  -2.356   3.559  0.00  0.00    +0.000 C 
ATOM    111  CD1 LEU A  39       5.445  -2.349   3.076  0.00  0.00    +0.000 C 
ATOM    112  CD2 LEU A  39       3.505  -3.686   4.113  0.00  0.00    +0.000 C 
ENDBRANCH 109 110
ENDBRANCH 108 109
ENDBRANCH 106 108
ENDBRANCH 103 104
BRANCH 103 113
ATOM    113  CB  ASN A  38       2.904  -4.022   7.400  0.00  0.00    +0.000 C 
BRANCH 113 114
ATOM    114  CG  ASN A  38       3.538  -2.976   8.311  0.00  0.00    +0.000 C 
ATOM    115  OD1 ASN A  38       3.929  -1.906   7.859  0.00  0.00    +0.000 OA
ATOM    116  ND2 ASN A  38       4.189  -3.497   9.349  0.00  0.00    +0.000 N 
ATOM    117 HD21 ASN A  38       3.952  -2.731  10.233  0.00  0.00    +0.000 HD
ATOM    118 HD22 ASN A  38       5.347  -3.769   9.284  0.00  0.00    +0.000 HD
ENDBRANCH 113 114
ENDBRANCH 103 113
ENDBRANCH 101 103
ENDBRANCH  98  99
BRANCH  98 119
ATOM    119  CB  ILE A  37       2.800  -6.504  11.819  0.00  0.00    +0.000 C 
ATOM    120  CG2 ILE A  37       3.657  -5.937  10.678  0.00  0.00    +0.000 C 
BRANCH 119 121
ATOM    121  CG1 ILE A  37       3.572  -7.357  12.842  0.00  0.00    +0.000 C 
ATOM    122  CD1 ILE A  37       4.942  -6.850  13.281  0.00  0.00    +0.000 C 
ENDBRANCH 119 121
ENDBRANCH  98 119
ENDBRANCH  96  98
ENDBRANCH  93  94
ENDBRANCH  91  93
ENDBRANCH  87  89
ENDBRANCH  85  87
ENDBRANCH  82  83
BRANCH  82 123
ATOM    123  CB  ASP A  34       1.816 -13.861  24.912  0.00  0.00    +0.000 C 
BRANCH 123 124
ATOM    124  CG  ASP A  34       2.803 -14.220  26.036  0.00  0.00    +0.000 C 
ATOM    125  OD1 ASP A  34       2.380 -14.657  27.136  0.00  0.00    +0.000 OA
ATOM    126  OD2 ASP A  34       4.019 -14.016  25.746  0.00  0.00    +0.000 OA
ENDBRANCH 123 124
ENDBRANCH  82 123
ENDBRANCH  80  82
ENDBRANCH  77  78
BRANCH  77 127
ATOM    127  CB  SER A  33       1.610 -16.080  29.779  0.00  0.00    +0.000 C 
BRANCH 127 128
ATOM    128  OG  SER A  33       1.783 -14.769  30.246  0.00  0.00    +0.000 OA
ATOM    129  HG  SER A  33       2.725 -14.696  30.961  0.00  0.00    +0.000 HD
ENDBRANCH 127 128
ENDBRANCH  77 127
ENDBRANCH  75  77
ENDBRANCH  72  73
BRANCH  72 130
ATOM    130  CB  ASN A  32       1.109 -18.280  33.865  0.00  0.00    +0.000 C 
BRANCH 130 131
ATOM    131  CG  ASN A  32       1.550 -17.012  34.596  0.00  0.00    +0.000 C 
ATOM    132  OD1 ASN A  32       1.867 -16.012  33.946  0.00  0.00    +0.000 OA
ATOM    133  ND2 ASN A  32       2.202 -17.304  35.726  0.00  0.00    +0.000 N 
ATOM    134 HD21 ASN A  32       3.353 -17.594  35.810  0.00  0.00    +0.000 HD
ATOM    135 HD22 ASN A  32       1.858 -16.636  36.649  0.00  0.00    +0.000 HD
ENDBRANCH 130 131
ENDBRANCH  72 130
ENDBRANCH  70  72
ENDBRANCH  67  68
BRANCH  67 136
ATOM    136  CB  SER A  31       0.610 -20.501  38.471  0.00  0.00    +0.000 C 
BRANCH 136 137
ATOM    137  OG  SER A  31       0.822 -19.194  37.999  0.00  0.00    +0.000 OA
ATOM    138  HG  SER A  31       1.056 -18.464  38.903  0.00  0.00    +0.000 HD
ENDBRANCH 136 137
ENDBRANCH  67 136
ENDBRANCH  65  67
ENDBRANCH  62  63
BRANCH  62 139
ATOM    139  CB  GLU A  30       0.202 -22.821  42.800  0.00  0.00    +0.000 C 
BRANCH 139 140
ATOM    140  CG  GLU A  30       1.170 -22.632  41.625  0.00  0.00    +0.000 C 
BRANCH 140 141
ATOM    141  CD  GLU A  30       2.648 -22.623  42.036  0.00  0.00    +0.000 C 
ATOM    142  OE1 GLU A  30       3.300 -23.658  41.794  0.00  0.00    +0.000 OA
ATOM    143  OE2 GLU A  30       3.177 -21.526  42.315  0.00  0.00    +0.000 OA
ENDBRANCH 140 141
ENDBRANCH 139 140
ENDBRANCH  62 139
ENDBRANCH  60  62
ENDBRANCH  57  58
BRANCH  57 144
ATOM    144  CB  LEU A  29       0.056 -25.273  46.552  0.00  0.00    +0.000 C 
BRANCH 144 145
ATOM    145  CG  LEU A  29       1.105 -25.421  47.662  0.00  0.00    +0.000 C 
ATOM    146  CD1 LEU A  29       2.519 -25.204  47.124  0.00  0.00    +0.000 C 
ATOM    147  CD2 LEU A  29       1.008 -26.685  48.508  0.00  0.00    +0.000 C 
ENDBRANCH 144 145
ENDBRANCH  57 144
ENDBRANCH  55  57
ENDBRANCH  52  53
ENDBRANCH  50  52
ENDBRANCH  47  48
BRANCH  47 148
ATOM    148  CB  SER A  27      -0.704 -30.017  55.544  0.00  0.00    +0.000 C 
BRANCH 148 149
ATOM    149  OG  SER A  27      -0.320 -28.659  55.615  0.00  0.00    +0.000 OA
ATOM    150  HG  SER A  27       0.146 -28.401  56.673  0.00  0.00    +0.000 HD
ENDBRANCH 148 149
ENDBRANCH  47 148
ENDBRANCH  45  47
ENDBRANCH  42  43
BRANCH  42 151
ATOM    151  CB  SER A  26      -1.241 -32.024  59.932  0.00  0.00    +0.000 C 
BRANCH 151 152
ATOM    152  OG  SER A  26      -0.906 -30.679  59.666  0.00  0.00    +0.000 OA
ATOM    153  HG  SER A  26       0.266 -30.562  59.542  0.00  0.00    +0.000 HD
ENDBRANCH 151 152
ENDBRANCH  42 151
ENDBRANCH  40  42
ENDBRANCH  37  38
BRANCH  37 154
ATOM    154  CB  LYS A  25      -1.967 -34.689  63.850  0.00  0.00    +0.000 C 
BRANCH 154 155
ATOM    155  CG  LYS A  25      -1.148 -33.403  63.905  0.00  0.00    +0.000 C 
BRANCH 155 156
ATOM    156  CD  LYS A  25       0.324 -33.782  63.718  0.00  0.00    +0.000 C 
BRANCH 156 157
ATOM    157  CE  LYS A  25       1.175 -32.524  63.861  0.00  0.00    +0.000 C 
BRANCH 157 158
ATOM    158  NZ  LYS A  25       1.962 -32.288  62.643  0.00  0.00    +0.000 N 
ATOM    159  HZ1 LYS A  25       1.917 -32.906  61.618  0.00  0.00    +0.000 HD
ATOM    160  HZ2 LYS A  25       1.931 -31.143  62.288  0.00  0.00    +0.000 HD
ATOM    161  HZ3 LYS A  25       3.132 -32.423  62.880  0.00  0.00    +0.000 HD
ENDBRANCH 157 158
ENDBRANCH 156 157
ENDBRANCH 155 156
ENDBRANCH 154 155
ENDBRANCH  37 154
ENDBRANCH  35  37
ENDBRANCH  32  33
BRANCH  32 162
ATOM    162  CB  ILE A  24      -2.015 -36.421  68.410  0.00  0.00    +0.000 C 
ATOM    163  CG2 ILE A  24      -1.262 -35.761  67.271  0.00  0.00    +0.000 C 
BRANCH 162 164
ATOM    164  CG1 ILE A  24      -1.135 -37.511  69.031  0.00  0.00    +0.000 C 
ATOM    165  CD1 ILE A  24       0.355 -37.181  69.209  0.00  0.00    +0.000 C 
ENDBRANCH 162 164
ENDBRANCH  32 162
ENDBRANCH  30  32
ENDBRANCH  27  28
BRANCH  27 166
ATOM    166  CB  SER A  23      -3.019 -37.966  73.194  0.00  0.00    +0.000 C 
BRANCH 166 167
ATOM    167  OG  SER A  23      -2.077 -37.417  72.312  0.00  0.00    +0.000 OA
ATOM    168  HG  SER A  23      -1.312 -36.725  72.899  0.00  0.00    +0.000 HD
ENDBRANCH 166 167
ENDBRANCH  27 166
ENDBRANCH  25  27
ENDBRANCH  22  23
ENDBRANCH  20  22
ENDBRANCH  17  18
BRANCH  17 169
ATOM    169  CB  ARG A  21      -3.665 -42.743  81.821  0.00  0.00    +0.000 C 
BRANCH 169 170
ATOM    170  CG  ARG A  21      -2.317 -43.488  81.751  0.00  0.00    +0.000 C 
BRANCH 170 171
ATOM    171  CD  ARG A  21      -2.392 -44.987  81.533  0.00  0.00    +0.000 C 
BRANCH 171 172
ATOM    172  NE  ARG A  21      -1.694 -45.292  80.294  0.00  0.00    +0.000 N 
ATOM    173  HE  ARG A  21      -2.216 -45.722  79.314  0.00  0.00    +0.000 HD
ATOM    174  CZ  ARG A  21      -0.369 -45.268  80.163  0.00  0.00    +0.000 C 
ATOM    175  NH1 ARG A  21       0.268 -44.106  79.951  0.00  0.00    +0.000 N 
ATOM    176 HH11 ARG A  21       0.165 -42.930  79.805  0.00  0.00    +0.000 HD
ATOM    177 HH12 ARG A  21       1.415 -44.246  79.653  0.00  0.00    +0.000 HD
ATOM    178  NH2 ARG A  21       0.255 -46.446  80.038  0.00  0.00    +0.000 N 
ATOM    179 HH21 ARG A  21       0.451 -47.233  80.908  0.00  0.00    +0.000 HD
ATOM    180 HH22 ARG A  21       0.676 -46.868  79.008  0.00  0.00    +0.000 HD
ENDBRANCH 171 172
ENDBRANCH 170 171
ENDBRANCH 169 170
ENDBRANCH  17 169
ENDBRANCH  15  17
ENDBRANCH  12  13
ENDBRANCH   5   6
BRANCH   5 181
ATOM    181  CB  VAL A  19      -3.913 -47.772  90.152  0.00  0.00    +0.000 C 
ATOM    182  CG1 VAL A  19      -2.916 -48.558  89.288  0.00  0.00    +0.000 C 
ATOM    183  CG2 VAL A  19      -3.549 -46.302  90.208  0.00  0.00    +0.000 C 
ENDBRANCH   5 181
ENDBRANCH   3   5
BRANCH   1 184
ATOM    184  CA  LEU A  18      -5.436 -50.425  93.907  0.00  0.00    +0.000 C 
BRANCH 184 187
ATOM    185  C   SER A  17      -6.029 -52.340  96.474  0.00  0.00    +0.000 C 
ATOM    186  O   SER A  17      -6.674 -53.235  95.966  0.00  0.00    +0.000 OA
ATOM    187  N   LEU A  18      -5.744 -51.194  95.402  0.00  0.00    +0.000 N 
ATOM    188  H   LEU A  18      -6.329 -50.397  96.062  0.00  0.00    +0.000 HD
BRANCH 185 189
ATOM    189  CA  SER A  17      -5.870 -52.731  98.201  0.00  0.00    +0.000 C 
BRANCH 189 192
ATOM    190  C   SER A  16      -6.398 -54.721 100.719  0.00  0.00    +0.000 C 
ATOM    191  O   SER A  16      -6.719 -55.751 100.127  0.00  0.00    +0.000 OA
ATOM    192  N   SER A  17      -6.218 -53.527  99.688  0.00  0.00    +0.000 N 
ATOM    193  H   SER A  17      -6.793 -52.725 100.348  0.00  0.00    +0.000 HD
BRANCH 190 194
ATOM    194  CA  SER A  16      -6.426 -55.066 102.468  0.00  0.00    +0.000 C 
BRANCH 194 197
ATOM    195  C   GLY A  15      -6.859 -57.124 104.919  0.00  0.00    +0.000 C 
ATOM    196  O   GLY A  15      -6.458 -58.164 104.420  0.00  0.00    +0.000 OA
ATOM    197  N   SER A  16      -6.805 -55.944 103.882  0.00  0.00    +0.000 N 
ATOM    198  H   SER A  16      -7.774 -55.432 104.341  0.00  0.00    +0.000 HD
BRANCH 195 199
ATOM    199  CA  GLY A  15      -7.212 -57.477 106.607  0.00  0.00    +0.000 C 
BRANCH 199 202
ATOM    200  C   ASN A  14      -7.480 -59.555 109.101  0.00  0.00    +0.000 C 
ATOM    201  O   ASN A  14      -8.087 -60.494 108.604  0.00  0.00    +0.000 OA
ATOM    202  N   GLY A  15      -7.204 -58.412 108.043  0.00  0.00    +0.000 N 
ATOM    203  H   GLY A  15      -6.279 -57.859 108.534  0.00  0.00    +0.000 HD
BRANCH 200 204
ATOM    204  CA  ASN A  14      -7.297 -59.936 110.826  0.00  0.00    +0.000 C 
BRANCH 204 207
ATOM    205  C   LEU A  13      -7.925 -61.962 113.359  0.00  0.00    +0.000 C 
ATOM    206  O   LEU A  13      -8.694 -62.827 112.917  0.00  0.00    +0.000 OA
ATOM    207  N   ASN A  14      -7.687 -60.795 112.286  0.00  0.00    +0.000 N 
ATOM    208  H   ASN A  14      -8.382 -60.032 112.874  0.00  0.00    +0.000 HD
BRANCH 205 209
ATOM    209  CA  LEU A  13      -7.615 -62.438 115.038  0.00  0.00    +0.000 C 
BRANCH 209 212
ATOM    210  C   HIS A  12      -8.327 -64.465 117.567  0.00  0.00    +0.000 C 
ATOM    211  O   HIS A  12      -9.138 -65.241 117.119  0.00  0.00    +0.000 OA
ATOM    212  N   LEU A  13      -8.008 -63.272 116.520  0.00  0.00    +0.000 N 
ATOM    213  H   LEU A  13      -9.046 -62.770 116.810  0.00  0.00    +0.000 HD
BRANCH 210 214
ATOM    214  CA  HIS A  12      -8.222 -64.930 119.290  0.00  0.00    +0.000 C 
BRANCH 214 217
ATOM    215  C   HIS A  11      -8.941 -66.987 121.821  0.00  0.00    +0.000 C 
ATOM    216  O   HIS A  11      -9.669 -67.890 121.412  0.00  0.00    +0.000 OA
ATOM    217  N   HIS A  12      -8.647 -65.820 120.731  0.00  0.00    +0.000 N 
ATOM    218  H   HIS A  12      -9.639 -65.281 121.100  0.00  0.00    +0.000 HD
BRANCH 215 219
ATOM    219  CA  HIS A  11      -8.746 -67.443 123.547  0.00  0.00    +0.000 C 
BRANCH 219 222
ATOM    220  C   HIS A  10      -9.370 -69.457 126.117  0.00  0.00    +0.000 C 
ATOM    221  O   HIS A  10     -10.030 -70.390 125.667  0.00  0.00    +0.000 OA
ATOM    222  N   HIS A  11      -9.115 -68.292 125.030  0.00  0.00    +0.000 N 
ATOM    223  H   HIS A  11     -10.127 -67.777 125.377  0.00  0.00    +0.000 HD
BRANCH 220 224
ATOM    224  CA  HIS A  10      -9.170 -69.851 127.838  0.00  0.00    +0.000 C 
BRANCH 224 227
ATOM    225  C   HIS A   9      -9.789 -71.804 130.410  0.00  0.00    +0.000 C 
ATOM    226  O   HIS A   9     -10.385 -72.776 129.955  0.00  0.00    +0.000 OA
ATOM    227  N   HIS A  10      -9.543 -70.656 129.322  0.00  0.00    +0.000 N 
ATOM    228  H   HIS A  10     -10.491 -70.074 129.737  0.00  0.00    +0.000 HD
BRANCH 225 229
ATOM    229  CA  HIS A   9      -9.562 -72.180 132.126  0.00  0.00    +0.000 C 
BRANCH 229 232
ATOM    230  C   HIS A   8     -10.145 -74.139 134.689  0.00  0.00    +0.000 C 
ATOM    231  O   HIS A   8     -10.766 -75.113 134.274  0.00  0.00    +0.000 OA
ATOM    232  N   HIS A   9      -9.918 -72.994 133.604  0.00  0.00    +0.000 N 
ATOM    233  H   HIS A   9     -10.918 -72.470 133.973  0.00  0.00    +0.000 HD
BRANCH 230 234
ATOM    234  CA  HIS A   8      -9.921 -74.476 136.402  0.00  0.00    +0.000 C 
BRANCH 234 237
ATOM    235  C   HIS A   7     -10.504 -76.393 138.964  0.00  0.00    +0.000 C 
ATOM    236  O   HIS A   7     -11.151 -77.364 138.585  0.00  0.00    +0.000 OA
ATOM    237  N   HIS A   8     -10.281 -75.269 137.874  0.00  0.00    +0.000 N 
ATOM    238  H   HIS A   8     -11.307 -74.765 138.201  0.00  0.00    +0.000 HD
BRANCH 235 239
ATOM    239  CA  HIS A   7     -10.241 -76.703 140.666  0.00  0.00    +0.000 C 
BRANCH 239 242
ATOM    240  C   HIS A   6     -10.810 -78.574 143.214  0.00  0.00    +0.000 C 
ATOM    241  O   HIS A   6     -11.549 -79.497 142.882  0.00  0.00    +0.000 OA
ATOM    242  N   HIS A   7     -10.589 -77.472 142.136  0.00  0.00    +0.000 N 
ATOM    243  H   HIS A   7     -11.532 -76.876 142.546  0.00  0.00    +0.000 HD
BRANCH 240 244
ATOM    244  CA  HIS A   6     -10.487 -78.806 144.887  0.00  0.00    +0.000 C 
BRANCH 244 247
ATOM    245  C   HIS A   5     -11.054 -80.582 147.397  0.00  0.00    +0.000 C 
ATOM    246  O   HIS A   5     -11.879 -81.466 147.139  0.00  0.00    +0.000 OA
ATOM    247  N   HIS A   6     -10.831 -79.507 146.346  0.00  0.00    +0.000 N 
ATOM    248  H   HIS A   6     -11.673 -78.818 146.825  0.00  0.00    +0.000 HD
BRANCH 245 249
ATOM    249  CA  HIS A   5     -10.660 -80.713 149.032  0.00  0.00    +0.000 C 
BRANCH 249 252
ATOM    250  C   SER A   4     -11.210 -82.494 151.426  0.00  0.00    +0.000 C 
ATOM    251  O   SER A   4     -11.741 -83.553 151.101  0.00  0.00    +0.000 OA
ATOM    252  N   HIS A   5     -11.010 -81.395 150.450  0.00  0.00    +0.000 N 
ATOM    253  H   HIS A   5     -11.663 -80.592 151.035  0.00  0.00    +0.000 HD
BRANCH 250 254
ATOM    254  CA  SER A   4     -10.864 -82.509 153.035  0.00  0.00    +0.000 C 
BRANCH 254 257
ATOM    255  C   SER A   3     -11.363 -84.210 155.395  0.00  0.00    +0.000 C 
ATOM    256  O   SER A   3     -11.799 -85.292 155.036  0.00  0.00    +0.000 OA
ATOM    257  N   SER A   4     -11.213 -83.129 154.444  0.00  0.00    +0.000 N 
ATOM    258  H   SER A   4     -11.839 -82.288 155.007  0.00  0.00    +0.000 HD
BRANCH 255 259
ATOM    259  CA  SER A   3     -11.094 -84.157 156.993  0.00  0.00    +0.000 C 
BRANCH 259 262
ATOM    260  C   GLY A   2     -11.651 -85.898 159.169  0.00  0.00    +0.000 C 
ATOM    261  O   GLY A   2     -11.533 -87.058 158.769  0.00  0.00    +0.000 OA
ATOM    262  N   SER A   3     -11.522 -84.780 158.333  0.00  0.00    +0.000 N 
ATOM    263  H   SER A   3     -12.525 -84.252 158.701  0.00  0.00    +0.000 HD
BRANCH 260 264
ATOM    264  CA  GLY A   2     -11.274 -85.697 160.685  0.00  0.00    +0.000 C 
BRANCH 264 267
ATOM    265  C   MET A   1     -12.016 -87.433 162.619  0.00  0.00    +0.000 C 
ATOM    266  O   MET A   1     -12.923 -88.143 162.172  0.00  0.00    +0.000 OA
ATOM    267  N   GLY A   2     -11.203 -86.669 161.819  0.00  0.00    +0.000 N 
ATOM    268  H   GLY A   2     -10.253 -87.348 161.589  0.00  0.00    +0.000 HD
BRANCH 265 269
ATOM    269  CA  MET A   1     -11.799 -87.433 164.146  0.00  0.00    +0.000 C 
BRANCH 269 270
ATOM    270  N   MET A   1     -12.939 -88.039 164.870  0.00  0.00    +0.000 N 
ATOM    271  H   MET A   1     -13.936 -87.415 164.624  0.00  0.00    +0.000 HD
ATOM    272  H2  MET A   1     -13.149 -89.151 164.471  0.00  0.00    +0.000 HD
ATOM    273  H3  MET A   1     -13.141 -88.168 166.045  0.00  0.00    +0.000 HD
ENDBRANCH 269 270
BRANCH 269 274
ATOM    274  CB  MET A   1     -10.499 -88.056 164.693  0.00  0.00    +0.000 C 
BRANCH 274 275
ATOM    275  CG  MET A   1     -10.628 -88.342 166.191  0.00  0.00    +0.000 C 
BRANCH 275 276
ATOM    276  SD  MET A   1      -9.192 -88.105 167.283  0.00  0.00    +0.000 S 
ATOM    277  CE  MET A   1      -8.084 -86.978 166.385  0.00  0.00    +0.000 C 
ENDBRANCH 275 276
ENDBRANCH 274 275
ENDBRANCH 269 274
ENDBRANCH 265 269
ENDBRANCH 264 267
ENDBRANCH 260 264
ENDBRANCH 259 262
BRANCH 259 278
ATOM    278  CB  SER A   3      -9.657 -83.816 157.382  0.00  0.00    +0.000 C 
BRANCH 278 279
ATOM    279  OG  SER A   3      -9.634 -82.476 157.789  0.00  0.00    +0.000 OA
ATOM    280  HG  SER A   3      -8.864 -82.314 158.675  0.00  0.00    +0.000 HD
ENDBRANCH 278 279
ENDBRANCH 259 278
ENDBRANCH 255 259
ENDBRANCH 254 257
BRANCH 254 281
ATOM    281  CB  SER A   4      -9.392 -82.201 153.274  0.00  0.00    +0.000 C 
BRANCH 281 282
ATOM    282  OG  SER A   4      -9.271 -81.211 154.270  0.00  0.00    +0.000 OA
ATOM    283  HG  SER A   4      -8.897 -80.195 153.792  0.00  0.00    +0.000 HD
ENDBRANCH 281 282
ENDBRANCH 254 281
ENDBRANCH 250 254
ENDBRANCH 249 252
BRANCH 249 284
ATOM    284  CB  HIS A   5      -9.163 -80.550 149.344  0.00  0.00    +0.000 C 
BRANCH 284 285
ATOM    285  CG  HIS A   5      -8.698 -79.208 149.872  0.00  0.00    +0.000 C 
ATOM    286  ND1 HIS A   5      -8.138 -78.926 151.109  0.00  0.00    +0.000 N 
ATOM    287  HD1 HIS A   5      -7.266 -79.524 151.649  0.00  0.00    +0.000 HD
ATOM    288  CE1 HIS A   5      -7.898 -77.600 151.143  0.00  0.00    +0.000 C 
ATOM    289  NE2 HIS A   5      -8.271 -77.026 149.992  0.00  0.00    +0.000 NA
ATOM    290  CD2 HIS A   5      -8.767 -78.036 149.167  0.00  0.00    +0.000 C 
ENDBRANCH 284 285
ENDBRANCH 249 284
ENDBRANCH 245 249
ENDBRANCH 244 247
BRANCH 244 291
ATOM    291  CB  HIS A   6      -8.971 -78.617 145.060  0.00  0.00    +0.000 C 
BRANCH 291 292
ATOM    292  CG  HIS A   6      -8.536 -77.214 145.434  0.00  0.00    +0.000 C 
ATOM    293  ND1 HIS A   6      -7.818 -76.857 146.562  0.00  0.00    +0.000 N 
ATOM    294  HD1 HIS A   6      -6.834 -77.426 146.911  0.00  0.00    +0.000 HD
ATOM    295  CE1 HIS A   6      -7.629 -75.521 146.538  0.00  0.00    +0.000 C 
ATOM    296  NE2 HIS A   6      -8.184 -74.999 145.437  0.00  0.00    +0.000 NA
ATOM    297  CD2 HIS A   6      -8.774 -76.055 144.735  0.00  0.00    +0.000 C 
ENDBRANCH 291 292
ENDBRANCH 244 291
ENDBRANCH 240 244
ENDBRANCH 239 242
BRANCH 239 298
ATOM    298  CB  HIS A   7      -8.734 -76.455 140.827  0.00  0.00    +0.000 C 
BRANCH 298 299
ATOM    299  CG  HIS A   7      -8.293 -75.047 141.182  0.00  0.00    +0.000 C 
ATOM    300  ND1 HIS A   7      -7.576 -74.680 142.308  0.00  0.00    +0.000 N 
ATOM    301  HD1 HIS A   7      -6.656 -75.325 142.696  0.00  0.00    +0.000 HD
ATOM    302  CE1 HIS A   7      -7.309 -73.364 142.210  0.00  0.00    +0.000 C 
ATOM    303  NE2 HIS A   7      -7.854 -72.862 141.095  0.00  0.00    +0.000 NA
ATOM    304  CD2 HIS A   7      -8.518 -73.908 140.449  0.00  0.00    +0.000 C 
ENDBRANCH 298 299
ENDBRANCH 239 298
ENDBRANCH 235 239
ENDBRANCH 234 237
BRANCH 234 305
ATOM    305  CB  HIS A   8      -8.420 -74.207 136.577  0.00  0.00    +0.000 C 
BRANCH 305 306
ATOM    306  CG  HIS A   8      -7.963 -72.794 136.896  0.00  0.00    +0.000 C 
ATOM    307  ND1 HIS A   8      -7.236 -72.433 138.017  0.00  0.00    +0.000 N 
ATOM    308  HD1 HIS A   8      -6.296 -73.050 138.403  0.00  0.00    +0.000 HD
ATOM    309  CE1 HIS A   8      -6.942 -71.123 137.912  0.00  0.00    +0.000 C 
ATOM    310  NE2 HIS A   8      -7.479 -70.618 136.794  0.00  0.00    +0.000 NA
ATOM    311  CD2 HIS A   8      -8.166 -71.654 136.154  0.00  0.00    +0.000 C 
ENDBRANCH 305 306
ENDBRANCH 234 305
ENDBRANCH 230 234
ENDBRANCH 229 232
BRANCH 229 312
ATOM    312  CB  HIS A   9      -8.052 -71.927 132.272  0.00  0.00    +0.000 C 
BRANCH 312 313
ATOM    313  CG  HIS A   9      -7.587 -70.515 132.592  0.00  0.00    +0.000 C 
ATOM    314  ND1 HIS A   9      -6.863 -70.158 133.716  0.00  0.00    +0.000 N 
ATOM    315  HD1 HIS A   9      -5.938 -70.801 134.097  0.00  0.00    +0.000 HD
ATOM    316  CE1 HIS A   9      -6.561 -68.849 133.619  0.00  0.00    +0.000 C 
ATOM    317  NE2 HIS A   9      -7.090 -68.336 132.501  0.00  0.00    +0.000 NA
ATOM    318  CD2 HIS A   9      -7.779 -69.369 131.856  0.00  0.00    +0.000 C 
ENDBRANCH 312 313
ENDBRANCH 229 312
ENDBRANCH 225 229
ENDBRANCH 224 227
BRANCH 224 319
ATOM    319  CB  HIS A  10      -7.657 -69.618 127.973  0.00  0.00    +0.000 C 
BRANCH 319 320
ATOM    320  CG  HIS A  10      -7.183 -68.212 128.290  0.00  0.00    +0.000 C 
ATOM    321  ND1 HIS A  10      -6.456 -67.867 129.413  0.00  0.00    +0.000 N 
ATOM    322  HD1 HIS A  10      -5.533 -68.508 129.798  0.00  0.00    +0.000 HD
ATOM    323  CE1 HIS A  10      -6.163 -66.555 129.337  0.00  0.00    +0.000 C 
ATOM    324  NE2 HIS A  10      -6.686 -66.031 128.221  0.00  0.00    +0.000 NA
ATOM    325  CD2 HIS A  10      -7.362 -67.062 127.559  0.00  0.00    +0.000 C 
ENDBRANCH 319 320
ENDBRANCH 224 319
ENDBRANCH 220 224
ENDBRANCH 219 222
BRANCH 219 326
ATOM    326  CB  HIS A  11      -7.234 -67.253 123.713  0.00  0.00    +0.000 C 
BRANCH 326 327
ATOM    327  CG  HIS A  11      -6.717 -65.854 124.018  0.00  0.00    +0.000 C 
ATOM    328  ND1 HIS A  11      -5.984 -65.504 125.140  0.00  0.00    +0.000 N 
ATOM    329  HD1 HIS A  11      -5.061 -66.135 125.545  0.00  0.00    +0.000 HD
ATOM    330  CE1 HIS A  11      -5.710 -64.186 125.079  0.00  0.00    +0.000 C 
ATOM    331  NE2 HIS A  11      -6.217 -63.666 123.955  0.00  0.00    +0.000 NA
ATOM    332  CD2 HIS A  11      -6.862 -64.705 123.273  0.00  0.00    +0.000 C 
ENDBRANCH 326 327
ENDBRANCH 219 326
ENDBRANCH 215 219
ENDBRANCH 214 217
BRANCH 214 333
ATOM    333  CB  HIS A  12      -6.727 -64.698 119.554  0.00  0.00    +0.000 C 
BRANCH 333 334
ATOM    334  CG  HIS A  12      -6.249 -63.282 119.854  0.00  0.00    +0.000 C 
ATOM    335  ND1 HIS A  12      -5.466 -62.922 120.944  0.00  0.00    +0.000 N 
ATOM    336  HD1 HIS A  12      -4.557 -63.512 121.432  0.00  0.00    +0.000 HD
ATOM    337  CE1 HIS A  12      -5.140 -61.623 120.796  0.00  0.00    +0.000 C 
ATOM    338  NE2 HIS A  12      -5.715 -61.115 119.700  0.00  0.00    +0.000 NA
ATOM    339  CD2 HIS A  12      -6.481 -62.133 119.124  0.00  0.00    +0.000 C 
ENDBRANCH 333 334
ENDBRANCH 214 333
ENDBRANCH 210 214
ENDBRANCH 209 212
BRANCH 209 340
ATOM    340  CB  LEU A  13      -6.093 -62.197 114.913  0.00  0.00    +0.000 C 
BRANCH 340 341
ATOM    341  CG  LEU A  13      -5.099 -62.464 116.045  0.00  0.00    +0.000 C 
ATOM    342  CD1 LEU A  13      -3.650 -62.235 115.620  0.00  0.00    +0.000 C 
ATOM    343  CD2 LEU A  13      -5.248 -63.845 116.669  0.00  0.00    +0.000 C 
ENDBRANCH 340 341
ENDBRANCH 209 340
ENDBRANCH 205 209
ENDBRANCH 204 207
BRANCH 204 344
ATOM    344  CB  ASN A  14      -5.802 -59.631 111.028  0.00  0.00    +0.000 C 
BRANCH 344 345
ATOM    345  CG  ASN A  14      -5.494 -58.317 111.752  0.00  0.00    +0.000 C 
ATOM    346  OD1 ASN A  14      -5.033 -57.339 111.138  0.00  0.00    +0.000 OA
ATOM    347  ND2 ASN A  14      -4.993 -58.588 112.955  0.00  0.00    +0.000 N 
ATOM    348 HD21 ASN A  14      -4.778 -57.562 113.524  0.00  0.00    +0.000 HD
ATOM    349 HD22 ASN A  14      -4.388 -59.401 113.572  0.00  0.00    +0.000 HD
ENDBRANCH 344 345
ENDBRANCH 204 344
ENDBRANCH 200 204
ENDBRANCH 199 202
ENDBRANCH 195 199
ENDBRANCH 194 197
BRANCH 194 350
ATOM    350  CB  SER A  16      -5.152 -54.532 103.124  0.00  0.00    +0.000 C 
BRANCH 350 351
ATOM    351  OG  SER A  16      -4.624 -53.494 102.343  0.00  0.00    +0.000 OA
ATOM    352  HG  SER A  16      -4.243 -52.608 103.033  0.00  0.00    +0.000 HD
ENDBRANCH 350 351
ENDBRANCH 194 350
ENDBRANCH 190 194
ENDBRANCH 189 192
BRANCH 189 353
ATOM    353  CB  SER A  17      -4.388 -52.500  98.448  0.00  0.00    +0.000 C 
BRANCH 353 354
ATOM    354  OG  SER A  17      -4.156 -51.135  98.688  0.00  0.00    +0.000 OA
ATOM    355  HG  SER A  17      -3.859 -50.946  99.821  0.00  0.00    +0.000 HD
ENDBRANCH 353 354
ENDBRANCH 189 353
ENDBRANCH 185 189
ENDBRANCH 184 187
BRANCH 184 356
ATOM    356  CB  LEU A  18      -3.906 -50.313  93.731  0.00  0.00    +0.000 C 
BRANCH 356 357
ATOM    357  CG  LEU A  18      -2.849 -50.625  94.793  0.00  0.00    +0.000 C 
ATOM    358  CD1 LEU A  18      -1.460 -50.499  94.170  0.00  0.00    +0.000 C 
ATOM    359  CD2 LEU A  18      -3.032 -51.962  95.512  0.00  0.00    +0.000 C 
ENDBRANCH 356 357
ENDBRANCH 184 356
ENDBRANCH   1 184
TORSDOF 146
REMARK  Name = /Users/acegid/Desktop/Smoking_Research/Docking/Docking_All_PDB/All_PDB/6AXD_H.pdb
REMARK  305 active torsions:
REMARK  status: ('A' for Active; 'I' for Inactive)
REMARK    1  A    between atoms: N_1  and  CA_5
REMARK    2  A    between atoms: CA_5  and  CB_7
REMARK    3  A    between atoms: CA_5  and  C_18
REMARK    4  A    between atoms: CB_7  and  CG_10
REMARK    5  A    between atoms: CG_10  and  SD_13
REMARK    6  A    between atoms: SD_13  and  CE_14
REMARK    7  A    between atoms: N_20  and  CA_22
REMARK    8  A    between atoms: CA_22  and  C_25
REMARK    9  A    between atoms: N_27  and  CA_29
REMARK   10  A    between atoms: CA_29  and  CB_31
REMARK   11  A    between atoms: CA_29  and  C_36
REMARK   12  A    between atoms: CB_31  and  OG_34
REMARK   13  A    between atoms: N_38  and  CA_40
REMARK   14  A    between atoms: CA_40  and  CB_42
REMARK   15  A    between atoms: CA_40  and  C_47
REMARK   16  A    between atoms: CB_42  and  OG_45
REMARK   17  A    between atoms: N_49  and  CA_51
REMARK   18  A    between atoms: CA_51  and  CB_53
REMARK   19  A    between atoms: CA_51  and  C_64
REMARK   20  A    between atoms: CB_53  and  CG_56
REMARK   21  A    between atoms: N_66  and  CA_68
REMARK   22  A    between atoms: CA_68  and  CB_70
REMARK   23  A    between atoms: CA_68  and  C_81
REMARK   24  A    between atoms: CB_70  and  CG_73
REMARK   25  A    between atoms: N_83  and  CA_85
REMARK   26  A    between atoms: CA_85  and  CB_87
REMARK   27  A    between atoms: CA_85  and  C_98
REMARK   28  A    between atoms: CB_87  and  CG_90
REMARK   29  A    between atoms: N_100  and  CA_102
REMARK   30  A    between atoms: CA_102  and  CB_104
REMARK   31  A    between atoms: CA_102  and  C_115
REMARK   32  A    between atoms: CB_104  and  CG_107
REMARK   33  A    between atoms: N_117  and  CA_119
REMARK   34  A    between atoms: CA_119  and  CB_121
REMARK   35  A    between atoms: CA_119  and  C_132
REMARK   36  A    between atoms: CB_121  and  CG_124
REMARK   37  A    between atoms: N_134  and  CA_136
REMARK   38  A    between atoms: CA_136  and  CB_138
REMARK   39  A    between atoms: CA_136  and  C_149
REMARK   40  A    between atoms: CB_138  and  CG_141
REMARK   41  A    between atoms: N_151  and  CA_153
REMARK   42  A    between atoms: CA_153  and  CB_155
REMARK   43  A    between atoms: CA_153  and  C_166
REMARK   44  A    between atoms: CB_155  and  CG_158
REMARK   45  A    between atoms: N_168  and  CA_170
REMARK   46  A    between atoms: CA_170  and  CB_172
REMARK   47  A    between atoms: CA_170  and  C_183
REMARK   48  A    between atoms: CB_172  and  CG_175
REMARK   49  A    between atoms: N_185  and  CA_187
REMARK   50  A    between atoms: CA_187  and  CB_189
REMARK   51  A    between atoms: CA_187  and  C_202
REMARK   52  A    between atoms: CB_189  and  CG_192
REMARK   53  A    between atoms: CG_192  and  CD1_194
REMARK   54  A    between atoms: CG_192  and  CD2_198
REMARK   55  A    between atoms: N_204  and  CA_206
REMARK   56  A    between atoms: CA_206  and  CB_208
REMARK   57  A    between atoms: CA_206  and  C_216
REMARK   58  A    between atoms: CB_208  and  CG_211
REMARK   59  A    between atoms: N_218  and  CA_220
REMARK   60  A    between atoms: CA_220  and  C_223
REMARK   61  A    between atoms: N_225  and  CA_227
REMARK   62  A    between atoms: CA_227  and  CB_229
REMARK   63  A    between atoms: CA_227  and  C_234
REMARK   64  A    between atoms: CB_229  and  OG_232
REMARK   65  A    between atoms: N_236  and  CA_238
REMARK   66  A    between atoms: CA_238  and  CB_240
REMARK   67  A    between atoms: CA_238  and  C_245
REMARK   68  A    between atoms: CB_240  and  OG_243
REMARK   69  A    between atoms: N_247  and  CA_249
REMARK   70  A    between atoms: CA_249  and  CB_251
REMARK   71  A    between atoms: CA_249  and  C_264
REMARK   72  A    between atoms: CB_251  and  CG_254
REMARK   73  A    between atoms: CG_254  and  CD1_256
REMARK   74  A    between atoms: CG_254  and  CD2_260
REMARK   75  A    between atoms: N_266  and  CA_268
REMARK   76  A    between atoms: CA_268  and  CB_270
REMARK   77  A    between atoms: CA_268  and  C_280
REMARK   78  A    between atoms: CB_270  and  CG1_272
REMARK   79  A    between atoms: CB_270  and  CG2_276
REMARK   80  A    between atoms: CA_292  and  C_294
REMARK   81  A    between atoms: N_296  and  CA_298
REMARK   82  A    between atoms: CA_298  and  CB_300
REMARK   83  A    between atoms: CA_298  and  C_318
REMARK   84  A    between atoms: CB_300  and  CG_303
REMARK   85  A    between atoms: CG_303  and  CD_306
REMARK   86  A    between atoms: CD_306  and  NE_309
REMARK   87  A    between atoms: N_320  and  CA_322
REMARK   88  A    between atoms: CA_322  and  C_325
REMARK   89  A    between atoms: N_327  and  CA_329
REMARK   90  A    between atoms: CA_329  and  CB_331
REMARK   91  A    between atoms: CA_329  and  C_336
REMARK   92  A    between atoms: CB_331  and  OG_334
REMARK   93  A    between atoms: N_338  and  CA_340
REMARK   94  A    between atoms: CA_340  and  CB_342
REMARK   95  A    between atoms: CA_340  and  C_355
REMARK   96  A    between atoms: CB_342  and  CG2_344
REMARK   97  A    between atoms: CB_342  and  CG1_348
REMARK   98  A    between atoms: CG1_348  and  CD1_351
REMARK   99  A    between atoms: N_357  and  CA_359
REMARK  100  A    between atoms: CA_359  and  CB_361
REMARK  101  A    between atoms: CA_359  and  C_377
REMARK  102  A    between atoms: CB_361  and  CG_364
REMARK  103  A    between atoms: CG_364  and  CD_367
REMARK  104  A    between atoms: CD_367  and  CE_370
REMARK  105  A    between atoms: CE_370  and  NZ_373
REMARK  106  A    between atoms: N_379  and  CA_381
REMARK  107  A    between atoms: CA_381  and  CB_383
REMARK  108  A    between atoms: CA_381  and  C_388
REMARK  109  A    between atoms: CB_383  and  OG_386
REMARK  110  A    between atoms: N_390  and  CA_392
REMARK  111  A    between atoms: CA_392  and  CB_394
REMARK  112  A    between atoms: CA_392  and  C_399
REMARK  113  A    between atoms: CB_394  and  OG_397
REMARK  114  A    between atoms: N_401  and  CA_403
REMARK  115  A    between atoms: CA_403  and  C_406
REMARK  116  A    between atoms: N_408  and  CA_410
REMARK  117  A    between atoms: CA_410  and  CB_412
REMARK  118  A    between atoms: CA_410  and  C_425
REMARK  119  A    between atoms: CB_412  and  CG_415
REMARK  120  A    between atoms: CG_415  and  CD1_417
REMARK  121  A    between atoms: CG_415  and  CD2_421
REMARK  122  A    between atoms: N_427  and  CA_429
REMARK  123  A    between atoms: CA_429  and  CB_431
REMARK  124  A    between atoms: CA_429  and  C_440
REMARK  125  A    between atoms: CB_431  and  CG_434
REMARK  126  A    between atoms: CG_434  and  CD_437
REMARK  127  A    between atoms: N_442  and  CA_444
REMARK  128  A    between atoms: CA_444  and  CB_446
REMARK  129  A    between atoms: CA_444  and  C_451
REMARK  130  A    between atoms: CB_446  and  OG_449
REMARK  131  A    between atoms: N_453  and  CA_455
REMARK  132  A    between atoms: CA_455  and  CB_457
REMARK  133  A    between atoms: CA_455  and  C_465
REMARK  134  A    between atoms: CB_457  and  CG_460
REMARK  135  A    between atoms: N_467  and  CA_469
REMARK  136  A    between atoms: CA_469  and  CB_471
REMARK  137  A    between atoms: CA_469  and  C_476
REMARK  138  A    between atoms: CB_471  and  OG_474
REMARK  139  A    between atoms: N_478  and  CA_480
REMARK  140  A    between atoms: CA_480  and  CB_482
REMARK  141  A    between atoms: CA_480  and  C_488
REMARK  142  A    between atoms: CB_482  and  CG_485
REMARK  143  A    between atoms: N_490  and  CA_492
REMARK  144  A    between atoms: CA_492  and  CB_494
REMARK  145  A    between atoms: CA_492  and  C_498
REMARK  146  A    between atoms: N_500  and  CA_502
REMARK  147  A    between atoms: CA_502  and  C_505
REMARK  148  A    between atoms: N_507  and  CA_509
REMARK  149  A    between atoms: CA_509  and  CB_511
REMARK  150  A    between atoms: CA_509  and  C_524
REMARK  151  A    between atoms: CB_511  and  CG2_513
REMARK  152  A    between atoms: CB_511  and  CG1_517
REMARK  153  A    between atoms: CG1_517  and  CD1_520
REMARK  154  A    between atoms: N_526  and  CA_528
REMARK  155  A    between atoms: CA_528  and  CB_530
REMARK  156  A    between atoms: CA_528  and  C_538
REMARK  157  A    between atoms: CB_530  and  CG_533
REMARK  158  A    between atoms: N_540  and  CA_542
REMARK  159  A    between atoms: CA_542  and  CB_544
REMARK  160  A    between atoms: CB_544  and  CG_547
REMARK  161  A    between atoms: CG_547  and  CD1_549
REMARK  162  A    between atoms: CG_547  and  CD2_553
REMARK  163  A    between atoms: N_559  and  CA_560
REMARK  164  A    between atoms: CA_560  and  C_561
REMARK  165  A    between atoms: CA_560  and  CB_563
REMARK  166  A    between atoms: CB_563  and  CG1_564
REMARK  167  A    between atoms: CB_563  and  CG2_565
REMARK  168  A    between atoms: CG1_564  and  CD1_566
REMARK  169  A    between atoms: N_578  and  CA_579
REMARK  170  A    between atoms: CA_579  and  C_580
REMARK  171  A    between atoms: CA_579  and  CB_582
REMARK  172  A    between atoms: N_588  and  CA_589
REMARK  173  A    between atoms: CA_589  and  C_590
REMARK  174  A    between atoms: CA_589  and  CB_592
REMARK  175  A    between atoms: CB_592  and  CG_593
REMARK  176  A    between atoms: CG_593  and  CD1_594
REMARK  177  A    between atoms: CG_593  and  CD2_595
REMARK  178  A    between atoms: CA_608  and  C_609
REMARK  179  A    between atoms: N_621  and  CA_622
REMARK  180  A    between atoms: CA_622  and  C_623
REMARK  181  A    between atoms: CA_622  and  CB_625
REMARK  182  A    between atoms: N_631  and  CA_632
REMARK  183  A    between atoms: CA_632  and  C_633
REMARK  184  A    between atoms: CA_632  and  CB_635
REMARK  185  A    between atoms: CB_635  and  CG_636
REMARK  186  A    between atoms: N_651  and  CA_652
REMARK  187  A    between atoms: CA_652  and  C_653
REMARK  188  A    between atoms: CA_652  and  CB_655
REMARK  189  A    between atoms: CB_655  and  OG_656
REMARK  190  A    between atoms: N_662  and  CA_663
REMARK  191  A    between atoms: CA_663  and  C_664
REMARK  192  A    between atoms: CA_663  and  CB_666
REMARK  193  A    between atoms: CB_666  and  CG_667
REMARK  194  A    between atoms: CG_667  and  CD_668
REMARK  195  A    between atoms: N_679  and  CA_680
REMARK  196  A    between atoms: CA_680  and  C_681
REMARK  197  A    between atoms: CA_680  and  CB_683
REMARK  198  A    between atoms: CB_683  and  CG1_684
REMARK  199  A    between atoms: CB_683  and  CG2_685
REMARK  200  A    between atoms: N_695  and  CA_696
REMARK  201  A    between atoms: CA_696  and  C_697
REMARK  202  A    between atoms: CA_696  and  CB_699
REMARK  203  A    between atoms: CB_699  and  CG_700
REMARK  204  A    between atoms: CA_708  and  C_709
REMARK  205  A    between atoms: N_721  and  CA_722
REMARK  206  A    between atoms: CA_722  and  C_723
REMARK  207  A    between atoms: CA_722  and  CB_725
REMARK  208  A    between atoms: CB_725  and  CG_726
REMARK  209  A    between atoms: CG_726  and  CD_727
REMARK  210  A    between atoms: N_736  and  CA_737
REMARK  211  A    between atoms: CA_737  and  C_738
REMARK  212  A    between atoms: CA_737  and  CB_740
REMARK  213  A    between atoms: CB_740  and  CG1_741
REMARK  214  A    between atoms: CB_740  and  CG2_742
REMARK  215  A    between atoms: N_752  and  CA_753
REMARK  216  A    between atoms: CA_753  and  C_754
REMARK  217  A    between atoms: CA_753  and  CB_756
REMARK  218  A    between atoms: CB_756  and  CG_757
REMARK  219  A    between atoms: N_772  and  CA_773
REMARK  220  A    between atoms: CA_773  and  C_774
REMARK  221  A    between atoms: CA_773  and  CB_776
REMARK  222  A    between atoms: N_782  and  CA_783
REMARK  223  A    between atoms: CA_783  and  C_784
REMARK  224  A    between atoms: CA_783  and  CB_786
REMARK  225  A    between atoms: N_792  and  CA_793
REMARK  226  A    between atoms: CA_793  and  C_794
REMARK  227  A    between atoms: CA_793  and  CB_796
REMARK  228  A    between atoms: CB_796  and  CG_797
REMARK  229  A    between atoms: CG_797  and  CD1_798
REMARK  230  A    between atoms: CG_797  and  CD2_799
REMARK  231  A    between atoms: CA_812  and  C_813
REMARK  232  A    between atoms: N_825  and  CA_826
REMARK  233  A    between atoms: CA_826  and  C_827
REMARK  234  A    between atoms: CA_826  and  CB_829
REMARK  235  A    between atoms: N_835  and  CA_836
REMARK  236  A    between atoms: CA_836  and  C_837
REMARK  237  A    between atoms: CA_836  and  CB_839
REMARK  238  A    between atoms: CB_839  and  CG_840
REMARK  239  A    between atoms: CG_840  and  CD_841
REMARK  240  A    between atoms: N_850  and  CA_851
REMARK  241  A    between atoms: CA_851  and  C_852
REMARK  242  A    between atoms: CA_851  and  CB_854
REMARK  243  A    between atoms: CB_854  and  CG_855
REMARK  244  A    between atoms: CG_855  and  CD1_856
REMARK  245  A    between atoms: CG_855  and  CD2_857
REMARK  246  A    between atoms: N_869  and  CA_870
REMARK  247  A    between atoms: CA_870  and  C_871
REMARK  248  A    between atoms: CA_870  and  CB_873
REMARK  249  A    between atoms: CB_873  and  CG_874
REMARK  250  A    between atoms: CG_874  and  CD_875
REMARK  251  A    between atoms: N_886  and  CA_887
REMARK  252  A    between atoms: CA_887  and  C_888
REMARK  253  A    between atoms: CA_887  and  CB_890
REMARK  254  A    between atoms: CB_890  and  CG_891
REMARK  255  A    between atoms: CG_891  and  CD_892
REMARK  256  A    between atoms: CD_892  and  NE_893
REMARK  257  A    between atoms: N_910  and  CA_911
REMARK  258  A    between atoms: CA_911  and  C_912
REMARK  259  A    between atoms: CA_911  and  CB_914
REMARK  260  A    between atoms: CB_914  and  CG_915
REMARK  261  A    between atoms: CG_915  and  CD_916
REMARK  262  A    between atoms: N_925  and  CA_926
REMARK  263  A    between atoms: CA_926  and  C_927
REMARK  264  A    between atoms: CA_926  and  CB_929
REMARK  265  A    between atoms: CB_929  and  CG_930
REMARK  266  A    between atoms: CG_930  and  CD1_931
REMARK  267  A    between atoms: CG_930  and  CD2_932
REMARK  268  A    between atoms: N_944  and  CA_945
REMARK  269  A    between atoms: CA_945  and  C_946
REMARK  270  A    between atoms: CA_945  and  CB_948
REMARK  271  A    between atoms: CB_948  and  CG_949
REMARK  272  A    between atoms: CG_949  and  CD_950
REMARK  273  A    between atoms: CD_950  and  CE_951
REMARK  274  A    between atoms: CE_951  and  NZ_952
REMARK  275  A    between atoms: N_966  and  CA_967
REMARK  276  A    between atoms: CA_967  and  C_968
REMARK  277  A    between atoms: CA_967  and  CB_970
REMARK  278  A    between atoms: N_976  and  CA_977
REMARK  279  A    between atoms: CA_977  and  C_978
REMARK  280  A    between atoms: CA_977  and  CB_980
REMARK  281  A    between atoms: N_986  and  CA_987
REMARK  282  A    between atoms: CA_987  and  C_988
REMARK  283  A    between atoms: CA_987  and  CB_990
REMARK  284  A    between atoms: CB_990  and  CG_991
REMARK  285  A    between atoms: CZ_996  and  OH_997
REMARK  286  A    between atoms: N_1007  and  CA_1008
REMARK  287  A    between atoms: CA_1008  and  C_1009
REMARK  288  A    between atoms: CA_1008  and  CB_1011
REMARK  289  A    between atoms: CB_1011  and  CG_1012
REMARK  290  A    between atoms: N_1019  and  CA_1020
REMARK  291  A    between atoms: CA_1020  and  C_1021
REMARK  292  A    between atoms: CA_1020  and  CB_1023
REMARK  293  A    between atoms: CB_1023  and  CG_1024
REMARK  294  A    between atoms: CG_1024  and  CD_1025
REMARK  295  A    between atoms: N_1036  and  CA_1037
REMARK  296  A    between atoms: CA_1037  and  C_1038
REMARK  297  A    between atoms: CA_1037  and  CB_1040
REMARK  298  A    between atoms: CB_1040  and  CG_1041
REMARK  299  A    between atoms: CG_1041  and  CD_1042
REMARK  300  A    between atoms: CD_1042  and  NE_1043
REMARK  301  A    between atoms: N_1060  and  CA_1061
REMARK  302  A    between atoms: CA_1061  and  C_1062
REMARK  303  A    between atoms: CA_1061  and  CB_1064
REMARK  304  A    between atoms: CB_1064  and  CG_1065
REMARK  305  A    between atoms: CG_1065  and  CD_1066
REMARK                            x       y       z     vdW  Elec       q    Type
REMARK                         _______ _______ _______ _____ _____    ______ ____
ROOT
ATOM      1  C   LEU A  39       1.089  -1.087   1.197  0.00  0.00    +0.000 C 
ATOM      2  O   LEU A  39       0.016  -1.592   0.925  0.00  0.00    +0.000 OA
ENDROOT
TORSDOF 0
REMARK  Name = /Users/acegid/Desktop/Smoking_Research/Docking/Docking_All_PDB/All_PDB/6AXD_H.pdb
REMARK  305 active torsions:
REMARK  status: ('A' for Active; 'I' for Inactive)
REMARK    1  A    between atoms: N_1  and  CA_5
REMARK    2  A    between atoms: CA_5  and  CB_7
REMARK    3  A    between atoms: CA_5  and  C_18
REMARK    4  A    between atoms: CB_7  and  CG_10
REMARK    5  A    between atoms: CG_10  and  SD_13
REMARK    6  A    between atoms: SD_13  and  CE_14
REMARK    7  A    between atoms: N_20  and  CA_22
REMARK    8  A    between atoms: CA_22  and  C_25
REMARK    9  A    between atoms: N_27  and  CA_29
REMARK   10  A    between atoms: CA_29  and  CB_31
REMARK   11  A    between atoms: CA_29  and  C_36
REMARK   12  A    between atoms: CB_31  and  OG_34
REMARK   13  A    between atoms: N_38  and  CA_40
REMARK   14  A    between atoms: CA_40  and  CB_42
REMARK   15  A    between atoms: CA_40  and  C_47
REMARK   16  A    between atoms: CB_42  and  OG_45
REMARK   17  A    between atoms: N_49  and  CA_51
REMARK   18  A    between atoms: CA_51  and  CB_53
REMARK   19  A    between atoms: CA_51  and  C_64
REMARK   20  A    between atoms: CB_53  and  CG_56
REMARK   21  A    between atoms: N_66  and  CA_68
REMARK   22  A    between atoms: CA_68  and  CB_70
REMARK   23  A    between atoms: CA_68  and  C_81
REMARK   24  A    between atoms: CB_70  and  CG_73
REMARK   25  A    between atoms: N_83  and  CA_85
REMARK   26  A    between atoms: CA_85  and  CB_87
REMARK   27  A    between atoms: CA_85  and  C_98
REMARK   28  A    between atoms: CB_87  and  CG_90
REMARK   29  A    between atoms: N_100  and  CA_102
REMARK   30  A    between atoms: CA_102  and  CB_104
REMARK   31  A    between atoms: CA_102  and  C_115
REMARK   32  A    between atoms: CB_104  and  CG_107
REMARK   33  A    between atoms: N_117  and  CA_119
REMARK   34  A    between atoms: CA_119  and  CB_121
REMARK   35  A    between atoms: CA_119  and  C_132
REMARK   36  A    between atoms: CB_121  and  CG_124
REMARK   37  A    between atoms: N_134  and  CA_136
REMARK   38  A    between atoms: CA_136  and  CB_138
REMARK   39  A    between atoms: CA_136  and  C_149
REMARK   40  A    between atoms: CB_138  and  CG_141
REMARK   41  A    between atoms: N_151  and  CA_153
REMARK   42  A    between atoms: CA_153  and  CB_155
REMARK   43  A    between atoms: CA_153  and  C_166
REMARK   44  A    between atoms: CB_155  and  CG_158
REMARK   45  A    between atoms: N_168  and  CA_170
REMARK   46  A    between atoms: CA_170  and  CB_172
REMARK   47  A    between atoms: CA_170  and  C_183
REMARK   48  A    between atoms: CB_172  and  CG_175
REMARK   49  A    between atoms: N_185  and  CA_187
REMARK   50  A    between atoms: CA_187  and  CB_189
REMARK   51  A    between atoms: CA_187  and  C_202
REMARK   52  A    between atoms: CB_189  and  CG_192
REMARK   53  A    between atoms: CG_192  and  CD1_194
REMARK   54  A    between atoms: CG_192  and  CD2_198
REMARK   55  A    between atoms: N_204  and  CA_206
REMARK   56  A    between atoms: CA_206  and  CB_208
REMARK   57  A    between atoms: CA_206  and  C_216
REMARK   58  A    between atoms: CB_208  and  CG_211
REMARK   59  A    between atoms: N_218  and  CA_220
REMARK   60  A    between atoms: CA_220  and  C_223
REMARK   61  A    between atoms: N_225  and  CA_227
REMARK   62  A    between atoms: CA_227  and  CB_229
REMARK   63  A    between atoms: CA_227  and  C_234
REMARK   64  A    between atoms: CB_229  and  OG_232
REMARK   65  A    between atoms: N_236  and  CA_238
REMARK   66  A    between atoms: CA_238  and  CB_240
REMARK   67  A    between atoms: CA_238  and  C_245
REMARK   68  A    between atoms: CB_240  and  OG_243
REMARK   69  A    between atoms: N_247  and  CA_249
REMARK   70  A    between atoms: CA_249  and  CB_251
REMARK   71  A    between atoms: CA_249  and  C_264
REMARK   72  A    between atoms: CB_251  and  CG_254
REMARK   73  A    between atoms: CG_254  and  CD1_256
REMARK   74  A    between atoms: CG_254  and  CD2_260
REMARK   75  A    between atoms: N_266  and  CA_268
REMARK   76  A    between atoms: CA_268  and  CB_270
REMARK   77  A    between atoms: CA_268  and  C_280
REMARK   78  A    between atoms: CB_270  and  CG1_272
REMARK   79  A    between atoms: CB_270  and  CG2_276
REMARK   80  A    between atoms: CA_292  and  C_294
REMARK   81  A    between atoms: N_296  and  CA_298
REMARK   82  A    between atoms: CA_298  and  CB_300
REMARK   83  A    between atoms: CA_298  and  C_318
REMARK   84  A    between atoms: CB_300  and  CG_303
REMARK   85  A    between atoms: CG_303  and  CD_306
REMARK   86  A    between atoms: CD_306  and  NE_309
REMARK   87  A    between atoms: N_320  and  CA_322
REMARK   88  A    between atoms: CA_322  and  C_325
REMARK   89  A    between atoms: N_327  and  CA_329
REMARK   90  A    between atoms: CA_329  and  CB_331
REMARK   91  A    between atoms: CA_329  and  C_336
REMARK   92  A    between atoms: CB_331  and  OG_334
REMARK   93  A    between atoms: N_338  and  CA_340
REMARK   94  A    between atoms: CA_340  and  CB_342
REMARK   95  A    between atoms: CA_340  and  C_355
REMARK   96  A    between atoms: CB_342  and  CG2_344
REMARK   97  A    between atoms: CB_342  and  CG1_348
REMARK   98  A    between atoms: CG1_348  and  CD1_351
REMARK   99  A    between atoms: N_357  and  CA_359
REMARK  100  A    between atoms: CA_359  and  CB_361
REMARK  101  A    between atoms: CA_359  and  C_377
REMARK  102  A    between atoms: CB_361  and  CG_364
REMARK  103  A    between atoms: CG_364  and  CD_367
REMARK  104  A    between atoms: CD_367  and  CE_370
REMARK  105  A    between atoms: CE_370  and  NZ_373
REMARK  106  A    between atoms: N_379  and  CA_381
REMARK  107  A    between atoms: CA_381  and  CB_383
REMARK  108  A    between atoms: CA_381  and  C_388
REMARK  109  A    between atoms: CB_383  and  OG_386
REMARK  110  A    between atoms: N_390  and  CA_392
REMARK  111  A    between atoms: CA_392  and  CB_394
REMARK  112  A    between atoms: CA_392  and  C_399
REMARK  113  A    between atoms: CB_394  and  OG_397
REMARK  114  A    between atoms: N_401  and  CA_403
REMARK  115  A    between atoms: CA_403  and  C_406
REMARK  116  A    between atoms: N_408  and  CA_410
REMARK  117  A    between atoms: CA_410  and  CB_412
REMARK  118  A    between atoms: CA_410  and  C_425
REMARK  119  A    between atoms: CB_412  and  CG_415
REMARK  120  A    between atoms: CG_415  and  CD1_417
REMARK  121  A    between atoms: CG_415  and  CD2_421
REMARK  122  A    between atoms: N_427  and  CA_429
REMARK  123  A    between atoms: CA_429  and  CB_431
REMARK  124  A    between atoms: CA_429  and  C_440
REMARK  125  A    between atoms: CB_431  and  CG_434
REMARK  126  A    between atoms: CG_434  and  CD_437
REMARK  127  A    between atoms: N_442  and  CA_444
REMARK  128  A    between atoms: CA_444  and  CB_446
REMARK  129  A    between atoms: CA_444  and  C_451
REMARK  130  A    between atoms: CB_446  and  OG_449
REMARK  131  A    between atoms: N_453  and  CA_455
REMARK  132  A    between atoms: CA_455  and  CB_457
REMARK  133  A    between atoms: CA_455  and  C_465
REMARK  134  A    between atoms: CB_457  and  CG_460
REMARK  135  A    between atoms: N_467  and  CA_469
REMARK  136  A    between atoms: CA_469  and  CB_471
REMARK  137  A    between atoms: CA_469  and  C_476
REMARK  138  A    between atoms: CB_471  and  OG_474
REMARK  139  A    between atoms: N_478  and  CA_480
REMARK  140  A    between atoms: CA_480  and  CB_482
REMARK  141  A    between atoms: CA_480  and  C_488
REMARK  142  A    between atoms: CB_482  and  CG_485
REMARK  143  A    between atoms: N_490  and  CA_492
REMARK  144  A    between atoms: CA_492  and  CB_494
REMARK  145  A    between atoms: CA_492  and  C_498
REMARK  146  A    between atoms: N_500  and  CA_502
REMARK  147  A    between atoms: CA_502  and  C_505
REMARK  148  A    between atoms: N_507  and  CA_509
REMARK  149  A    between atoms: CA_509  and  CB_511
REMARK  150  A    between atoms: CA_509  and  C_524
REMARK  151  A    between atoms: CB_511  and  CG2_513
REMARK  152  A    between atoms: CB_511  and  CG1_517
REMARK  153  A    between atoms: CG1_517  and  CD1_520
REMARK  154  A    between atoms: N_526  and  CA_528
REMARK  155  A    between atoms: CA_528  and  CB_530
REMARK  156  A    between atoms: CA_528  and  C_538
REMARK  157  A    between atoms: CB_530  and  CG_533
REMARK  158  A    between atoms: N_540  and  CA_542
REMARK  159  A    between atoms: CA_542  and  CB_544
REMARK  160  A    between atoms: CB_544  and  CG_547
REMARK  161  A    between atoms: CG_547  and  CD1_549
REMARK  162  A    between atoms: CG_547  and  CD2_553
REMARK  163  A    between atoms: N_559  and  CA_560
REMARK  164  A    between atoms: CA_560  and  C_561
REMARK  165  A    between atoms: CA_560  and  CB_563
REMARK  166  A    between atoms: CB_563  and  CG1_564
REMARK  167  A    between atoms: CB_563  and  CG2_565
REMARK  168  A    between atoms: CG1_564  and  CD1_566
REMARK  169  A    between atoms: N_578  and  CA_579
REMARK  170  A    between atoms: CA_579  and  C_580
REMARK  171  A    between atoms: CA_579  and  CB_582
REMARK  172  A    between atoms: N_588  and  CA_589
REMARK  173  A    between atoms: CA_589  and  C_590
REMARK  174  A    between atoms: CA_589  and  CB_592
REMARK  175  A    between atoms: CB_592  and  CG_593
REMARK  176  A    between atoms: CG_593  and  CD1_594
REMARK  177  A    between atoms: CG_593  and  CD2_595
REMARK  178  A    between atoms: CA_608  and  C_609
REMARK  179  A    between atoms: N_621  and  CA_622
REMARK  180  A    between atoms: CA_622  and  C_623
REMARK  181  A    between atoms: CA_622  and  CB_625
REMARK  182  A    between atoms: N_631  and  CA_632
REMARK  183  A    between atoms: CA_632  and  C_633
REMARK  184  A    between atoms: CA_632  and  CB_635
REMARK  185  A    between atoms: CB_635  and  CG_636
REMARK  186  A    between atoms: N_651  and  CA_652
REMARK  187  A    between atoms: CA_652  and  C_653
REMARK  188  A    between atoms: CA_652  and  CB_655
REMARK  189  A    between atoms: CB_655  and  OG_656
REMARK  190  A    between atoms: N_662  and  CA_663
REMARK  191  A    between atoms: CA_663  and  C_664
REMARK  192  A    between atoms: CA_663  and  CB_666
REMARK  193  A    between atoms: CB_666  and  CG_667
REMARK  194  A    between atoms: CG_667  and  CD_668
REMARK  195  A    between atoms: N_679  and  CA_680
REMARK  196  A    between atoms: CA_680  and  C_681
REMARK  197  A    between atoms: CA_680  and  CB_683
REMARK  198  A    between atoms: CB_683  and  CG1_684
REMARK  199  A    between atoms: CB_683  and  CG2_685
REMARK  200  A    between atoms: N_695  and  CA_696
REMARK  201  A    between atoms: CA_696  and  C_697
REMARK  202  A    between atoms: CA_696  and  CB_699
REMARK  203  A    between atoms: CB_699  and  CG_700
REMARK  204  A    between atoms: CA_708  and  C_709
REMARK  205  A    between atoms: N_721  and  CA_722
REMARK  206  A    between atoms: CA_722  and  C_723
REMARK  207  A    between atoms: CA_722  and  CB_725
REMARK  208  A    between atoms: CB_725  and  CG_726
REMARK  209  A    between atoms: CG_726  and  CD_727
REMARK  210  A    between atoms: N_736  and  CA_737
REMARK  211  A    between atoms: CA_737  and  C_738
REMARK  212  A    between atoms: CA_737  and  CB_740
REMARK  213  A    between atoms: CB_740  and  CG1_741
REMARK  214  A    between atoms: CB_740  and  CG2_742
REMARK  215  A    between atoms: N_752  and  CA_753
REMARK  216  A    between atoms: CA_753  and  C_754
REMARK  217  A    between atoms: CA_753  and  CB_756
REMARK  218  A    between atoms: CB_756  and  CG_757
REMARK  219  A    between atoms: N_772  and  CA_773
REMARK  220  A    between atoms: CA_773  and  C_774
REMARK  221  A    between atoms: CA_773  and  CB_776
REMARK  222  A    between atoms: N_782  and  CA_783
REMARK  223  A    between atoms: CA_783  and  C_784
REMARK  224  A    between atoms: CA_783  and  CB_786
REMARK  225  A    between atoms: N_792  and  CA_793
REMARK  226  A    between atoms: CA_793  and  C_794
REMARK  227  A    between atoms: CA_793  and  CB_796
REMARK  228  A    between atoms: CB_796  and  CG_797
REMARK  229  A    between atoms: CG_797  and  CD1_798
REMARK  230  A    between atoms: CG_797  and  CD2_799
REMARK  231  A    between atoms: CA_812  and  C_813
REMARK  232  A    between atoms: N_825  and  CA_826
REMARK  233  A    between atoms: CA_826  and  C_827
REMARK  234  A    between atoms: CA_826  and  CB_829
REMARK  235  A    between atoms: N_835  and  CA_836
REMARK  236  A    between atoms: CA_836  and  C_837
REMARK  237  A    between atoms: CA_836  and  CB_839
REMARK  238  A    between atoms: CB_839  and  CG_840
REMARK  239  A    between atoms: CG_840  and  CD_841
REMARK  240  A    between atoms: N_850  and  CA_851
REMARK  241  A    between atoms: CA_851  and  C_852
REMARK  242  A    between atoms: CA_851  and  CB_854
REMARK  243  A    between atoms: CB_854  and  CG_855
REMARK  244  A    between atoms: CG_855  and  CD1_856
REMARK  245  A    between atoms: CG_855  and  CD2_857
REMARK  246  A    between atoms: N_869  and  CA_870
REMARK  247  A    between atoms: CA_870  and  C_871
REMARK  248  A    between atoms: CA_870  and  CB_873
REMARK  249  A    between atoms: CB_873  and  CG_874
REMARK  250  A    between atoms: CG_874  and  CD_875
REMARK  251  A    between atoms: N_886  and  CA_887
REMARK  252  A    between atoms: CA_887  and  C_888
REMARK  253  A    between atoms: CA_887  and  CB_890
REMARK  254  A    between atoms: CB_890  and  CG_891
REMARK  255  A    between atoms: CG_891  and  CD_892
REMARK  256  A    between atoms: CD_892  and  NE_893
REMARK  257  A    between atoms: N_910  and  CA_911
REMARK  258  A    between atoms: CA_911  and  C_912
REMARK  259  A    between atoms: CA_911  and  CB_914
REMARK  260  A    between atoms: CB_914  and  CG_915
REMARK  261  A    between atoms: CG_915  and  CD_916
REMARK  262  A    between atoms: N_925  and  CA_926
REMARK  263  A    between atoms: CA_926  and  C_927
REMARK  264  A    between atoms: CA_926  and  CB_929
REMARK  265  A    between atoms: CB_929  and  CG_930
REMARK  266  A    between atoms: CG_930  and  CD1_931
REMARK  267  A    between atoms: CG_930  and  CD2_932
REMARK  268  A    between atoms: N_944  and  CA_945
REMARK  269  A    between atoms: CA_945  and  C_946
REMARK  270  A    between atoms: CA_945  and  CB_948
REMARK  271  A    between atoms: CB_948  and  CG_949
REMARK  272  A    between atoms: CG_949  and  CD_950
REMARK  273  A    between atoms: CD_950  and  CE_951
REMARK  274  A    between atoms: CE_951  and  NZ_952
REMARK  275  A    between atoms: N_966  and  CA_967
REMARK  276  A    between atoms: CA_967  and  C_968
REMARK  277  A    between atoms: CA_967  and  CB_970
REMARK  278  A    between atoms: N_976  and  CA_977
REMARK  279  A    between atoms: CA_977  and  C_978
REMARK  280  A    between atoms: CA_977  and  CB_980
REMARK  281  A    between atoms: N_986  and  CA_987
REMARK  282  A    between atoms: CA_987  and  C_988
REMARK  283  A    between atoms: CA_987  and  CB_990
REMARK  284  A    between atoms: CB_990  and  CG_991
REMARK  285  A    between atoms: CZ_996  and  OH_997
REMARK  286  A    between atoms: N_1007  and  CA_1008
REMARK  287  A    between atoms: CA_1008  and  C_1009
REMARK  288  A    between atoms: CA_1008  and  CB_1011
REMARK  289  A    between atoms: CB_1011  and  CG_1012
REMARK  290  A    between atoms: N_1019  and  CA_1020
REMARK  291  A    between atoms: CA_1020  and  C_1021
REMARK  292  A    between atoms: CA_1020  and  CB_1023
REMARK  293  A    between atoms: CB_1023  and  CG_1024
REMARK  294  A    between atoms: CG_1024  and  CD_1025
REMARK  295  A    between atoms: N_1036  and  CA_1037
REMARK  296  A    between atoms: CA_1037  and  C_1038
REMARK  297  A    between atoms: CA_1037  and  CB_1040
REMARK  298  A    between atoms: CB_1040  and  CG_1041
REMARK  299  A    between atoms: CG_1041  and  CD_1042
REMARK  300  A    between atoms: CD_1042  and  NE_1043
REMARK  301  A    between atoms: N_1060  and  CA_1061
REMARK  302  A    between atoms: CA_1061  and  C_1062
REMARK  303  A    between atoms: CA_1061  and  CB_1064
REMARK  304  A    between atoms: CB_1064  and  CG_1065
REMARK  305  A    between atoms: CG_1065  and  CD_1066
REMARK                            x       y       z     vdW  Elec       q    Type
REMARK                         _______ _______ _______ _____ _____    ______ ____
ROOT
ATOM      1  C   ALA A  58       0.921  12.546   3.746  0.00  0.00    +0.000 C 
ATOM      2  O   ALA A  58       1.792  11.825   3.260  0.00  0.00    +0.000 OA
ATOM      3  N   GLU A  59       0.467  12.397   4.987  0.00  0.00    +0.000 N 
ATOM      4  H   GLU A  59      -0.229  13.003   5.317  0.00  0.00    +0.000 HD
ENDROOT
BRANCH   1   5
ATOM      5  CA  ALA A  58       0.301  13.677   2.933  0.00  0.00    +0.000 C 
ATOM      6  CB  ALA A  58       0.995  14.995   3.244  0.00  0.00    +0.000 C 
BRANCH   5   9
ATOM      7  C   PRO A  57      -1.932  12.728   3.119  0.00  0.00    +0.000 C 
ATOM      8  O   PRO A  57      -1.531  11.601   2.833  0.00  0.00    +0.000 OA
ATOM      9  N   ALA A  58      -1.129  13.785   3.190  0.00  0.00    +0.000 N 
ATOM     10  H   ALA A  58      -1.509  14.658   3.423  0.00  0.00    +0.000 HD
BRANCH   7  14
ATOM     11  C   LEU A  56      -4.414  12.519   1.214  0.00  0.00    +0.000 C 
ATOM     12  O   LEU A  56      -3.789  13.438   0.683  0.00  0.00    +0.000 OA
ATOM     13  N   PRO A  57      -4.291  12.231   2.518  0.00  0.00    +0.000 N 
ATOM     14  CA  PRO A  57      -3.406  12.981   3.414  0.00  0.00    +0.000 C 
ATOM     15  CB  PRO A  57      -3.773  12.448   4.802  0.00  0.00    +0.000 C 
ATOM     16  CG  PRO A  57      -4.316  11.083   4.552  0.00  0.00    +0.000 C 
ATOM     17  CD  PRO A  57      -5.005  11.149   3.217  0.00  0.00    +0.000 C 
BRANCH  11  18
ATOM     18  CA  LEU A  56      -5.374  11.641   0.418  0.00  0.00    +0.000 C 
BRANCH  18  21
ATOM     19  C   ALA A  55      -6.707  13.228  -0.858  0.00  0.00    +0.000 C 
ATOM     20  O   ALA A  55      -7.309  13.606   0.148  0.00  0.00    +0.000 OA
ATOM     21  N   LEU A  56      -5.765  12.292  -0.828  0.00  0.00    +0.000 N 
ATOM     22  H   LEU A  56      -5.321  12.033  -1.661  0.00  0.00    +0.000 HD
BRANCH  19  23
ATOM     23  CA  ALA A  55      -7.019  13.826  -2.226  0.00  0.00    +0.000 C 
ATOM     24  CB  ALA A  55      -8.002  12.943  -2.979  0.00  0.00    +0.000 C 
BRANCH  23  27
ATOM     25  C   ALA A  54      -4.865  14.878  -2.644  0.00  0.00    +0.000 C 
ATOM     26  O   ALA A  54      -4.956  15.580  -1.637  0.00  0.00    +0.000 OA
ATOM     27  N   ALA A  55      -5.802  14.010  -3.008  0.00  0.00    +0.000 N 
ATOM     28  H   ALA A  55      -5.672  13.479  -3.821  0.00  0.00    +0.000 HD
BRANCH  25  29
ATOM     29  CA  ALA A  54      -3.642  14.970  -3.550  0.00  0.00    +0.000 C 
ATOM     30  CB  ALA A  54      -3.698  16.238  -4.389  0.00  0.00    +0.000 C 
BRANCH  29  33
ATOM     31  C   PHE A  53      -3.135  12.622  -3.943  0.00  0.00    +0.000 C 
ATOM     32  O   PHE A  53      -2.822  12.441  -2.767  0.00  0.00    +0.000 OA
ATOM     33  N   ALA A  54      -3.539  13.798  -4.412  0.00  0.00    +0.000 N 
ATOM     34  H   ALA A  54      -3.776  13.880  -5.359  0.00  0.00    +0.000 HD
BRANCH  31  35
ATOM     35  CA  PHE A  53      -3.075  11.480  -4.954  0.00  0.00    +0.000 C 
BRANCH  35  38
ATOM     36  C   VAL A  52      -5.471  11.251  -5.318  0.00  0.00    +0.000 C 
ATOM     37  O   VAL A  52      -5.681  11.028  -4.125  0.00  0.00    +0.000 OA
ATOM     38  N   PHE A  53      -4.257  11.480  -5.808  0.00  0.00    +0.000 N 
ATOM     39  H   PHE A  53      -4.154  11.651  -6.768  0.00  0.00    +0.000 HD
BRANCH  36  40
ATOM     40  CA  VAL A  52      -6.618  11.279  -6.322  0.00  0.00    +0.000 C 
BRANCH  40  43
ATOM     41  C   GLU A  51      -6.752  13.677  -6.719  0.00  0.00    +0.000 C 
ATOM     42  O   GLU A  51      -7.039  13.906  -5.544  0.00  0.00    +0.000 OA
ATOM     43  N   VAL A  52      -6.533  12.452  -7.185  0.00  0.00    +0.000 N 
ATOM     44  H   VAL A  52      -6.308  12.333  -8.131  0.00  0.00    +0.000 HD
BRANCH  41  45
ATOM     45  CA  GLU A  51      -6.629  14.813  -7.730  0.00  0.00    +0.000 C 
BRANCH  45  48
ATOM     46  C   PRO A  50      -4.465  14.032  -8.522  0.00  0.00    +0.000 C 
ATOM     47  O   PRO A  50      -4.038  13.896  -7.376  0.00  0.00    +0.000 OA
ATOM     48  N   GLU A  51      -5.692  14.465  -8.792  0.00  0.00    +0.000 N 
ATOM     49  H   GLU A  51      -5.974  14.553  -9.726  0.00  0.00    +0.000 HD
BRANCH  46  53
ATOM     50  C   ASP A  49      -4.679  11.659 -10.561  0.00  0.00    +0.000 C 
ATOM     51  O   ASP A  49      -4.442  11.050  -9.518  0.00  0.00    +0.000 OA
ATOM     52  N   PRO A  50      -4.305  12.934 -10.745  0.00  0.00    +0.000 N 
ATOM     53  CA  PRO A  50      -3.587  13.703  -9.725  0.00  0.00    +0.000 C 
ATOM     54  CB  PRO A  50      -3.188  14.984 -10.462  0.00  0.00    +0.000 C 
ATOM     55  CG  PRO A  50      -4.194  15.123 -11.552  0.00  0.00    +0.000 C 
ATOM     56  CD  PRO A  50      -4.554  13.723 -11.964  0.00  0.00    +0.000 C 
BRANCH  50  57
ATOM     57  CA  ASP A  49      -5.418  11.000 -11.722  0.00  0.00    +0.000 C 
BRANCH  57  60
ATOM     58  C   VAL A  48      -5.475   8.816 -12.794  0.00  0.00    +0.000 C 
ATOM     59  O   VAL A  48      -5.938   9.283 -13.834  0.00  0.00    +0.000 OA
ATOM     60  N   ASP A  49      -5.194   9.559 -11.729  0.00  0.00    +0.000 N 
ATOM     61  H   ASP A  49      -4.826   9.128 -10.929  0.00  0.00    +0.000 HD
BRANCH  58  62
ATOM     62  CA  VAL A  48      -5.190   7.324 -12.666  0.00  0.00    +0.000 C 
BRANCH  62  65
ATOM     63  C   GLN A  47      -2.845   7.486 -12.036  0.00  0.00    +0.000 C 
ATOM     64  O   GLN A  47      -3.107   8.164 -11.042  0.00  0.00    +0.000 OA
ATOM     65  N   VAL A  48      -3.775   7.039 -12.873  0.00  0.00    +0.000 N 
ATOM     66  H   VAL A  48      -3.504   6.504 -13.648  0.00  0.00    +0.000 HD
BRANCH  63  67
ATOM     67  CA  GLN A  47      -1.404   7.115 -12.370  0.00  0.00    +0.000 C 
BRANCH  67  70
ATOM     68  C   SER A  46       0.030   5.148 -12.339  0.00  0.00    +0.000 C 
ATOM     69  O   SER A  46       0.984   5.775 -12.798  0.00  0.00    +0.000 OA
ATOM     70  N   GLN A  47      -1.154   5.704 -12.100  0.00  0.00    +0.000 N 
ATOM     71  H   GLN A  47      -1.875   5.152 -11.734  0.00  0.00    +0.000 HD
BRANCH  68  72
ATOM     72  CA  SER A  46       0.154   3.663 -12.011  0.00  0.00    +0.000 C 
BRANCH  72  75
ATOM     73  C   PHE A  45       1.188   4.125  -9.857  0.00  0.00    +0.000 C 
ATOM     74  O   PHE A  45       1.956   4.953 -10.346  0.00  0.00    +0.000 OA
ATOM     75  N   SER A  46       0.289   3.459 -10.574  0.00  0.00    +0.000 N 
ATOM     76  H   SER A  46      -0.295   2.812 -10.126  0.00  0.00    +0.000 HD
BRANCH  73  77
ATOM     77  CA  PHE A  45       1.224   3.810  -8.364  0.00  0.00    +0.000 C 
BRANCH  77  80
ATOM     78  C   ALA A  44      -1.177   3.633  -8.012  0.00  0.00    +0.000 C 
ATOM     79  O   ALA A  44      -1.370   4.784  -8.405  0.00  0.00    +0.000 OA
ATOM     80  N   PHE A  45       0.030   3.079  -7.957  0.00  0.00    +0.000 N 
ATOM     81  H   PHE A  45       0.119   2.158  -7.635  0.00  0.00    +0.000 HD
BRANCH  78  82
ATOM     82  CA  ALA A  44      -2.340   2.758  -7.555  0.00  0.00    +0.000 C 
ATOM     83  CB  ALA A  44      -2.686   3.054  -6.103  0.00  0.00    +0.000 C 
BRANCH  82  86
ATOM     84  C   PRO A  43      -1.664   0.847  -8.900  0.00  0.00    +0.000 C 
ATOM     85  O   PRO A  43      -1.562   1.534  -9.916  0.00  0.00    +0.000 OA
ATOM     86  N   ALA A  44      -2.031   1.344  -7.724  0.00  0.00    +0.000 N 
ATOM     87  H   ALA A  44      -2.095   0.745  -6.951  0.00  0.00    +0.000 HD
BRANCH  84  91
ATOM     88  C   LEU A  42      -0.432  -0.999  -6.685  0.00  0.00    +0.000 C 
ATOM     89  O   LEU A  42       0.512  -0.240  -6.908  0.00  0.00    +0.000 OA
ATOM     90  N   PRO A  43      -1.378  -1.252  -7.601  0.00  0.00    +0.000 N 
ATOM     91  CA  PRO A  43      -1.367  -0.648  -8.937  0.00  0.00    +0.000 C 
ATOM     92  CB  PRO A  43      -2.482  -1.397  -9.673  0.00  0.00    +0.000 C 
ATOM     93  CG  PRO A  43      -3.401  -1.861  -8.596  0.00  0.00    +0.000 C 
ATOM     94  CD  PRO A  43      -2.531  -2.145  -7.403  0.00  0.00    +0.000 C 
BRANCH  88  95
ATOM     95  CA  LEU A  42      -0.590  -1.704  -5.341  0.00  0.00    +0.000 C 
BRANCH  95  98
ATOM     96  C   ALA A  41       1.412  -2.854  -4.568  0.00  0.00    +0.000 C 
ATOM     97  O   ALA A  41       1.076  -3.907  -5.111  0.00  0.00    +0.000 OA
ATOM     98  N   LEU A  42       0.680  -1.747  -4.623  0.00  0.00    +0.000 N 
ATOM     99  H   LEU A  42       0.999  -0.939  -4.171  0.00  0.00    +0.000 HD
BRANCH  96 100
ATOM    100  CA  ALA A  41       2.716  -2.760  -3.784  0.00  0.00    +0.000 C 
ATOM    101  CB  ALA A  41       2.881  -3.976  -2.884  0.00  0.00    +0.000 C 
BRANCH 100 104
ATOM    102  C   ILE A  40       1.926  -1.322  -1.987  0.00  0.00    +0.000 C 
ATOM    103  O   ILE A  40       1.057  -2.128  -1.656  0.00  0.00    +0.000 OA
ATOM    104  N   ALA A  41       2.767  -1.536  -2.994  0.00  0.00    +0.000 N 
ATOM    105  H   ALA A  41       3.438  -0.856  -3.209  0.00  0.00    +0.000 HD
BRANCH 102 106
ATOM    106  CA  ILE A  40       2.092  -0.002  -1.242  0.00  0.00    +0.000 C 
BRANCH 106 107
ATOM    107  N   ILE A  40       1.329   0.000   0.000  0.00  0.00    +0.000 NA
ATOM    108  H   ILE A  40       1.807   0.001   0.855  0.00  0.00    +0.000 HD
ENDBRANCH 106 107
BRANCH 106 109
ATOM    109  CB  ILE A  40       3.590   0.243  -0.982  0.00  0.00    +0.000 C 
ATOM    110  CG2 ILE A  40       3.781   1.457  -0.085  0.00  0.00    +0.000 C 
BRANCH 109 111
ATOM    111  CG1 ILE A  40       4.230  -0.996  -0.353  0.00  0.00    +0.000 C 
ATOM    112  CD1 ILE A  40       5.282  -1.643  -1.227  0.00  0.00    +0.000 C 
ENDBRANCH 109 111
ENDBRANCH 106 109
ENDBRANCH 102 106
ENDBRANCH 100 104
ENDBRANCH  96 100
ENDBRANCH  95  98
BRANCH  95 113
ATOM    113  CB  LEU A  42      -1.650  -0.991  -4.500  0.00  0.00    +0.000 C 
BRANCH 113 114
ATOM    114  CG  LEU A  42      -2.362  -1.848  -3.453  0.00  0.00    +0.000 C 
ATOM    115  CD1 LEU A  42      -3.260  -0.985  -2.578  0.00  0.00    +0.000 C 
ATOM    116  CD2 LEU A  42      -3.169  -2.950  -4.123  0.00  0.00    +0.000 C 
ENDBRANCH 113 114
ENDBRANCH  95 113
ENDBRANCH  88  95
ENDBRANCH  84  91
ENDBRANCH  82  86
ENDBRANCH  78  82
ENDBRANCH  77  80
BRANCH  77 117
ATOM    117  CB  PHE A  45       2.480   3.001  -8.033  0.00  0.00    +0.000 C 
BRANCH 117 118
ATOM    118  CG  PHE A  45       2.819   2.991  -6.570  0.00  0.00    +0.000 A 
ATOM    119  CD1 PHE A  45       3.933   3.667  -6.099  0.00  0.00    +0.000 A 
ATOM    120  CD2 PHE A  45       2.024   2.306  -5.666  0.00  0.00    +0.000 A 
ATOM    121  CE1 PHE A  45       4.247   3.661  -4.753  0.00  0.00    +0.000 A 
ATOM    122  CE2 PHE A  45       2.333   2.296  -4.319  0.00  0.00    +0.000 A 
ATOM    123  CZ  PHE A  45       3.447   2.974  -3.862  0.00  0.00    +0.000 A 
ENDBRANCH 117 118
ENDBRANCH  77 117
ENDBRANCH  73  77
ENDBRANCH  72  75
BRANCH  72 124
ATOM    124  CB  SER A  46      -1.066   2.909 -12.543  0.00  0.00    +0.000 C 
BRANCH 124 125
ATOM    125  OG  SER A  46      -1.575   3.523 -13.714  0.00  0.00    +0.000 OA
ATOM    126  HG  SER A  46      -1.397   2.963 -14.473  0.00  0.00    +0.000 HD
ENDBRANCH 124 125
ENDBRANCH  72 124
ENDBRANCH  68  72
ENDBRANCH  67  70
BRANCH  67 127
ATOM    127  CB  GLN A  47      -1.109   7.435 -13.836  0.00  0.00    +0.000 C 
BRANCH 127 128
ATOM    128  CG  GLN A  47       0.143   8.273 -14.037  0.00  0.00    +0.000 C 
BRANCH 128 129
ATOM    129  CD  GLN A  47      -0.164   9.746 -14.219  0.00  0.00    +0.000 C 
ATOM    130  OE1 GLN A  47       0.263  10.365 -15.194  0.00  0.00    +0.000 OA
ATOM    131  NE2 GLN A  47      -0.907  10.317 -13.278  0.00  0.00    +0.000 N 
ATOM    132 HE21 GLN A  47      -1.120  11.268 -13.370  0.00  0.00    +0.000 HD
ATOM    133 HE22 GLN A  47      -1.210   9.763 -12.528  0.00  0.00    +0.000 HD
ENDBRANCH 128 129
ENDBRANCH 127 128
ENDBRANCH  67 127
ENDBRANCH  63  67
ENDBRANCH  62  65
BRANCH  62 134
ATOM    134  CB  VAL A  48      -5.664   6.838 -11.283  0.00  0.00    +0.000 C 
ATOM    135  CG1 VAL A  48      -7.087   7.302 -11.013  0.00  0.00    +0.000 C 
ATOM    136  CG2 VAL A  48      -5.560   5.324 -11.187  0.00  0.00    +0.000 C 
ENDBRANCH  62 134
ENDBRANCH  58  62
ENDBRANCH  57  60
BRANCH  57 137
ATOM    137  CB  ASP A  49      -6.914  11.304 -11.629  0.00  0.00    +0.000 C 
BRANCH 137 138
ATOM    138  CG  ASP A  49      -7.419  12.097 -12.819  0.00  0.00    +0.000 C 
ATOM    139  OD1 ASP A  49      -8.086  13.131 -12.603  0.00  0.00    +0.000 OA
ATOM    140  OD2 ASP A  49      -7.146  11.684 -13.965  0.00  0.00    +0.000 OA
ENDBRANCH 137 138
ENDBRANCH  57 137
ENDBRANCH  50  57
ENDBRANCH  46  53
ENDBRANCH  45  48
BRANCH  45 141
ATOM    141  CB  GLU A  51      -8.004  15.137  -8.319  0.00  0.00    +0.000 C 
BRANCH 141 142
ATOM    142  CG  GLU A  51      -8.175  16.599  -8.695  0.00  0.00    +0.000 C 
BRANCH 142 143
ATOM    143  CD  GLU A  51      -9.283  17.277  -7.912  0.00  0.00    +0.000 C 
ATOM    144  OE1 GLU A  51     -10.448  16.845  -8.037  0.00  0.00    +0.000 OA
ATOM    145  OE2 GLU A  51      -8.985  18.240  -7.175  0.00  0.00    +0.000 OA
ENDBRANCH 142 143
ENDBRANCH 141 142
ENDBRANCH  45 141
ENDBRANCH  41  45
ENDBRANCH  40  43
BRANCH  40 146
ATOM    146  CB  VAL A  52      -6.599   9.976  -7.143  0.00  0.00    +0.000 C 
ATOM    147  CG1 VAL A  52      -7.030   8.797  -6.283  0.00  0.00    +0.000 C 
ATOM    148  CG2 VAL A  52      -7.490  10.106  -8.369  0.00  0.00    +0.000 C 
ENDBRANCH  40 146
ENDBRANCH  36  40
ENDBRANCH  35  38
BRANCH  35 149
ATOM    149  CB  PHE A  53      -1.807  11.600  -5.802  0.00  0.00    +0.000 C 
BRANCH 149 150
ATOM    150  CG  PHE A  53      -0.640  10.837  -5.245  0.00  0.00    +0.000 A 
ATOM    151  CD1 PHE A  53      -0.097   9.770  -5.942  0.00  0.00    +0.000 A 
ATOM    152  CD2 PHE A  53      -0.085  11.187  -4.024  0.00  0.00    +0.000 A 
ATOM    153  CE1 PHE A  53       0.978   9.065  -5.433  0.00  0.00    +0.000 A 
ATOM    154  CE2 PHE A  53       0.990  10.486  -3.511  0.00  0.00    +0.000 A 
ATOM    155  CZ  PHE A  53       1.521   9.424  -4.215  0.00  0.00    +0.000 A 
ENDBRANCH 149 150
ENDBRANCH  35 149
ENDBRANCH  31  35
ENDBRANCH  29  33
ENDBRANCH  25  29
ENDBRANCH  23  27
ENDBRANCH  19  23
ENDBRANCH  18  21
BRANCH  18 156
ATOM    156  CB  LEU A  56      -4.722  10.288   0.125  0.00  0.00    +0.000 C 
BRANCH 156 157
ATOM    157  CG  LEU A  56      -5.679   9.117  -0.103  0.00  0.00    +0.000 C 
ATOM    158  CD1 LEU A  56      -5.121   8.169  -1.154  0.00  0.00    +0.000 C 
ATOM    159  CD2 LEU A  56      -5.939   8.378   1.201  0.00  0.00    +0.000 C 
ENDBRANCH 156 157
ENDBRANCH  18 156
ENDBRANCH  11  18
ENDBRANCH   7  14
ENDBRANCH   5   9
ENDBRANCH   1   5
BRANCH   3 160
ATOM    160  CA  GLU A  59       0.979  11.354   5.867  0.00  0.00    +0.000 C 
BRANCH 160 161
ATOM    161  C   GLU A  59       0.902   9.987   5.193  0.00  0.00    +0.000 C 
ATOM    162  O   GLU A  59       1.795   9.153   5.350  0.00  0.00    +0.000 OA
ATOM    163  N   LEU A  60      -0.172   9.764   4.443  0.00  0.00    +0.000 N 
ATOM    164  H   LEU A  60      -0.849  10.466   4.356  0.00  0.00    +0.000 HD
BRANCH 163 165
ATOM    165  CA  LEU A  60      -0.367   8.498   3.745  0.00  0.00    +0.000 C 
BRANCH 165 166
ATOM    166  C   LEU A  60       0.289   8.528   2.368  0.00  0.00    +0.000 C 
ATOM    167  O   LEU A  60       0.877   7.540   1.929  0.00  0.00    +0.000 OA
ATOM    168  N   GLN A  61       0.186   9.668   1.694  0.00  0.00    +0.000 N 
ATOM    169  H   GLN A  61      -0.296  10.420   2.097  0.00  0.00    +0.000 HD
BRANCH 168 170
ATOM    170  CA  GLN A  61       0.771   9.827   0.368  0.00  0.00    +0.000 C 
BRANCH 170 171
ATOM    171  C   GLN A  61       2.288   9.678   0.421  0.00  0.00    +0.000 C 
ATOM    172  O   GLN A  61       2.917   9.281  -0.560  0.00  0.00    +0.000 OA
ATOM    173  N   ARG A  62       2.869   9.998   1.572  0.00  0.00    +0.000 N 
ATOM    174  H   ARG A  62       2.314  10.308   2.318  0.00  0.00    +0.000 HD
BRANCH 173 175
ATOM    175  CA  ARG A  62       4.312   9.901   1.752  0.00  0.00    +0.000 C 
BRANCH 175 176
ATOM    176  C   ARG A  62       4.725   8.468   2.076  0.00  0.00    +0.000 C 
ATOM    177  O   ARG A  62       5.856   8.063   1.810  0.00  0.00    +0.000 OA
ATOM    178  N   GLU A  63       3.800   7.708   2.653  0.00  0.00    +0.000 N 
ATOM    179  H   GLU A  63       2.916   8.088   2.840  0.00  0.00    +0.000 HD
BRANCH 178 180
ATOM    180  CA  GLU A  63       4.068   6.321   3.014  0.00  0.00    +0.000 C 
BRANCH 180 181
ATOM    181  C   GLU A  63       4.146   5.440   1.770  0.00  0.00    +0.000 C 
ATOM    182  O   GLU A  63       4.847   4.427   1.756  0.00  0.00    +0.000 OA
ATOM    183  N   LEU A  64       3.423   5.833   0.728  0.00  0.00    +0.000 N 
ATOM    184  H   LEU A  64       2.885   6.649   0.799  0.00  0.00    +0.000 HD
BRANCH 183 185
ATOM    185  CA  LEU A  64       3.409   5.080  -0.521  0.00  0.00    +0.000 C 
BRANCH 185 186
ATOM    186  C   LEU A  64       4.594   5.463  -1.402  0.00  0.00    +0.000 C 
ATOM    187  O   LEU A  64       5.121   4.637  -2.147  0.00  0.00    +0.000 OA
ATOM    188  N   LYS A  65       5.011   6.721  -1.309  0.00  0.00    +0.000 N 
ATOM    189  H   LYS A  65       4.550   7.333  -0.696  0.00  0.00    +0.000 HD
BRANCH 188 190
ATOM    190  CA  LYS A  65       6.136   7.215  -2.093  0.00  0.00    +0.000 C 
BRANCH 190 191
ATOM    191  C   LYS A  65       7.462   6.854  -1.430  0.00  0.00    +0.000 C 
ATOM    192  O   LYS A  65       8.390   6.389  -2.091  0.00  0.00    +0.000 OA
ATOM    193  N   ALA A  66       7.542   7.069  -0.121  0.00  0.00    +0.000 N 
ATOM    194  H   ALA A  66       6.767   7.441   0.350  0.00  0.00    +0.000 HD
BRANCH 193 195
ATOM    195  CA  ALA A  66       8.752   6.762   0.631  0.00  0.00    +0.000 C 
ATOM    196  CB  ALA A  66       8.623   7.260   2.063  0.00  0.00    +0.000 C 
BRANCH 195 197
ATOM    197  C   ALA A  66       9.045   5.266   0.613  0.00  0.00    +0.000 C 
ATOM    198  O   ALA A  66      10.187   4.850   0.417  0.00  0.00    +0.000 OA
ATOM    199  N   ALA A  67       8.008   4.462   0.820  0.00  0.00    +0.000 N 
ATOM    200  H   ALA A  67       7.122   4.853   0.971  0.00  0.00    +0.000 HD
BRANCH 199 201
ATOM    201  CA  ALA A  67       8.154   3.012   0.827  0.00  0.00    +0.000 C 
ATOM    202  CB  ALA A  67       6.794   2.344   0.968  0.00  0.00    +0.000 C 
BRANCH 201 203
ATOM    203  C   ALA A  67       8.856   2.526  -0.437  0.00  0.00    +0.000 C 
ATOM    204  O   ALA A  67       9.703   1.634  -0.384  0.00  0.00    +0.000 OA
ATOM    205  N   TYR A  68       8.497   3.116  -1.572  0.00  0.00    +0.000 N 
ATOM    206  H   TYR A  68       7.816   3.820  -1.550  0.00  0.00    +0.000 HD
BRANCH 205 207
ATOM    207  CA  TYR A  68       9.090   2.740  -2.850  0.00  0.00    +0.000 C 
BRANCH 207 208
ATOM    208  C   TYR A  68      10.555   3.163  -2.916  0.00  0.00    +0.000 C 
ATOM    209  O   TYR A  68      11.348   2.579  -3.655  0.00  0.00    +0.000 OA
ATOM    210  N   ASP A  69      10.906   4.180  -2.137  0.00  0.00    +0.000 N 
ATOM    211  H   ASP A  69      10.228   4.604  -1.570  0.00  0.00    +0.000 HD
BRANCH 210 212
ATOM    212  CA  ASP A  69      12.275   4.681  -2.104  0.00  0.00    +0.000 C 
BRANCH 212 213
ATOM    213  C   ASP A  69      13.124   3.877  -1.124  0.00  0.00    +0.000 C 
ATOM    214  O   ASP A  69      14.302   3.624  -1.373  0.00  0.00    +0.000 OA
ATOM    215  N   GLN A  70      12.517   3.482  -0.010  0.00  0.00    +0.000 N 
ATOM    216  H   GLN A  70      11.576   3.715   0.131  0.00  0.00    +0.000 HD
BRANCH 215 217
ATOM    217  CA  GLN A  70      13.219   2.709   1.008  0.00  0.00    +0.000 C 
BRANCH 217 218
ATOM    218  C   GLN A  70      13.868   1.470   0.401  0.00  0.00    +0.000 C 
ATOM    219  O   GLN A  70      15.056   1.218   0.601  0.00  0.00    +0.000 OA
ATOM    220  N   ARG A  71      13.080   0.700  -0.343  0.00  0.00    +0.000 N 
ATOM    221  H   ARG A  71      12.141   0.953  -0.466  0.00  0.00    +0.000 HD
BRANCH 220 222
ATOM    222  CA  ARG A  71      13.578  -0.514  -0.979  0.00  0.00    +0.000 C 
BRANCH 222 223
ATOM    223  C   ARG A  71      14.569  -0.178  -2.090  0.00  0.00    +0.000 C 
ATOM    224  O   ARG A  71      15.369  -1.021  -2.496  0.00  0.00    +0.000 OA
ATOM    225  N   GLN A  72      14.509   1.057  -2.576  0.00  0.00    +0.000 N 
ATOM    226  H   GLN A  72      13.850   1.683  -2.211  0.00  0.00    +0.000 HD
BRANCH 225 227
ATOM    227  CA  GLN A  72      15.400   1.503  -3.640  0.00  0.00    +0.000 C 
BRANCH 227 228
ATOM    228  C   GLN A  72      16.761   1.902  -3.079  0.00  0.00    +0.000 C 
ATOM    229  O   GLN A  72      17.791   1.350  -3.468  0.00  0.00    +0.000 OA
ATOM    230  OXT GLN A  72      16.874   3.187  -3.202  0.00  0.00    +0.000 OA
ENDBRANCH 227 228
BRANCH 227 231
ATOM    231  CB  GLN A  72      14.780   2.681  -4.394  0.00  0.00    +0.000 C 
BRANCH 231 232
ATOM    232  CG  GLN A  72      14.914   2.575  -5.904  0.00  0.00    +0.000 C 
BRANCH 232 233
ATOM    233  CD  GLN A  72      15.532   3.813  -6.523  0.00  0.00    +0.000 C 
ATOM    234  OE1 GLN A  72      14.827   4.689  -7.025  0.00  0.00    +0.000 OA
ATOM    235  NE2 GLN A  72      16.858   3.893  -6.491  0.00  0.00    +0.000 N 
ATOM    236 HE21 GLN A  72      17.283   4.682  -6.885  0.00  0.00    +0.000 HD
ATOM    237 HE22 GLN A  72      17.355   3.157  -6.077  0.00  0.00    +0.000 HD
ENDBRANCH 232 233
ENDBRANCH 231 232
ENDBRANCH 227 231
ENDBRANCH 225 227
ENDBRANCH 222 223
BRANCH 222 238
ATOM    238  CB  ARG A  71      12.416  -1.331  -1.547  0.00  0.00    +0.000 C 
BRANCH 238 239
ATOM    239  CG  ARG A  71      11.340  -1.653  -0.523  0.00  0.00    +0.000 C 
BRANCH 239 240
ATOM    240  CD  ARG A  71      11.913  -2.401   0.671  0.00  0.00    +0.000 C 
BRANCH 240 241
ATOM    241  NE  ARG A  71      10.866  -2.971   1.514  0.00  0.00    +0.000 N 
ATOM    242  CZ  ARG A  71      11.106  -3.793   2.529  0.00  0.00    +0.000 C 
ATOM    243  NH1 ARG A  71      12.351  -4.140   2.825  0.00  0.00    +0.000 N 
ATOM    244  NH2 ARG A  71      10.099  -4.271   3.250  0.00  0.00    +0.000 N 
ATOM    245  HE  ARG A  71       9.938  -2.728   1.313  0.00  0.00    +0.000 HD
ATOM    246 HH11 ARG A  71      13.111  -3.781   2.284  0.00  0.00    +0.000 HD
ATOM    247 HH12 ARG A  71      12.529  -4.759   3.591  0.00  0.00    +0.000 HD
ATOM    248 HH21 ARG A  71       9.160  -4.011   3.030  0.00  0.00    +0.000 HD
ATOM    249 HH22 ARG A  71      10.281  -4.890   4.013  0.00  0.00    +0.000 HD
ENDBRANCH 240 241
ENDBRANCH 239 240
ENDBRANCH 238 239
ENDBRANCH 222 238
ENDBRANCH 220 222
ENDBRANCH 217 218
BRANCH 217 250
ATOM    250  CB  GLN A  70      12.254   2.299   2.123  0.00  0.00    +0.000 C 
BRANCH 250 251
ATOM    251  CG  GLN A  70      11.748   3.470   2.950  0.00  0.00    +0.000 C 
BRANCH 251 252
ATOM    252  CD  GLN A  70      12.852   4.435   3.333  0.00  0.00    +0.000 C 
ATOM    253  OE1 GLN A  70      13.640   4.167   4.241  0.00  0.00    +0.000 OA
ATOM    254  NE2 GLN A  70      12.916   5.566   2.640  0.00  0.00    +0.000 N 
ATOM    255 HE21 GLN A  70      13.620   6.208   2.867  0.00  0.00    +0.000 HD
ATOM    256 HE22 GLN A  70      12.255   5.713   1.932  0.00  0.00    +0.000 HD
ENDBRANCH 251 252
ENDBRANCH 250 251
ENDBRANCH 217 250
ENDBRANCH 215 217
ENDBRANCH 212 213
BRANCH 212 257
ATOM    257  CB  ASP A  69      12.290   6.161  -1.718  0.00  0.00    +0.000 C 
BRANCH 257 258
ATOM    258  CG  ASP A  69      12.670   7.058  -2.879  0.00  0.00    +0.000 C 
ATOM    259  OD1 ASP A  69      13.794   6.907  -3.403  0.00  0.00    +0.000 OA
ATOM    260  OD2 ASP A  69      11.844   7.911  -3.264  0.00  0.00    +0.000 OA
ENDBRANCH 257 258
ENDBRANCH 212 257
ENDBRANCH 210 212
ENDBRANCH 207 208
BRANCH 207 261
ATOM    261  CB  TYR A  68       8.312   3.376  -4.003  0.00  0.00    +0.000 C 
BRANCH 261 262
ATOM    262  CG  TYR A  68       7.322   2.437  -4.655  0.00  0.00    +0.000 A 
ATOM    263  CD1 TYR A  68       6.526   1.595  -3.889  0.00  0.00    +0.000 A 
ATOM    264  CD2 TYR A  68       7.183   2.393  -6.037  0.00  0.00    +0.000 A 
ATOM    265  CE1 TYR A  68       5.620   0.735  -4.480  0.00  0.00    +0.000 A 
ATOM    266  CE2 TYR A  68       6.279   1.537  -6.636  0.00  0.00    +0.000 A 
ATOM    267  CZ  TYR A  68       5.500   0.711  -5.854  0.00  0.00    +0.000 A 
BRANCH 267 268
ATOM    268  OH  TYR A  68       4.599  -0.144  -6.448  0.00  0.00    +0.000 OA
ATOM    269  HH  TYR A  68       4.673  -0.073  -7.402  0.00  0.00    +0.000 HD
ENDBRANCH 267 268
ENDBRANCH 261 262
ENDBRANCH 207 261
ENDBRANCH 205 207
ENDBRANCH 201 203
ENDBRANCH 199 201
ENDBRANCH 195 197
ENDBRANCH 193 195
ENDBRANCH 190 191
BRANCH 190 270
ATOM    270  CB  LYS A  65       6.038   8.732  -2.266  0.00  0.00    +0.000 C 
BRANCH 270 271
ATOM    271  CG  LYS A  65       4.763   9.184  -2.958  0.00  0.00    +0.000 C 
BRANCH 271 272
ATOM    272  CD  LYS A  65       4.428  10.628  -2.623  0.00  0.00    +0.000 C 
BRANCH 272 273
ATOM    273  CE  LYS A  65       4.687  11.549  -3.806  0.00  0.00    +0.000 C 
BRANCH 273 274
ATOM    274  NZ  LYS A  65       4.181  12.927  -3.556  0.00  0.00    +0.000 N 
ATOM    275  HZ1 LYS A  65       3.742  13.308  -4.419  0.00  0.00    +0.000 HD
ATOM    276  HZ2 LYS A  65       4.964  13.550  -3.275  0.00  0.00    +0.000 HD
ATOM    277  HZ3 LYS A  65       3.471  12.915  -2.796  0.00  0.00    +0.000 HD
ENDBRANCH 273 274
ENDBRANCH 272 273
ENDBRANCH 271 272
ENDBRANCH 270 271
ENDBRANCH 190 270
ENDBRANCH 188 190
ENDBRANCH 185 186
BRANCH 185 278
ATOM    278  CB  LEU A  64       2.100   5.326  -1.274  0.00  0.00    +0.000 C 
BRANCH 278 279
ATOM    279  CG  LEU A  64       2.037   6.603  -2.112  0.00  0.00    +0.000 C 
ATOM    280  CD1 LEU A  64       2.461   6.322  -3.546  0.00  0.00    +0.000 C 
ATOM    281  CD2 LEU A  64       0.637   7.198  -2.075  0.00  0.00    +0.000 C 
ENDBRANCH 278 279
ENDBRANCH 185 278
ENDBRANCH 183 185
ENDBRANCH 180 181
BRANCH 180 282
ATOM    282  CB  GLU A  63       2.983   5.796   3.956  0.00  0.00    +0.000 C 
BRANCH 282 283
ATOM    283  CG  GLU A  63       3.075   4.303   4.219  0.00  0.00    +0.000 C 
BRANCH 283 284
ATOM    284  CD  GLU A  63       2.647   3.930   5.626  0.00  0.00    +0.000 C 
ATOM    285  OE1 GLU A  63       1.821   3.005   5.768  0.00  0.00    +0.000 OA
ATOM    286  OE2 GLU A  63       3.138   4.564   6.583  0.00  0.00    +0.000 OA
ENDBRANCH 283 284
ENDBRANCH 282 283
ENDBRANCH 180 282
ENDBRANCH 178 180
ENDBRANCH 175 176
BRANCH 175 287
ATOM    287  CB  ARG A  62       4.773  10.841   2.869  0.00  0.00    +0.000 C 
BRANCH 287 288
ATOM    288  CG  ARG A  62       4.681  10.228   4.257  0.00  0.00    +0.000 C 
BRANCH 288 289
ATOM    289  CD  ARG A  62       4.732  11.293   5.340  0.00  0.00    +0.000 C 
BRANCH 289 290
ATOM    290  NE  ARG A  62       4.718  10.712   6.680  0.00  0.00    +0.000 N 
ATOM    291  CZ  ARG A  62       5.162  11.345   7.761  0.00  0.00    +0.000 C 
ATOM    292  NH1 ARG A  62       5.651  12.574   7.659  0.00  0.00    +0.000 N 
ATOM    293  NH2 ARG A  62       5.116  10.750   8.945  0.00  0.00    +0.000 N 
ATOM    294  HE  ARG A  62       4.361   9.806   6.778  0.00  0.00    +0.000 HD
ATOM    295 HH11 ARG A  62       5.686  13.025   6.768  0.00  0.00    +0.000 HD
ATOM    296 HH12 ARG A  62       5.984  13.049   8.474  0.00  0.00    +0.000 HD
ATOM    297 HH21 ARG A  62       4.748   9.825   9.026  0.00  0.00    +0.000 HD
ATOM    298 HH22 ARG A  62       5.450  11.227   9.758  0.00  0.00    +0.000 HD
ENDBRANCH 289 290
ENDBRANCH 288 289
ENDBRANCH 287 288
ENDBRANCH 175 287
ENDBRANCH 173 175
ENDBRANCH 170 171
BRANCH 170 299
ATOM    299  CB  GLN A  61       0.401  11.192  -0.216  0.00  0.00    +0.000 C 
BRANCH 299 300
ATOM    300  CG  GLN A  61       1.585  12.134  -0.357  0.00  0.00    +0.000 C 
BRANCH 300 301
ATOM    301  CD  GLN A  61       1.256  13.367  -1.177  0.00  0.00    +0.000 C 
ATOM    302  OE1 GLN A  61       2.082  13.850  -1.952  0.00  0.00    +0.000 OA
ATOM    303  NE2 GLN A  61       0.044  13.882  -1.010  0.00  0.00    +0.000 N 
ATOM    304 HE21 GLN A  61      -0.196  14.679  -1.526  0.00  0.00    +0.000 HD
ATOM    305 HE22 GLN A  61      -0.561  13.445  -0.374  0.00  0.00    +0.000 HD
ENDBRANCH 300 301
ENDBRANCH 299 300
ENDBRANCH 170 299
ENDBRANCH 168 170
ENDBRANCH 165 166
BRANCH 165 306
ATOM    306  CB  LEU A  60      -1.860   8.196   3.604  0.00  0.00    +0.000 C 
BRANCH 306 307
ATOM    307  CG  LEU A  60      -2.249   7.245   2.472  0.00  0.00    +0.000 C 
ATOM    308  CD1 LEU A  60      -3.491   6.450   2.845  0.00  0.00    +0.000 C 
ATOM    309  CD2 LEU A  60      -2.476   8.017   1.180  0.00  0.00    +0.000 C 
ENDBRANCH 306 307
ENDBRANCH 165 306
ENDBRANCH 163 165
ENDBRANCH 160 161
BRANCH 160 310
ATOM    310  CB  GLU A  59       0.194  11.332   7.180  0.00  0.00    +0.000 C 
BRANCH 310 311
ATOM    311  CG  GLU A  59       0.488  10.118   8.045  0.00  0.00    +0.000 C 
BRANCH 311 312
ATOM    312  CD  GLU A  59       1.950  10.022   8.438  0.00  0.00    +0.000 C 
ATOM    313  OE1 GLU A  59       2.688   9.251   7.789  0.00  0.00    +0.000 OA
ATOM    314  OE2 GLU A  59       2.355  10.716   9.393  0.00  0.00    +0.000 OA
ENDBRANCH 311 312
ENDBRANCH 310 311
ENDBRANCH 160 310
ENDBRANCH   3 160
TORSDOF 122
