REMARK  Name = /Users/acegid/Desktop/Smoking_Research/Docking/Docking_All_PDB/All_PDB/6BE9_H.pdb
REMARK  26 active torsions:
REMARK  status: ('A' for Active; 'I' for Inactive)
REMARK    1  A    between atoms: N_1  and  OXT_93
REMARK    2  A    between atoms: CA_4  and  C_5
REMARK    3  A    between atoms: CA_4  and  CB_7
REMARK    4  A    between atoms: CB_7  and  OG1_8
REMARK    5  A    between atoms: CB_7  and  CG2_9
REMARK    6  A    between atoms: N_17  and  CA_19
REMARK    7  A    between atoms: CA_19  and  C_21
REMARK    8  A    between atoms: CA_19  and  CB_23
REMARK    9  A    between atoms: CB_23  and  CG_26
REMARK   10  A    between atoms: CG_26  and  CD_29
REMARK   11  A    between atoms: CD_29  and  CE_32
REMARK   12  A    between atoms: CE_32  and  NZ_35
REMARK   13  A    between atoms: N_39  and  CA_40
REMARK   14  A    between atoms: CA_40  and  C_41
REMARK   15  A    between atoms: CA_40  and  CB_43
REMARK   16  A    between atoms: CB_43  and  CG_44
REMARK   17  A    between atoms: N_53  and  CA_54
REMARK   18  A    between atoms: CA_54  and  C_55
REMARK   19  A    between atoms: CA_54  and  CB_57
REMARK   20  A    between atoms: CB_57  and  CG_58
REMARK   21  A    between atoms: N_65  and  CA_66
REMARK   22  A    between atoms: CA_66  and  C_67
REMARK   23  A    between atoms: CA_66  and  CB_69
REMARK   24  A    between atoms: CB_69  and  OG1_70
REMARK   25  A    between atoms: CB_69  and  CG2_71
REMARK   26  A    between atoms: CA_80  and  C_91
REMARK                            x       y       z     vdW  Elec       q    Type
REMARK                         _______ _______ _______ _____ _____    ______ ____
ROOT
ATOM      1  N   THR A   1      29.150  47.100   4.420  0.00  0.00    +0.000 NA
ATOM      2  H2  THR A   1      29.023  45.938   4.827  0.00  0.00    +0.000 HD
ATOM      3  H3  THR A   1      29.530  47.993   3.649  0.00  0.00    +0.000 HD
ENDROOT
BRANCH   1   5
ATOM      4  H   THR A   1      28.560  47.500   5.140  0.00  0.00    +0.000 HD
ATOM      5  OXT PRO A   6      28.524  47.250   4.428  0.00  0.00    +0.000 OA
ENDBRANCH   1   5
TORSDOF 1
REMARK  Name = /Users/acegid/Desktop/Smoking_Research/Docking/Docking_All_PDB/All_PDB/6BE9_H.pdb
REMARK  26 active torsions:
REMARK  status: ('A' for Active; 'I' for Inactive)
REMARK    1  A    between atoms: N_1  and  OXT_93
REMARK    2  A    between atoms: CA_4  and  C_5
REMARK    3  A    between atoms: CA_4  and  CB_7
REMARK    4  A    between atoms: CB_7  and  OG1_8
REMARK    5  A    between atoms: CB_7  and  CG2_9
REMARK    6  A    between atoms: N_17  and  CA_19
REMARK    7  A    between atoms: CA_19  and  C_21
REMARK    8  A    between atoms: CA_19  and  CB_23
REMARK    9  A    between atoms: CB_23  and  CG_26
REMARK   10  A    between atoms: CG_26  and  CD_29
REMARK   11  A    between atoms: CD_29  and  CE_32
REMARK   12  A    between atoms: CE_32  and  NZ_35
REMARK   13  A    between atoms: N_39  and  CA_40
REMARK   14  A    between atoms: CA_40  and  C_41
REMARK   15  A    between atoms: CA_40  and  CB_43
REMARK   16  A    between atoms: CB_43  and  CG_44
REMARK   17  A    between atoms: N_53  and  CA_54
REMARK   18  A    between atoms: CA_54  and  C_55
REMARK   19  A    between atoms: CA_54  and  CB_57
REMARK   20  A    between atoms: CB_57  and  CG_58
REMARK   21  A    between atoms: N_65  and  CA_66
REMARK   22  A    between atoms: CA_66  and  C_67
REMARK   23  A    between atoms: CA_66  and  CB_69
REMARK   24  A    between atoms: CB_69  and  OG1_70
REMARK   25  A    between atoms: CB_69  and  CG2_71
REMARK   26  A    between atoms: CA_80  and  C_91
REMARK                            x       y       z     vdW  Elec       q    Type
REMARK                         _______ _______ _______ _____ _____    ______ ____
ROOT
ATOM      1  CA  ASN A   3      28.290  40.300   5.450  0.00  0.00    +0.000 C 
ENDROOT
BRANCH   1   2
ATOM      2  C   ASN A   3      26.960  40.540   6.150  0.00  0.00    +0.000 C 
ATOM      3  O   ASN A   3      26.030  40.520   5.350  0.00  0.00    +0.000 OA
ATOM      4  N   ASP A   4      26.830  40.800   7.450  0.00  0.00    +0.000 N 
ATOM      5  H   ASP A   4      27.620  40.630   8.060  0.00  0.00    +0.000 HD
BRANCH   4   6
ATOM      6  CA  ASP A   4      25.620  41.280   8.080  0.00  0.00    +0.000 C 
BRANCH   6   7
ATOM      7  C   ASP A   4      24.940  42.460   7.390  0.00  0.00    +0.000 C 
ATOM      8  O   ASP A   4      25.460  43.570   7.360  0.00  0.00    +0.000 OA
ATOM      9  N   THR A   5      23.780  42.190   6.790  0.00  0.00    +0.000 N 
ATOM     10  H   THR A   5      23.310  41.300   6.930  0.00  0.00    +0.000 HD
BRANCH   9  11
ATOM     11  CA  THR A   5      22.990  43.180   6.090  0.00  0.00    +0.000 C 
BRANCH  11  12
ATOM     12  CB  THR A   5      22.230  44.050   7.080  0.00  0.00    +0.000 C 
ATOM     13  CG2 THR A   5      21.080  44.840   6.450  0.00  0.00    +0.000 C 
BRANCH  12  14
ATOM     14  OG1 THR A   5      21.590  43.110   7.910  0.00  0.00    +0.000 OA
ATOM     15  HG1 THR A   5      22.220  42.670   8.490  0.00  0.00    +0.000 HD
ENDBRANCH  12  14
ENDBRANCH  11  12
BRANCH  11  16
ATOM     16  C   THR A   5      23.790  43.900   5.010  0.00  0.00    +0.000 C 
ATOM     17  O   THR A   5      23.720  45.130   4.890  0.00  0.00    +0.000 OA
ENDBRANCH  11  16
ENDBRANCH   9  11
ENDBRANCH   6   7
BRANCH   6  18
ATOM     18  CB  ASP A   4      25.860  41.640   9.550  0.00  0.00    +0.000 C 
BRANCH  18  19
ATOM     19  CG  ASP A   4      24.600  41.950  10.340  0.00  0.00    +0.000 C 
ATOM     20  OD1 ASP A   4      24.710  42.490  11.460  0.00  0.00    +0.000 OA
ATOM     21  OD2 ASP A   4      23.470  41.730   9.850  0.00  0.00    +0.000 OA
ENDBRANCH  18  19
ENDBRANCH   6  18
ENDBRANCH   4   6
ENDBRANCH   1   2
BRANCH   1  24
ATOM     22  C   LYS A   2      29.670  42.310   4.870  0.00  0.00    +0.000 C 
ATOM     23  O   LYS A   2      29.450  42.230   3.670  0.00  0.00    +0.000 OA
ATOM     24  N   ASN A   3      29.170  41.420   5.730  0.00  0.00    +0.000 N 
ATOM     25  H   ASN A   3      29.380  41.630   6.700  0.00  0.00    +0.000 HD
BRANCH  22  26
ATOM     26  CA  LYS A   2      30.690  43.270   5.480  0.00  0.00    +0.000 C 
BRANCH  26  29
ATOM     27  C   THR A   1      30.930  45.710   5.350  0.00  0.00    +0.000 C 
ATOM     28  O   THR A   1      31.730  45.750   6.280  0.00  0.00    +0.000 OA
ATOM     29  N   LYS A   2      30.400  44.570   4.920  0.00  0.00    +0.000 N 
ATOM     30  H   LYS A   2      30.338  44.445   3.737  0.00  0.00    +0.000 HD
BRANCH  27  31
ATOM     31  CA  THR A   1      30.570  47.040   4.700  0.00  0.00    +0.000 C 
BRANCH  31  32
ATOM     32  CB  THR A   1      31.070  48.220   5.540  0.00  0.00    +0.000 C 
ATOM     33  CG2 THR A   1      30.920  49.380   4.570  0.00  0.00    +0.000 C 
BRANCH  32  34
ATOM     34  OG1 THR A   1      30.260  48.600   6.630  0.00  0.00    +0.000 OA
ATOM     35  HG1 THR A   1      30.170  47.880   7.250  0.00  0.00    +0.000 HD
ENDBRANCH  32  34
ENDBRANCH  31  32
ENDBRANCH  27  31
ENDBRANCH  26  29
BRANCH  26  36
ATOM     36  CB  LYS A   2      32.050  42.800   4.980  0.00  0.00    +0.000 C 
BRANCH  36  37
ATOM     37  CG  LYS A   2      33.120  42.820   6.070  0.00  0.00    +0.000 C 
BRANCH  37  38
ATOM     38  CD  LYS A   2      34.420  42.190   5.600  0.00  0.00    +0.000 C 
BRANCH  38  39
ATOM     39  CE  LYS A   2      35.590  42.550   6.510  0.00  0.00    +0.000 C 
BRANCH  39  40
ATOM     40  NZ  LYS A   2      36.830  41.860   6.130  0.00  0.00    +0.000 N 
ATOM     41  HZ1 LYS A   2      37.245  41.987   5.013  0.00  0.00    +0.000 HD
ATOM     42  HZ2 LYS A   2      36.855  40.681   6.348  0.00  0.00    +0.000 HD
ATOM     43  HZ3 LYS A   2      37.754  42.263   6.784  0.00  0.00    +0.000 HD
ENDBRANCH  39  40
ENDBRANCH  38  39
ENDBRANCH  37  38
ENDBRANCH  36  37
ENDBRANCH  26  36
ENDBRANCH  22  26
ENDBRANCH   1  24
BRANCH   1  44
ATOM     44  CB  ASN A   3      29.000  39.030   5.930  0.00  0.00    +0.000 C 
BRANCH  44  45
ATOM     45  CG  ASN A   3      30.230  38.770   5.080  0.00  0.00    +0.000 C 
ATOM     46  OD1 ASN A   3      30.110  38.500   3.890  0.00  0.00    +0.000 OA
ATOM     47  ND2 ASN A   3      31.480  38.940   5.530  0.00  0.00    +0.000 N 
ATOM     48 HD21 ASN A   3      31.610  39.280   6.470  0.00  0.00    +0.000 HD
ATOM     49 HD22 ASN A   3      32.180  38.670   4.860  0.00  0.00    +0.000 HD
ENDBRANCH  44  45
ENDBRANCH   1  44
TORSDOF 22
REMARK  Name = /Users/acegid/Desktop/Smoking_Research/Docking/Docking_All_PDB/All_PDB/6BE9_H.pdb
REMARK  26 active torsions:
REMARK  status: ('A' for Active; 'I' for Inactive)
REMARK    1  A    between atoms: N_1  and  OXT_93
REMARK    2  A    between atoms: CA_4  and  C_5
REMARK    3  A    between atoms: CA_4  and  CB_7
REMARK    4  A    between atoms: CB_7  and  OG1_8
REMARK    5  A    between atoms: CB_7  and  CG2_9
REMARK    6  A    between atoms: N_17  and  CA_19
REMARK    7  A    between atoms: CA_19  and  C_21
REMARK    8  A    between atoms: CA_19  and  CB_23
REMARK    9  A    between atoms: CB_23  and  CG_26
REMARK   10  A    between atoms: CG_26  and  CD_29
REMARK   11  A    between atoms: CD_29  and  CE_32
REMARK   12  A    between atoms: CE_32  and  NZ_35
REMARK   13  A    between atoms: N_39  and  CA_40
REMARK   14  A    between atoms: CA_40  and  C_41
REMARK   15  A    between atoms: CA_40  and  CB_43
REMARK   16  A    between atoms: CB_43  and  CG_44
REMARK   17  A    between atoms: N_53  and  CA_54
REMARK   18  A    between atoms: CA_54  and  C_55
REMARK   19  A    between atoms: CA_54  and  CB_57
REMARK   20  A    between atoms: CB_57  and  CG_58
REMARK   21  A    between atoms: N_65  and  CA_66
REMARK   22  A    between atoms: CA_66  and  C_67
REMARK   23  A    between atoms: CA_66  and  CB_69
REMARK   24  A    between atoms: CB_69  and  OG1_70
REMARK   25  A    between atoms: CB_69  and  CG2_71
REMARK   26  A    between atoms: CA_80  and  C_91
REMARK                            x       y       z     vdW  Elec       q    Type
REMARK                         _______ _______ _______ _____ _____    ______ ____
ROOT
ATOM      1  N   PRO A   6      26.420  45.810   2.740  0.00  0.00    +0.000 NA
ATOM      2  CA  PRO A   6      27.060  47.030   3.190  0.00  0.00    +0.000 C 
ATOM      3  CB  PRO A   6      26.600  48.150   2.260  0.00  0.00    +0.000 C 
ATOM      4  CG  PRO A   6      26.240  47.390   0.980  0.00  0.00    +0.000 C 
ATOM      5  CD  PRO A   6      25.760  46.030   1.460  0.00  0.00    +0.000 C 
ENDROOT
BRANCH   2   6
ATOM      6  C   PRO A   6      28.570  46.840   3.250  0.00  0.00    +0.000 C 
ATOM      7  O   PRO A   6      29.240  46.430   2.310  0.00  0.00    +0.000 OA
ENDBRANCH   2   6
TORSDOF 1
