REMARK  Name = /Users/acegid/Desktop/Smoking_Research/Docking/Docking_All_PDB/All_PDB/6BEN_H.pdb
REMARK  35 active torsions:
REMARK  status: ('A' for Active; 'I' for Inactive)
REMARK    1  A    between atoms: N_1  and  OXT_145
REMARK    2  A    between atoms: CA_5  and  CB_7
REMARK    3  A    between atoms: CA_5  and  C_25
REMARK    4  A    between atoms: CB_7  and  CG_10
REMARK    5  A    between atoms: CG_10  and  CD_13
REMARK    6  A    between atoms: CD_13  and  NE_16
REMARK    7  A    between atoms: N_27  and  CA_28
REMARK    8  A    between atoms: CA_28  and  C_29
REMARK    9  A    between atoms: CA_28  and  CB_31
REMARK   10  A    between atoms: CB_31  and  CG_32
REMARK   11  A    between atoms: CG_32  and  CD_33
REMARK   12  A    between atoms: CA_45  and  C_56
REMARK   13  A    between atoms: N_58  and  CA_60
REMARK   14  A    between atoms: CA_60  and  C_62
REMARK   15  A    between atoms: CA_60  and  CB_64
REMARK   16  A    between atoms: CB_64  and  CG_67
REMARK   17  A    between atoms: CG_67  and  CD_70
REMARK   18  A    between atoms: N_75  and  CA_76
REMARK   19  A    between atoms: CA_76  and  C_77
REMARK   20  A    between atoms: CA_76  and  CB_79
REMARK   21  A    between atoms: CB_79  and  CG_80
REMARK   22  A    between atoms: CG_80  and  CD_81
REMARK   23  A    between atoms: CD_81  and  NE_82
REMARK   24  A    between atoms: N_99  and  CA_101
REMARK   25  A    between atoms: CA_101  and  C_103
REMARK   26  A    between atoms: CA_101  and  CB_105
REMARK   27  A    between atoms: CB_105  and  CG_108
REMARK   28  A    between atoms: CG_108  and  CD_111
REMARK   29  A    between atoms: CA_115  and  C_116
REMARK   30  A    between atoms: N_128  and  CA_129
REMARK   31  A    between atoms: CA_129  and  C_130
REMARK   32  A    between atoms: CA_129  and  CB_132
REMARK   33  A    between atoms: C_130  and  OXT_145
REMARK   34  A    between atoms: CB_132  and  CG_133
REMARK   35  A    between atoms: CG_133  and  CD_134
REMARK                            x       y       z     vdW  Elec       q    Type
REMARK                         _______ _______ _______ _____ _____    ______ ____
ROOT
ATOM      1  CA  ARG A   5      29.950  38.200  23.910  0.00  0.00    +0.000 C 
ENDROOT
BRANCH   1   4
ATOM      2  C   GLN A   4      30.110  39.670  21.920  0.00  0.00    +0.000 C 
ATOM      3  O   GLN A   4      30.570  38.790  21.200  0.00  0.00    +0.000 OA
ATOM      4  N   ARG A   5      29.930  39.480  23.230  0.00  0.00    +0.000 N 
ATOM      5  H   ARG A   5      29.450  40.230  23.700  0.00  0.00    +0.000 HD
BRANCH   2   6
ATOM      6  CA  GLN A   4      29.770  41.020  21.300  0.00  0.00    +0.000 C 
BRANCH   6   9
ATOM      7  C   PRO A   3      29.610  42.730  23.020  0.00  0.00    +0.000 C 
ATOM      8  O   PRO A   3      30.820  42.760  23.230  0.00  0.00    +0.000 OA
ATOM      9  N   GLN A   4      29.010  41.890  22.180  0.00  0.00    +0.000 N 
ATOM     10  H   GLN A   4      28.088  42.460  21.700  0.00  0.00    +0.000 HD
BRANCH   7  14
ATOM     11  C   GLN A   2      26.860  42.200  24.410  0.00  0.00    +0.000 C 
ATOM     12  O   GLN A   2      27.540  41.200  24.600  0.00  0.00    +0.000 OA
ATOM     13  N   PRO A   3      27.370  43.340  23.930  0.00  0.00    +0.000 N 
ATOM     14  CA  PRO A   3      28.790  43.620  23.950  0.00  0.00    +0.000 C 
ATOM     15  CB  PRO A   3      28.940  45.100  23.600  0.00  0.00    +0.000 C 
ATOM     16  CG  PRO A   3      27.570  45.660  24.010  0.00  0.00    +0.000 C 
ATOM     17  CD  PRO A   3      26.630  44.540  23.590  0.00  0.00    +0.000 C 
BRANCH  11  18
ATOM     18  CA  GLN A   2      25.380  42.130  24.760  0.00  0.00    +0.000 C 
BRANCH  18  21
ATOM     19  C   ARG A   1      23.690  40.380  24.110  0.00  0.00    +0.000 C 
ATOM     20  O   ARG A   1      22.870  41.200  23.710  0.00  0.00    +0.000 OA
ATOM     21  N   GLN A   2      24.880  40.780  24.570  0.00  0.00    +0.000 N 
ATOM     22  H   GLN A   2      25.550  40.040  24.700  0.00  0.00    +0.000 HD
BRANCH  19  23
ATOM     23  CA  ARG A   1      23.260  38.920  24.100  0.00  0.00    +0.000 C 
BRANCH  23  24
ATOM     24  CB  ARG A   1      22.970  38.330  22.720  0.00  0.00    +0.000 C 
BRANCH  24  25
ATOM     25  CG  ARG A   1      21.720  38.960  22.110  0.00  0.00    +0.000 C 
BRANCH  25  26
ATOM     26  CD  ARG A   1      21.400  38.400  20.720  0.00  0.00    +0.000 C 
BRANCH  26  27
ATOM     27  NE  ARG A   1      22.540  38.510  19.810  0.00  0.00    +0.000 N 
ATOM     28  HE  ARG A   1      22.564  39.688  19.612  0.00  0.00    +0.000 HD
ATOM     29  CZ  ARG A   1      22.680  38.110  18.540  0.00  0.00    +0.000 C 
ATOM     30  NH1 ARG A   1      23.860  38.370  17.970  0.00  0.00    +0.000 N 
ATOM     31 HH11 ARG A   1      23.735  38.936  16.928  0.00  0.00    +0.000 HD
ATOM     32 HH12 ARG A   1      24.896  37.793  17.884  0.00  0.00    +0.000 HD
ATOM     33  NH2 ARG A   1      21.680  37.470  17.920  0.00  0.00    +0.000 N 
ATOM     34 HH21 ARG A   1      20.801  37.974  17.295  0.00  0.00    +0.000 HD
ATOM     35 HH22 ARG A   1      21.699  36.294  17.736  0.00  0.00    +0.000 HD
ENDBRANCH  26  27
ENDBRANCH  25  26
ENDBRANCH  24  25
ENDBRANCH  23  24
ENDBRANCH  19  23
ENDBRANCH  18  21
BRANCH  18  36
ATOM     36  CB  GLN A   2      25.190  42.600  26.200  0.00  0.00    +0.000 C 
BRANCH  36  37
ATOM     37  CG  GLN A   2      23.740  42.590  26.680  0.00  0.00    +0.000 C 
BRANCH  37  38
ATOM     38  CD  GLN A   2      22.710  43.480  26.010  0.00  0.00    +0.000 C 
ATOM     39  OE1 GLN A   2      23.100  44.570  25.580  0.00  0.00    +0.000 OA
ATOM     40  NE2 GLN A   2      21.420  43.150  26.090  0.00  0.00    +0.000 N 
ATOM     41 HE21 GLN A   2      21.190  42.260  26.510  0.00  0.00    +0.000 HD
ATOM     42 HE22 GLN A   2      20.700  43.700  25.650  0.00  0.00    +0.000 HD
ENDBRANCH  37  38
ENDBRANCH  36  37
ENDBRANCH  18  36
ENDBRANCH  11  18
ENDBRANCH   7  14
ENDBRANCH   6   9
BRANCH   6  43
ATOM     43  CB  GLN A   4      29.200  41.040  19.880  0.00  0.00    +0.000 C 
BRANCH  43  44
ATOM     44  CG  GLN A   4      29.100  42.440  19.290  0.00  0.00    +0.000 C 
BRANCH  44  45
ATOM     45  CD  GLN A   4      27.970  42.640  18.290  0.00  0.00    +0.000 C 
ATOM     46  OE1 GLN A   4      28.110  42.910  17.100  0.00  0.00    +0.000 OA
ATOM     47  NE2 GLN A   4      26.730  42.500  18.760  0.00  0.00    +0.000 N 
ATOM     48 HE21 GLN A   4      26.039  41.860  18.031  0.00  0.00    +0.000 HD
ATOM     49 HE22 GLN A   4      26.106  43.459  19.092  0.00  0.00    +0.000 HD
ENDBRANCH  44  45
ENDBRANCH  43  44
ENDBRANCH   6  43
ENDBRANCH   2   6
ENDBRANCH   1   4
BRANCH   1  50
ATOM     50  C   ARG A   5      28.690  37.420  23.570  0.00  0.00    +0.000 C 
ATOM     51  O   ARG A   5      27.780  37.360  24.400  0.00  0.00    +0.000 OA
ATOM     52  N   GLU A   6      28.660  36.890  22.350  0.00  0.00    +0.000 N 
ATOM     53  H   GLU A   6      29.591  36.424  21.769  0.00  0.00    +0.000 HD
BRANCH  52  54
ATOM     54  CA  GLU A   6      27.410  36.580  21.680  0.00  0.00    +0.000 C 
BRANCH  54  55
ATOM     55  C   GLU A   6      26.390  35.800  22.500  0.00  0.00    +0.000 C 
ATOM     56  O   GLU A   6      25.230  36.200  22.540  0.00  0.00    +0.000 OA
ATOM     57  N   PRO A   7      26.780  34.820  23.310  0.00  0.00    +0.000 N 
ATOM     58  CA  PRO A   7      25.890  34.170  24.260  0.00  0.00    +0.000 C 
ATOM     59  CB  PRO A   7      26.770  33.040  24.790  0.00  0.00    +0.000 C 
ATOM     60  CG  PRO A   7      27.860  32.670  23.790  0.00  0.00    +0.000 C 
ATOM     61  CD  PRO A   7      27.950  34.010  23.070  0.00  0.00    +0.000 C 
BRANCH  58  62
ATOM     62  C   PRO A   7      25.270  34.970  25.390  0.00  0.00    +0.000 C 
ATOM     63  O   PRO A   7      24.250  34.480  25.880  0.00  0.00    +0.000 OA
ATOM     64  N   GLN A   8      25.890  36.060  25.840  0.00  0.00    +0.000 N 
ATOM     65  H   GLN A   8      26.680  36.430  25.350  0.00  0.00    +0.000 HD
BRANCH  64  66
ATOM     66  CA  GLN A   8      25.220  36.970  26.760  0.00  0.00    +0.000 C 
BRANCH  66  67
ATOM     67  C   GLN A   8      24.290  38.000  26.130  0.00  0.00    +0.000 C 
ATOM     68  O   GLN A   8      23.710  38.820  26.850  0.00  0.00    +0.000 OA
BRANCH  67  69
ATOM     69  OXT GLN A   8      24.492  37.541  24.991  0.00  0.00    +0.000 OA
BRANCH  69  70
ATOM     70  N   ARG A   1      24.180  38.040  24.800  0.00  0.00    +0.000 N 
ATOM     71  H   ARG A   1      23.087  37.494  25.102  0.00  0.00    +0.000 HD
ATOM     72  H2  ARG A   1      24.187  37.458  23.698  0.00  0.00    +0.000 HD
ATOM     73  H3  ARG A   1      25.286  38.493  24.492  0.00  0.00    +0.000 HD
ENDBRANCH  69  70
ENDBRANCH  67  69
ENDBRANCH  66  67
BRANCH  66  74
ATOM     74  CB  GLN A   8      26.200  37.800  27.580  0.00  0.00    +0.000 C 
BRANCH  74  75
ATOM     75  CG  GLN A   8      27.400  37.040  28.130  0.00  0.00    +0.000 C 
BRANCH  75  76
ATOM     76  CD  GLN A   8      28.130  37.740  29.270  0.00  0.00    +0.000 C 
ATOM     77  OE1 GLN A   8      28.400  37.140  30.310  0.00  0.00    +0.000 OA
ATOM     78  NE2 GLN A   8      28.390  39.050  29.190  0.00  0.00    +0.000 N 
ATOM     79 HE21 GLN A   8      28.240  39.500  28.300  0.00  0.00    +0.000 HD
ATOM     80 HE22 GLN A   8      28.920  39.480  29.930  0.00  0.00    +0.000 HD
ENDBRANCH  75  76
ENDBRANCH  74  75
ENDBRANCH  66  74
ENDBRANCH  64  66
ENDBRANCH  58  62
ENDBRANCH  54  55
BRANCH  54  81
ATOM     81  CB  GLU A   6      26.840  37.810  20.970  0.00  0.00    +0.000 C 
BRANCH  81  82
ATOM     82  CG  GLU A   6      26.550  39.060  21.780  0.00  0.00    +0.000 C 
BRANCH  82  83
ATOM     83  CD  GLU A   6      25.810  40.170  21.040  0.00  0.00    +0.000 C 
ATOM     84  OE1 GLU A   6      24.990  39.870  20.140  0.00  0.00    +0.000 OA
ATOM     85  OE2 GLU A   6      26.050  41.360  21.320  0.00  0.00    +0.000 OA
ENDBRANCH  82  83
ENDBRANCH  81  82
ENDBRANCH  54  81
ENDBRANCH  52  54
ENDBRANCH   1  50
BRANCH   1  86
ATOM     86  CB  ARG A   5      30.090  38.490  25.400  0.00  0.00    +0.000 C 
BRANCH  86  87
ATOM     87  CG  ARG A   5      31.490  38.970  25.800  0.00  0.00    +0.000 C 
BRANCH  87  88
ATOM     88  CD  ARG A   5      31.620  39.400  27.260  0.00  0.00    +0.000 C 
BRANCH  88  89
ATOM     89  NE  ARG A   5      31.770  38.240  28.140  0.00  0.00    +0.000 N 
ATOM     90  CZ  ARG A   5      31.990  38.320  29.460  0.00  0.00    +0.000 C 
ATOM     91  NH1 ARG A   5      32.250  37.190  30.140  0.00  0.00    +0.000 N 
ATOM     92  NH2 ARG A   5      31.940  39.450  30.170  0.00  0.00    +0.000 N 
ATOM     93  HE  ARG A   5      31.830  37.350  27.660  0.00  0.00    +0.000 HD
ATOM     94 HH11 ARG A   5      31.930  36.290  29.820  0.00  0.00    +0.000 HD
ATOM     95 HH12 ARG A   5      32.440  37.260  31.130  0.00  0.00    +0.000 HD
ATOM     96 HH21 ARG A   5      31.890  40.390  29.810  0.00  0.00    +0.000 HD
ATOM     97 HH22 ARG A   5      32.120  39.390  31.170  0.00  0.00    +0.000 HD
ENDBRANCH  88  89
ENDBRANCH  87  88
ENDBRANCH  86  87
ENDBRANCH   1  86
TORSDOF 35
