REMARK  Name = /Users/acegid/Desktop/Smoking_Research/Docking/Docking_All_PDB/All_PDB/6EY3_H.pdb
REMARK  18 active torsions:
REMARK  status: ('A' for Active; 'I' for Inactive)
REMARK    1  A    between atoms: N_1  and  CA_4
REMARK    2  A    between atoms: CA_14  and  CB_17
REMARK    3  A    between atoms: CB_17  and  CG_18
REMARK    4  A    between atoms: CG_18  and  CD_19
REMARK    5  A    between atoms: CD_19  and  NE_20
REMARK    6  A    between atoms: CA_52  and  CB_55
REMARK    7  A    between atoms: CB_55  and  CG_56
REMARK    8  A    between atoms: CG_56  and  CD1_57
REMARK    9  A    between atoms: CG_56  and  CD2_58
REMARK   10  A    between atoms: CA_71  and  CB_74
REMARK   11  A    between atoms: CB_74  and  CG_75
REMARK   12  A    between atoms: CA_95  and  CB_98
REMARK   13  A    between atoms: CB_98  and  OG1_99
REMARK   14  A    between atoms: CB_98  and  CG2_100
REMARK   15  A    between atoms: CA_109  and  CB_112
REMARK   16  A    between atoms: CA_119  and  C_120
REMARK   17  A    between atoms: N_128  and  CA_129
REMARK   18  A    between atoms: CA_129  and  C_130
REMARK                            x       y       z     vdW  Elec       q    Type
REMARK                         _______ _______ _______ _____ _____    ______ ____
ROOT
ATOM      1  CA  CYS A   1       3.582   0.963  -1.357  0.00  0.00    +0.000 C 
ATOM      2  C   CYS A   1       3.140  -0.496  -1.278  0.00  0.00    +0.000 C 
ATOM      3  O   CYS A   1       2.474  -0.873  -0.316  0.00  0.00    +0.000 OA
ATOM      4  CB  CYS A   1       5.076   1.039  -1.676  0.00  0.00    +0.000 C 
ATOM      5  SG  CYS A   1       5.681   2.725  -2.004  0.00  0.00    +0.000 S 
ATOM      6  N   ARG A   2       3.518  -1.275  -2.281  0.00  0.00    +0.000 N 
ATOM      7  CA  ARG A   2       3.156  -2.682  -2.313  0.00  0.00    +0.000 C 
ATOM      8  C   ARG A   2       3.823  -3.375  -3.502  0.00  0.00    +0.000 C 
ATOM      9  O   ARG A   2       3.147  -3.988  -4.327  0.00  0.00    +0.000 OA
ATOM     10  H   ARG A   2       4.060  -0.961  -3.060  0.00  0.00    +0.000 HD
ATOM     11  N   PRO A   3       5.177  -3.252  -3.554  0.00  0.00    +0.000 N 
ATOM     12  CA  PRO A   3       5.943  -3.859  -4.629  0.00  0.00    +0.000 C 
ATOM     13  C   PRO A   3       5.787  -3.068  -5.929  0.00  0.00    +0.000 C 
ATOM     14  O   PRO A   3       5.365  -1.913  -5.909  0.00  0.00    +0.000 OA
ATOM     15  CB  PRO A   3       7.375  -3.891  -4.121  0.00  0.00    +0.000 C 
ATOM     16  CG  PRO A   3       7.437  -2.885  -2.983  0.00  0.00    +0.000 C 
ATOM     17  CD  PRO A   3       6.010  -2.534  -2.594  0.00  0.00    +0.000 C 
ATOM     18  N   LEU A   4       6.135  -3.721  -7.027  0.00  0.00    +0.000 N 
ATOM     19  CA  LEU A   4       6.039  -3.093  -8.334  0.00  0.00    +0.000 C 
ATOM     20  C   LEU A   4       4.581  -3.111  -8.797  0.00  0.00    +0.000 C 
ATOM     21  O   LEU A   4       4.277  -3.601  -9.884  0.00  0.00    +0.000 OA
ATOM     22  H   LEU A   4       6.478  -4.661  -7.034  0.00  0.00    +0.000 HD
ATOM     23  N   TRP A   5       3.717  -2.571  -7.950  0.00  0.00    +0.000 N 
ATOM     24  CA  TRP A   5       2.299  -2.519  -8.260  0.00  0.00    +0.000 C 
ATOM     25  C   TRP A   5       2.085  -1.435  -9.319  0.00  0.00    +0.000 C 
ATOM     26  O   TRP A   5       0.982  -1.282  -9.842  0.00  0.00    +0.000 OA
ATOM     27  H   TRP A   5       3.972  -2.174  -7.068  0.00  0.00    +0.000 HD
ATOM     28  N   THR A   6       3.158  -0.711  -9.603  0.00  0.00    +0.000 N 
ATOM     29  CA  THR A   6       3.101   0.354 -10.590  0.00  0.00    +0.000 C 
ATOM     30  C   THR A   6       2.821   1.696  -9.912  0.00  0.00    +0.000 C 
ATOM     31  O   THR A   6       3.235   2.744 -10.405  0.00  0.00    +0.000 OA
ATOM     32  H   THR A   6       4.051  -0.842  -9.173  0.00  0.00    +0.000 HD
ATOM     33  N   ALA A   7       2.120   1.621  -8.790  0.00  0.00    +0.000 N 
ATOM     34  CA  ALA A   7       1.779   2.817  -8.039  0.00  0.00    +0.000 C 
ATOM     35  C   ALA A   7       3.060   3.460  -7.504  0.00  0.00    +0.000 C 
ATOM     36  O   ALA A   7       3.462   4.551  -7.908  0.00  0.00    +0.000 OA
ATOM     37  CB  ALA A   7       0.977   3.768  -8.929  0.00  0.00    +0.000 C 
ATOM     38  H   ALA A   7       1.786   0.764  -8.395  0.00  0.00    +0.000 HD
ATOM     39  N   CYS A   8       3.699   2.753  -6.578  0.00  0.00    +0.000 N 
ATOM     40  CA  CYS A   8       4.935   3.229  -5.969  0.00  0.00    +0.000 C 
ATOM     41  CB  CYS A   8       5.545   2.140  -5.085  0.00  0.00    +0.000 C 
ATOM     42  SG  CYS A   8       6.614   2.775  -3.753  0.00  0.00    +0.000 S 
ATOM     43  H   CYS A   8       3.330   1.889  -6.296  0.00  0.00    +0.000 HD
ENDROOT
BRANCH   1  44
ATOM     44  N   CYS A   1       3.295   1.661  -0.109  0.00  0.00    +0.000 N 
ATOM     45  H2  CYS A   1       3.002   2.807  -0.342  0.00  0.00    +0.000 HD
ATOM     46  H3  CYS A   1       4.211   1.838   0.654  0.00  0.00    +0.000 HD
ATOM     47  H   CYS A   1       2.587   1.318   0.478  0.00  0.00    +0.000 HD
ENDBRANCH   1  44
BRANCH  40  48
ATOM     48  C   CYS A   8       5.939   3.655  -7.037  0.00  0.00    +0.000 C 
ATOM     49  O   CYS A   8       6.634   4.658  -6.885  0.00  0.00    +0.000 OA
ATOM     50  N   GLY A   9       6.008   2.883  -8.117  0.00  0.00    +0.000 N 
ATOM     51  H   GLY A   9       5.429   2.095  -8.183  0.00  0.00    +0.000 HD
BRANCH  50  52
ATOM     52  CA  GLY A   9       6.929   3.196  -9.194  0.00  0.00    +0.000 C 
BRANCH  52  53
ATOM     53  C   GLY A   9       8.379   3.110  -8.761  0.00  0.00    +0.000 C 
ATOM     54  O   GLY A   9       8.864   3.966  -8.022  0.00  0.00    +0.000 OA
ATOM     55  OXT GLY A   9       8.552   2.082  -9.444  0.00  0.00    +0.000 OA
ENDBRANCH  52  53
ENDBRANCH  50  52
ENDBRANCH  40  48
BRANCH  29  56
ATOM     56  CB  THR A   6       4.411   0.334 -11.382  0.00  0.00    +0.000 C 
ATOM     57  CG2 THR A   6       4.317   1.125 -12.688  0.00  0.00    +0.000 C 
BRANCH  56  58
ATOM     58  OG1 THR A   6       4.541  -1.020 -11.804  0.00  0.00    +0.000 OA
ATOM     59  HG1 THR A   6       5.468  -1.186 -12.139  0.00  0.00    +0.000 HD
ENDBRANCH  56  58
ENDBRANCH  29  56
BRANCH  24  60
ATOM     60  CB  TRP A   5       1.782  -3.891  -8.696  0.00  0.00    +0.000 C 
BRANCH  60  61
ATOM     61  CG  TRP A   5       1.087  -3.890 -10.059  0.00  0.00    +0.000 A 
ATOM     62  CD1 TRP A   5       1.651  -3.966 -11.272  0.00  0.00    +0.000 A 
ATOM     63  CD2 TRP A   5      -0.333  -3.805 -10.300  0.00  0.00    +0.000 A 
ATOM     64  NE1 TRP A   5       0.702  -3.937 -12.274  0.00  0.00    +0.000 N 
ATOM     65  CE2 TRP A   5      -0.543  -3.836 -11.664  0.00  0.00    +0.000 A 
ATOM     66  CE3 TRP A   5      -1.405  -3.706  -9.396  0.00  0.00    +0.000 A 
ATOM     67  CZ2 TRP A   5      -1.815  -3.771 -12.245  0.00  0.00    +0.000 A 
ATOM     68  CZ3 TRP A   5      -2.670  -3.643  -9.993  0.00  0.00    +0.000 A 
ATOM     69  CH2 TRP A   5      -2.898  -3.672 -11.364  0.00  0.00    +0.000 A 
ATOM     70  HE1 TRP A   5       0.893  -3.984 -13.346  0.00  0.00    +0.000 HD
ENDBRANCH  60  61
ENDBRANCH  24  60
BRANCH   7  71
ATOM     71  CB  ARG A   2       3.573  -3.387  -1.020  0.00  0.00    +0.000 C 
BRANCH  71  72
ATOM     72  CG  ARG A   2       2.367  -4.034  -0.335  0.00  0.00    +0.000 C 
BRANCH  72  73
ATOM     73  CD  ARG A   2       2.745  -4.570   1.047  0.00  0.00    +0.000 C 
BRANCH  73  74
ATOM     74  NE  ARG A   2       3.902  -5.486   0.936  0.00  0.00    +0.000 N 
ATOM     75  CZ  ARG A   2       5.178  -5.108   1.090  0.00  0.00    +0.000 C 
ATOM     76  NH1 ARG A   2       6.163  -6.008   0.971  0.00  0.00    +0.000 N 
ATOM     77  NH2 ARG A   2       5.469  -3.829   1.364  0.00  0.00    +0.000 N 
ATOM     78  HE  ARG A   2       3.720  -6.448   0.732  0.00  0.00    +0.000 HD
ATOM     79 HH11 ARG A   2       7.116  -5.725   1.087  0.00  0.00    +0.000 HD
ATOM     80 HH12 ARG A   2       5.946  -6.963   0.767  0.00  0.00    +0.000 HD
ATOM     81 HH21 ARG A   2       6.421  -3.546   1.480  0.00  0.00    +0.000 HD
ATOM     82 HH22 ARG A   2       4.733  -3.157   1.453  0.00  0.00    +0.000 HD
ENDBRANCH  73  74
ENDBRANCH  72  73
ENDBRANCH  71  72
ENDBRANCH   7  71
BRANCH  19  83
ATOM     83  CB  LEU A   4       6.657  -1.694  -8.302  0.00  0.00    +0.000 C 
BRANCH  83  84
ATOM     84  CG  LEU A   4       7.658  -1.378  -9.415  0.00  0.00    +0.000 C 
ATOM     85  CD1 LEU A   4       8.135   0.074  -9.328  0.00  0.00    +0.000 C 
ATOM     86  CD2 LEU A   4       8.825  -2.366  -9.400  0.00  0.00    +0.000 C 
ENDBRANCH  83  84
ENDBRANCH  19  83
TORSDOF 14
