REMARK  Name = /Users/acegid/Desktop/Smoking_Research/Docking/Docking_All_PDB/All_PDB/7DCV_H.pdb
REMARK  282 active torsions:
REMARK  status: ('A' for Active; 'I' for Inactive)
REMARK    1  A    between atoms: N_1  and  CA_2
REMARK    2  A    between atoms: CA_2  and  C_3
REMARK    3  A    between atoms: CA_2  and  CB_5
REMARK    4  A    between atoms: N_13  and  CA_14
REMARK    5  A    between atoms: CA_14  and  C_15
REMARK    6  A    between atoms: CA_14  and  CB_17
REMARK    7  A    between atoms: CB_17  and  CG_18
REMARK    8  A    between atoms: CA_31  and  C_32
REMARK    9  A    between atoms: CA_45  and  C_46
REMARK   10  A    between atoms: N_58  and  CA_59
REMARK   11  A    between atoms: CA_59  and  C_60
REMARK   12  A    between atoms: CA_59  and  CB_62
REMARK   13  A    between atoms: CB_62  and  CG_63
REMARK   14  A    between atoms: N_72  and  CA_73
REMARK   15  A    between atoms: CA_73  and  C_74
REMARK   16  A    between atoms: CA_73  and  CB_76
REMARK   17  A    between atoms: CB_76  and  CG_77
REMARK   18  A    between atoms: CG_77  and  CD_78
REMARK   19  A    between atoms: N_87  and  CA_88
REMARK   20  A    between atoms: CA_88  and  C_89
REMARK   21  A    between atoms: CA_88  and  CB_91
REMARK   22  A    between atoms: CB_91  and  CG_92
REMARK   23  A    between atoms: CG_92  and  CD_93
REMARK   24  A    between atoms: CD_93  and  NE_94
REMARK   25  A    between atoms: N_111  and  CA_112
REMARK   26  A    between atoms: CA_112  and  C_113
REMARK   27  A    between atoms: CA_112  and  CB_115
REMARK   28  A    between atoms: CB_115  and  OG1_116
REMARK   29  A    between atoms: CB_115  and  CG2_117
REMARK   30  A    between atoms: N_125  and  CA_126
REMARK   31  A    between atoms: CA_126  and  C_127
REMARK   32  A    between atoms: CA_126  and  CB_129
REMARK   33  A    between atoms: CB_129  and  CG_130
REMARK   34  A    between atoms: N_142  and  CA_143
REMARK   35  A    between atoms: CA_143  and  C_144
REMARK   36  A    between atoms: CA_143  and  CB_146
REMARK   37  A    between atoms: CB_146  and  CG_147
REMARK   38  A    between atoms: CG_147  and  CD1_148
REMARK   39  A    between atoms: CG_147  and  CD2_149
REMARK   40  A    between atoms: N_161  and  CA_162
REMARK   41  A    between atoms: CA_162  and  C_163
REMARK   42  A    between atoms: CA_162  and  CB_165
REMARK   43  A    between atoms: CB_165  and  CG1_166
REMARK   44  A    between atoms: CB_165  and  CG2_167
REMARK   45  A    between atoms: N_177  and  CA_178
REMARK   46  A    between atoms: CA_178  and  C_179
REMARK   47  A    between atoms: CA_178  and  CB_181
REMARK   48  A    between atoms: CB_181  and  CG1_182
REMARK   49  A    between atoms: CB_181  and  CG2_183
REMARK   50  A    between atoms: CG1_182  and  CD1_184
REMARK   51  A    between atoms: N_196  and  CA_197
REMARK   52  A    between atoms: CA_197  and  C_198
REMARK   53  A    between atoms: CA_197  and  CB_200
REMARK   54  A    between atoms: CB_200  and  CG_201
REMARK   55  A    between atoms: CG_201  and  CD1_202
REMARK   56  A    between atoms: CG_201  and  CD2_203
REMARK   57  A    between atoms: N_215  and  CA_216
REMARK   58  A    between atoms: CA_216  and  C_217
REMARK   59  A    between atoms: N_222  and  CA_223
REMARK   60  A    between atoms: CA_223  and  C_224
REMARK   61  A    between atoms: CA_223  and  CB_226
REMARK   62  A    between atoms: N_232  and  CA_233
REMARK   63  A    between atoms: CA_233  and  C_234
REMARK   64  A    between atoms: CA_233  and  CB_236
REMARK   65  A    between atoms: CB_236  and  CG1_237
REMARK   66  A    between atoms: CB_236  and  CG2_238
REMARK   67  A    between atoms: CG1_237  and  CD1_239
REMARK   68  A    between atoms: N_251  and  CA_252
REMARK   69  A    between atoms: CA_252  and  C_253
REMARK   70  A    between atoms: CA_252  and  CB_255
REMARK   71  A    between atoms: CB_255  and  CG_256
REMARK   72  A    between atoms: CG_256  and  CD1_257
REMARK   73  A    between atoms: CG_256  and  CD2_258
REMARK   74  A    between atoms: N_270  and  CA_271
REMARK   75  A    between atoms: CA_271  and  C_272
REMARK   76  A    between atoms: CA_271  and  CB_274
REMARK   77  A    between atoms: CB_274  and  CG_275
REMARK   78  A    between atoms: CG_275  and  CD1_276
REMARK   79  A    between atoms: CG_275  and  CD2_277
REMARK   80  A    between atoms: N_289  and  CA_290
REMARK   81  A    between atoms: CA_290  and  C_291
REMARK   82  A    between atoms: CA_290  and  CB_293
REMARK   83  A    between atoms: N_299  and  CA_300
REMARK   84  A    between atoms: CA_300  and  C_301
REMARK   85  A    between atoms: CA_300  and  CB_303
REMARK   86  A    between atoms: CB_303  and  CG_304
REMARK   87  A    between atoms: CG_304  and  CD1_305
REMARK   88  A    between atoms: CG_304  and  CD2_306
REMARK   89  A    between atoms: N_318  and  CA_319
REMARK   90  A    between atoms: CA_319  and  C_320
REMARK   91  A    between atoms: N_325  and  CA_326
REMARK   92  A    between atoms: CA_326  and  C_327
REMARK   93  A    between atoms: CA_326  and  CB_329
REMARK   94  A    between atoms: CB_329  and  CG1_330
REMARK   95  A    between atoms: CB_329  and  CG2_331
REMARK   96  A    between atoms: N_341  and  CA_342
REMARK   97  A    between atoms: CA_342  and  C_343
REMARK   98  A    between atoms: CA_342  and  CB_345
REMARK   99  A    between atoms: N_351  and  CA_352
REMARK  100  A    between atoms: CA_352  and  C_353
REMARK  101  A    between atoms: CA_352  and  CB_355
REMARK  102  A    between atoms: CB_355  and  CG_356
REMARK  103  A    between atoms: CG_356  and  CD1_357
REMARK  104  A    between atoms: CG_356  and  CD2_358
REMARK  105  A    between atoms: N_370  and  CA_371
REMARK  106  A    between atoms: CA_371  and  C_372
REMARK  107  A    between atoms: CA_371  and  CB_374
REMARK  108  A    between atoms: CB_374  and  OG1_375
REMARK  109  A    between atoms: CB_374  and  CG2_376
REMARK  110  A    between atoms: N_384  and  CA_385
REMARK  111  A    between atoms: CA_385  and  C_386
REMARK  112  A    between atoms: CA_385  and  CB_388
REMARK  113  A    between atoms: CB_388  and  CG_389
REMARK  114  A    between atoms: N_404  and  CA_405
REMARK  115  A    between atoms: CA_405  and  C_406
REMARK  116  A    between atoms: CA_405  and  CB_408
REMARK  117  A    between atoms: CB_408  and  CG1_409
REMARK  118  A    between atoms: CB_408  and  CG2_410
REMARK  119  A    between atoms: CG1_409  and  CD1_411
REMARK  120  A    between atoms: N_423  and  CA_424
REMARK  121  A    between atoms: CA_424  and  C_425
REMARK  122  A    between atoms: CA_424  and  CB_427
REMARK  123  A    between atoms: CB_427  and  CG_428
REMARK  124  A    between atoms: N_443  and  CA_444
REMARK  125  A    between atoms: CA_444  and  C_445
REMARK  126  A    between atoms: CA_444  and  CB_447
REMARK  127  A    between atoms: CB_447  and  CG_448
REMARK  128  A    between atoms: CG_448  and  CD_449
REMARK  129  A    between atoms: CD_449  and  NE_450
REMARK  130  A    between atoms: N_467  and  CA_468
REMARK  131  A    between atoms: CA_468  and  C_469
REMARK  132  A    between atoms: CA_468  and  CB_471
REMARK  133  A    between atoms: CB_471  and  CG_472
REMARK  134  A    between atoms: CG_472  and  CD1_473
REMARK  135  A    between atoms: CG_472  and  CD2_474
REMARK  136  A    between atoms: N_486  and  CA_487
REMARK  137  A    between atoms: CA_487  and  C_488
REMARK  138  A    between atoms: CA_487  and  CB_490
REMARK  139  A    between atoms: CB_490  and  CG_491
REMARK  140  A    between atoms: CG_491  and  CD_492
REMARK  141  A    between atoms: CD_492  and  NE_493
REMARK  142  A    between atoms: N_510  and  CA_511
REMARK  143  A    between atoms: CA_511  and  C_512
REMARK  144  A    between atoms: CA_511  and  CB_514
REMARK  145  A    between atoms: CB_514  and  CG_515
REMARK  146  A    between atoms: CG_515  and  CD_516
REMARK  147  A    between atoms: CD_516  and  CE_517
REMARK  148  A    between atoms: CE_517  and  NZ_518
REMARK  149  A    between atoms: N_532  and  CA_533
REMARK  150  A    between atoms: CA_533  and  C_534
REMARK  151  A    between atoms: N_539  and  CA_540
REMARK  152  A    between atoms: CA_540  and  C_541
REMARK  153  A    between atoms: CA_540  and  CB_543
REMARK  154  A    between atoms: CB_543  and  CG_544
REMARK  155  A    between atoms: CG_544  and  CD_545
REMARK  156  A    between atoms: CD_545  and  NE_546
REMARK  157  A    between atoms: N_563  and  CA_564
REMARK  158  A    between atoms: CA_564  and  C_565
REMARK  159  A    between atoms: CA_564  and  CB_567
REMARK  160  A    between atoms: CB_567  and  CG_568
REMARK  161  A    between atoms: CG_568  and  CD1_569
REMARK  162  A    between atoms: CG_568  and  CD2_570
REMARK  163  A    between atoms: N_582  and  CA_583
REMARK  164  A    between atoms: CA_583  and  C_584
REMARK  165  A    between atoms: CA_583  and  CB_586
REMARK  166  A    between atoms: CB_586  and  CG_587
REMARK  167  A    between atoms: CG_587  and  CD1_588
REMARK  168  A    between atoms: CG_587  and  CD2_589
REMARK  169  A    between atoms: N_601  and  CA_602
REMARK  170  A    between atoms: CA_602  and  C_603
REMARK  171  A    between atoms: CA_602  and  CB_605
REMARK  172  A    between atoms: CB_605  and  CG_606
REMARK  173  A    between atoms: N_613  and  CA_614
REMARK  174  A    between atoms: CA_614  and  C_615
REMARK  175  A    between atoms: CA_614  and  CB_617
REMARK  176  A    between atoms: CB_617  and  CG1_618
REMARK  177  A    between atoms: CB_617  and  CG2_619
REMARK  178  A    between atoms: N_629  and  CA_630
REMARK  179  A    between atoms: CA_630  and  C_631
REMARK  180  A    between atoms: CA_630  and  CB_633
REMARK  181  A    between atoms: CB_633  and  CG_634
REMARK  182  A    between atoms: CG_634  and  CD_635
REMARK  183  A    between atoms: CD_635  and  CE_636
REMARK  184  A    between atoms: CE_636  and  NZ_637
REMARK  185  A    between atoms: N_651  and  CA_652
REMARK  186  A    between atoms: CA_652  and  C_653
REMARK  187  A    between atoms: CA_652  and  CB_655
REMARK  188  A    between atoms: CB_655  and  CG_656
REMARK  189  A    between atoms: CG_656  and  CD_657
REMARK  190  A    between atoms: CD_657  and  CE_658
REMARK  191  A    between atoms: CE_658  and  NZ_659
REMARK  192  A    between atoms: N_673  and  CA_674
REMARK  193  A    between atoms: CA_674  and  C_675
REMARK  194  A    between atoms: CA_674  and  CB_677
REMARK  195  A    between atoms: CB_677  and  OG_678
REMARK  196  A    between atoms: N_684  and  CA_685
REMARK  197  A    between atoms: CA_685  and  C_686
REMARK  198  A    between atoms: N_691  and  CA_692
REMARK  199  A    between atoms: CA_692  and  C_693
REMARK  200  A    between atoms: CA_692  and  CB_695
REMARK  201  A    between atoms: CB_695  and  CG1_696
REMARK  202  A    between atoms: CB_695  and  CG2_697
REMARK  203  A    between atoms: CG1_696  and  CD1_698
REMARK  204  A    between atoms: N_710  and  CA_711
REMARK  205  A    between atoms: CA_711  and  C_712
REMARK  206  A    between atoms: CA_711  and  CB_714
REMARK  207  A    between atoms: CB_714  and  CG_715
REMARK  208  A    between atoms: CG_715  and  CD_716
REMARK  209  A    between atoms: N_727  and  CA_728
REMARK  210  A    between atoms: CA_728  and  C_729
REMARK  211  A    between atoms: CA_728  and  CB_731
REMARK  212  A    between atoms: CB_731  and  CG_732
REMARK  213  A    between atoms: N_739  and  CA_740
REMARK  214  A    between atoms: CA_740  and  C_741
REMARK  215  A    between atoms: CA_740  and  CB_743
REMARK  216  A    between atoms: CB_743  and  OG1_744
REMARK  217  A    between atoms: CB_743  and  CG2_745
REMARK  218  A    between atoms: N_753  and  CA_754
REMARK  219  A    between atoms: CA_754  and  C_755
REMARK  220  A    between atoms: CA_754  and  CB_757
REMARK  221  A    between atoms: CB_757  and  CG_758
REMARK  222  A    between atoms: N_767  and  CA_768
REMARK  223  A    between atoms: CA_768  and  C_769
REMARK  224  A    between atoms: CA_768  and  CB_771
REMARK  225  A    between atoms: CB_771  and  OG_772
REMARK  226  A    between atoms: N_778  and  CA_779
REMARK  227  A    between atoms: CA_779  and  C_780
REMARK  228  A    between atoms: CA_779  and  CB_782
REMARK  229  A    between atoms: CB_782  and  CG_783
REMARK  230  A    between atoms: CG_783  and  CD_784
REMARK  231  A    between atoms: CD_784  and  CE_785
REMARK  232  A    between atoms: CE_785  and  NZ_786
REMARK  233  A    between atoms: N_800  and  CA_801
REMARK  234  A    between atoms: CA_801  and  C_802
REMARK  235  A    between atoms: CA_801  and  CB_804
REMARK  236  A    between atoms: CB_804  and  CG_805
REMARK  237  A    between atoms: CG_805  and  CD_806
REMARK  238  A    between atoms: CD_806  and  CE_807
REMARK  239  A    between atoms: CE_807  and  NZ_808
REMARK  240  A    between atoms: N_822  and  CA_823
REMARK  241  A    between atoms: CA_823  and  C_824
REMARK  242  A    between atoms: CA_823  and  CB_826
REMARK  243  A    between atoms: CB_826  and  CG_827
REMARK  244  A    between atoms: CG_827  and  CD_828
REMARK  245  A    between atoms: N_839  and  CA_840
REMARK  246  A    between atoms: CA_840  and  C_841
REMARK  247  A    between atoms: CA_840  and  CB_843
REMARK  248  A    between atoms: CB_843  and  OG_844
REMARK  249  A    between atoms: N_850  and  CA_851
REMARK  250  A    between atoms: CA_851  and  C_852
REMARK  251  A    between atoms: CA_851  and  CB_854
REMARK  252  A    between atoms: CB_854  and  CG_855
REMARK  253  A    between atoms: N_862  and  CA_863
REMARK  254  A    between atoms: CA_863  and  C_864
REMARK  255  A    between atoms: CA_863  and  CB_866
REMARK  256  A    between atoms: CB_866  and  OG1_867
REMARK  257  A    between atoms: CB_866  and  CG2_868
REMARK  258  A    between atoms: N_876  and  CA_877
REMARK  259  A    between atoms: CA_877  and  C_878
REMARK  260  A    between atoms: CA_877  and  CB_880
REMARK  261  A    between atoms: CB_880  and  CG_881
REMARK  262  A    between atoms: N_893  and  CA_894
REMARK  263  A    between atoms: CA_894  and  C_895
REMARK  264  A    between atoms: CA_894  and  CB_897
REMARK  265  A    between atoms: CB_897  and  CG_898
REMARK  266  A    between atoms: CG_898  and  CD1_899
REMARK  267  A    between atoms: CG_898  and  CD2_900
REMARK  268  A    between atoms: N_912  and  CA_913
REMARK  269  A    between atoms: CA_913  and  C_914
REMARK  270  A    between atoms: CA_913  and  CB_916
REMARK  271  A    between atoms: CB_916  and  CG_917
REMARK  272  A    between atoms: CG_917  and  CD_918
REMARK  273  A    between atoms: N_927  and  CA_928
REMARK  274  A    between atoms: CA_928  and  C_929
REMARK  275  A    between atoms: CA_928  and  CB_931
REMARK  276  A    between atoms: CB_931  and  CG_932
REMARK  277  A    between atoms: CG_932  and  CD_933
REMARK  278  A    between atoms: N_942  and  CA_943
REMARK  279  A    between atoms: CA_943  and  C_944
REMARK  280  A    between atoms: CA_943  and  CB_946
REMARK  281  A    between atoms: CB_946  and  OG1_947
REMARK  282  A    between atoms: CB_946  and  CG2_948
REMARK                            x       y       z     vdW  Elec       q    Type
REMARK                         _______ _______ _______ _____ _____    ______ ____
ROOT
ATOM      1  CA  ARG A 262      43.826   6.337  -8.262  0.00  0.00    +0.000 C 
ENDROOT
BRANCH   1   4
ATOM      2  C   LEU A 261      43.931   8.421  -6.970  0.00  0.00    +0.000 C 
ATOM      3  O   LEU A 261      45.165   8.413  -7.021  0.00  0.00    +0.000 OA
ATOM      4  N   ARG A 262      43.198   7.480  -7.528  0.00  0.00    +0.000 N 
ATOM      5  H   ARG A 262      42.225   7.527  -7.456  0.00  0.00    +0.000 HD
BRANCH   2   6
ATOM      6  CA  LEU A 261      43.175   9.531  -6.236  0.00  0.00    +0.000 C 
BRANCH   6   9
ATOM      7  C   ARG A 260      41.835  10.288  -8.141  0.00  0.00    +0.000 C 
ATOM      8  O   ARG A 260      42.864  10.558  -8.770  0.00  0.00    +0.000 OA
ATOM      9  N   LEU A 261      41.866   9.793  -6.924  0.00  0.00    +0.000 N 
ATOM     10  H   LEU A 261      41.026   9.590  -6.461  0.00  0.00    +0.000 HD
BRANCH   7  11
ATOM     11  CA  ARG A 260      40.455  10.515  -8.756  0.00  0.00    +0.000 C 
BRANCH  11  14
ATOM     12  C   PHE A 259      39.927   8.167  -9.211  0.00  0.00    +0.000 C 
ATOM     13  O   PHE A 259      40.904   8.087  -9.964  0.00  0.00    +0.000 OA
ATOM     14  N   ARG A 260      39.619   9.282  -8.580  0.00  0.00    +0.000 N 
ATOM     15  H   ARG A 260      38.833   9.310  -7.994  0.00  0.00    +0.000 HD
BRANCH  12  16
ATOM     16  CA  PHE A 259      39.012   6.963  -8.986  0.00  0.00    +0.000 C 
BRANCH  16  19
ATOM     17  C   ILE A 258      39.507   6.736  -6.596  0.00  0.00    +0.000 C 
ATOM     18  O   ILE A 258      40.713   6.669  -6.839  0.00  0.00    +0.000 OA
ATOM     19  N   PHE A 259      38.606   6.875  -7.547  0.00  0.00    +0.000 N 
ATOM     20  H   PHE A 259      37.656   6.901  -7.318  0.00  0.00    +0.000 HD
BRANCH  17  21
ATOM     21  CA  ILE A 258      38.989   6.622  -5.156  0.00  0.00    +0.000 C 
BRANCH  21  24
ATOM     22  C   PHE A 257      38.013   8.859  -4.936  0.00  0.00    +0.000 C 
ATOM     23  O   PHE A 257      39.131   9.368  -5.075  0.00  0.00    +0.000 OA
ATOM     24  N   ILE A 258      37.828   7.556  -4.958  0.00  0.00    +0.000 N 
ATOM     25  H   ILE A 258      36.926   7.191  -4.837  0.00  0.00    +0.000 HD
BRANCH  22  26
ATOM     26  CA  PHE A 257      36.772   9.733  -4.726  0.00  0.00    +0.000 C 
BRANCH  26  29
ATOM     27  C   THR A 256      35.886   9.353  -6.972  0.00  0.00    +0.000 C 
ATOM     28  O   THR A 256      36.946   9.741  -7.471  0.00  0.00    +0.000 OA
ATOM     29  N   PHE A 257      35.697   9.309  -5.672  0.00  0.00    +0.000 N 
ATOM     30  H   PHE A 257      34.838   9.002  -5.316  0.00  0.00    +0.000 HD
BRANCH  27  31
ATOM     31  CA  THR A 256      34.717   8.909  -7.849  0.00  0.00    +0.000 C 
BRANCH  31  34
ATOM     32  C   LEU A 255      34.667   6.580  -7.106  0.00  0.00    +0.000 C 
ATOM     33  O   LEU A 255      35.836   6.417  -7.471  0.00  0.00    +0.000 OA
ATOM     34  N   THR A 256      34.041   7.720  -7.240  0.00  0.00    +0.000 N 
ATOM     35  H   THR A 256      33.114   7.791  -6.941  0.00  0.00    +0.000 HD
BRANCH  32  36
ATOM     36  CA  LEU A 255      33.864   5.442  -6.482  0.00  0.00    +0.000 C 
BRANCH  36  39
ATOM     37  C   ALA A 254      33.779   6.365  -4.214  0.00  0.00    +0.000 C 
ATOM     38  O   ALA A 254      35.014   6.379  -4.160  0.00  0.00    +0.000 OA
ATOM     39  N   LEU A 255      33.127   5.938  -5.274  0.00  0.00    +0.000 N 
ATOM     40  H   LEU A 255      32.146   5.939  -5.274  0.00  0.00    +0.000 HD
BRANCH  37  41
ATOM     41  CA  ALA A 254      32.935   6.843  -3.030  0.00  0.00    +0.000 C 
ATOM     42  CB  ALA A 254      32.320   5.646  -2.292  0.00  0.00    +0.000 C 
BRANCH  41  45
ATOM     43  C   VAL A 253      32.168   8.924  -4.059  0.00  0.00    +0.000 C 
ATOM     44  O   VAL A 253      33.340   9.295  -4.193  0.00  0.00    +0.000 OA
ATOM     45  N   ALA A 254      31.858   7.765  -3.513  0.00  0.00    +0.000 N 
ATOM     46  H   ALA A 254      30.914   7.506  -3.415  0.00  0.00    +0.000 HD
BRANCH  43  47
ATOM     47  CA  VAL A 253      31.009   9.817  -4.511  0.00  0.00    +0.000 C 
BRANCH  47  50
ATOM     48  C   GLY A 252      30.221   8.319  -6.285  0.00  0.00    +0.000 C 
ATOM     49  O   GLY A 252      31.330   8.366  -6.825  0.00  0.00    +0.000 OA
ATOM     50  N   VAL A 253      29.955   8.974  -5.174  0.00  0.00    +0.000 N 
ATOM     51  H   VAL A 253      29.058   8.921  -4.783  0.00  0.00    +0.000 HD
BRANCH  48  52
ATOM     52  CA  GLY A 252      29.084   7.502  -6.900  0.00  0.00    +0.000 C 
BRANCH  52  55
ATOM     53  C   LEU A 251      28.847   5.996  -4.984  0.00  0.00    +0.000 C 
ATOM     54  O   LEU A 251      30.053   5.727  -5.022  0.00  0.00    +0.000 OA
ATOM     55  N   GLY A 252      28.283   6.828  -5.831  0.00  0.00    +0.000 N 
ATOM     56  H   GLY A 252      27.321   7.002  -5.764  0.00  0.00    +0.000 HD
BRANCH  53  57
ATOM     57  CA  LEU A 251      27.925   5.362  -3.942  0.00  0.00    +0.000 C 
BRANCH  57  60
ATOM     58  C   ALA A 250      27.486   7.498  -2.816  0.00  0.00    +0.000 C 
ATOM     59  O   ALA A 250      28.702   7.671  -2.669  0.00  0.00    +0.000 OA
ATOM     60  N   LEU A 251      26.999   6.426  -3.413  0.00  0.00    +0.000 N 
ATOM     61  H   LEU A 251      26.029   6.329  -3.526  0.00  0.00    +0.000 HD
BRANCH  58  62
ATOM     62  CA  ALA A 250      26.480   8.547  -2.332  0.00  0.00    +0.000 C 
ATOM     63  CB  ALA A 250      25.869   8.144  -0.985  0.00  0.00    +0.000 C 
BRANCH  62  66
ATOM     64  C   LEU A 249      25.702   9.045  -4.600  0.00  0.00    +0.000 C 
ATOM     65  O   LEU A 249      26.868   9.208  -4.974  0.00  0.00    +0.000 OA
ATOM     66  N   ALA A 250      25.401   8.728  -3.357  0.00  0.00    +0.000 N 
ATOM     67  H   ALA A 250      24.465   8.617  -3.096  0.00  0.00    +0.000 HD
BRANCH  64  68
ATOM     68  CA  LEU A 249      24.534   9.224  -5.574  0.00  0.00    +0.000 C 
BRANCH  68  71
ATOM     69  C   LEU A 248      23.746   6.901  -5.594  0.00  0.00    +0.000 C 
ATOM     70  O   LEU A 248      24.844   6.530  -6.033  0.00  0.00    +0.000 OA
ATOM     71  N   LEU A 249      23.492   8.170  -5.335  0.00  0.00    +0.000 N 
ATOM     72  H   LEU A 249      22.611   8.432  -4.990  0.00  0.00    +0.000 HD
BRANCH  69  73
ATOM     73  CA  LEU A 248      22.617   5.892  -5.335  0.00  0.00    +0.000 C 
BRANCH  73  76
ATOM     74  C   ILE A 247      22.717   5.951  -2.889  0.00  0.00    +0.000 C 
ATOM     75  O   ILE A 247      23.899   5.586  -2.921  0.00  0.00    +0.000 OA
ATOM     76  N   LEU A 248      22.010   6.129  -3.984  0.00  0.00    +0.000 N 
ATOM     77  H   LEU A 248      21.073   6.409  -3.916  0.00  0.00    +0.000 HD
BRANCH  74  78
ATOM     78  CA  ILE A 247      22.005   6.201  -1.550  0.00  0.00    +0.000 C 
BRANCH  78  81
ATOM     79  C   ALA A 246      21.700   8.604  -1.872  0.00  0.00    +0.000 C 
ATOM     80  O   ALA A 246      22.920   8.759  -1.989  0.00  0.00    +0.000 OA
ATOM     81  N   ILE A 247      21.158   7.428  -1.660  0.00  0.00    +0.000 N 
ATOM     82  H   ILE A 247      20.186   7.353  -1.564  0.00  0.00    +0.000 HD
BRANCH  79  83
ATOM     83  CA  ALA A 246      20.745   9.793  -1.953  0.00  0.00    +0.000 C 
ATOM     84  CB  ALA A 246      20.353  10.245  -0.541  0.00  0.00    +0.000 C 
BRANCH  83  87
ATOM     85  C   GLY A 245      19.605   9.075  -3.999  0.00  0.00    +0.000 C 
ATOM     86  O   GLY A 245      20.682   9.036  -4.599  0.00  0.00    +0.000 OA
ATOM     87  N   ALA A 246      19.519   9.422  -2.733  0.00  0.00    +0.000 N 
ATOM     88  H   ALA A 246      18.640   9.453  -2.297  0.00  0.00    +0.000 HD
BRANCH  85  89
ATOM     89  CA  GLY A 245      18.294   8.740  -4.712  0.00  0.00    +0.000 C 
BRANCH  89  92
ATOM     90  C   LEU A 244      18.093   6.488  -3.776  0.00  0.00    +0.000 C 
ATOM     91  O   LEU A 244      19.221   6.201  -4.186  0.00  0.00    +0.000 OA
ATOM     92  N   GLY A 245      17.554   7.672  -3.974  0.00  0.00    +0.000 N 
ATOM     93  H   GLY A 245      16.650   7.854  -3.646  0.00  0.00    +0.000 HD
BRANCH  90  94
ATOM     94  CA  LEU A 244      17.242   5.460  -3.027  0.00  0.00    +0.000 C 
BRANCH  94  97
ATOM     95  C   ILE A 243      17.053   6.711  -0.928  0.00  0.00    +0.000 C 
ATOM     96  O   ILE A 243      18.284   6.713  -0.815  0.00  0.00    +0.000 OA
ATOM     97  N   LEU A 244      16.447   6.140  -1.949  0.00  0.00    +0.000 N 
ATOM     98  H   LEU A 244      15.469   6.156  -2.005  0.00  0.00    +0.000 HD
BRANCH  95  99
ATOM     99  CA  ILE A 243      16.168   7.385   0.133  0.00  0.00    +0.000 C 
BRANCH  99 102
ATOM    100  C   VAL A 242      15.525   9.343  -1.194  0.00  0.00    +0.000 C 
ATOM    101  O   VAL A 242      16.710   9.679  -1.287  0.00  0.00    +0.000 OA
ATOM    102  N   ILE A 243      15.155   8.262  -0.537  0.00  0.00    +0.000 N 
ATOM    103  H   ILE A 243      14.208   8.029  -0.479  0.00  0.00    +0.000 HD
BRANCH 100 104
ATOM    104  CA  VAL A 242      14.413  10.185  -1.837  0.00  0.00    +0.000 C 
BRANCH 104 107
ATOM    105  C   LEU A 241      13.718   8.617  -3.589  0.00  0.00    +0.000 C 
ATOM    106  O   LEU A 241      14.833   8.699  -4.115  0.00  0.00    +0.000 OA
ATOM    107  N   VAL A 242      13.408   9.285  -2.495  0.00  0.00    +0.000 N 
ATOM    108  H   VAL A 242      12.507   9.204  -2.110  0.00  0.00    +0.000 HD
BRANCH 105 109
ATOM    109  CA  LEU A 241      12.627   7.737  -4.205  0.00  0.00    +0.000 C 
BRANCH 109 112
ATOM    110  C   HIS A 240      12.456   6.059  -2.436  0.00  0.00    +0.000 C 
ATOM    111  O   HIS A 240      13.628   5.726  -2.634  0.00  0.00    +0.000 OA
ATOM    112  N   LEU A 241      11.872   7.016  -3.132  0.00  0.00    +0.000 N 
ATOM    113  H   LEU A 241      10.933   7.252  -2.953  0.00  0.00    +0.000 HD
BRANCH 110 114
ATOM    114  CA  HIS A 240      11.616   5.356  -1.373  0.00  0.00    +0.000 C 
BRANCH 114 117
ATOM    115  C   THR A 239      11.237   7.365  -0.030  0.00  0.00    +0.000 C 
ATOM    116  O   THR A 239      12.455   7.554   0.059  0.00  0.00    +0.000 OA
ATOM    117  N   HIS A 240      10.729   6.344  -0.691  0.00  0.00    +0.000 N 
ATOM    118  H   HIS A 240       9.756   6.224  -0.737  0.00  0.00    +0.000 HD
BRANCH 115 119
ATOM    119  CA  THR A 239      10.243   8.313   0.637  0.00  0.00    +0.000 C 
BRANCH 119 122
ATOM    120  C   ARG A 238       9.190   9.040  -1.455  0.00  0.00    +0.000 C 
ATOM    121  O   ARG A 238      10.292   9.416  -1.872  0.00  0.00    +0.000 OA
ATOM    122  N   THR A 239       9.051   8.491  -0.255  0.00  0.00    +0.000 N 
ATOM    123  H   THR A 239       8.169   8.197   0.057  0.00  0.00    +0.000 HD
BRANCH 120 124
ATOM    124  CA  ARG A 238       7.933   9.202  -2.331  0.00  0.00    +0.000 C 
BRANCH 124 127
ATOM    125  C   GLU A 237       7.328   6.835  -2.526  0.00  0.00    +0.000 C 
ATOM    126  O   GLU A 237       8.394   6.604  -3.109  0.00  0.00    +0.000 OA
ATOM    127  N   ARG A 238       7.007   8.047  -2.110  0.00  0.00    +0.000 N 
ATOM    128  H   ARG A 238       6.150   8.195  -1.655  0.00  0.00    +0.000 HD
BRANCH 125 129
ATOM    129  CA  GLU A 237       6.320   5.705  -2.266  0.00  0.00    +0.000 C 
BRANCH 129 132
ATOM    130  C   ASN A 236       5.749   5.969   0.105  0.00  0.00    +0.000 C 
ATOM    131  O   ASN A 236       6.867   5.545   0.424  0.00  0.00    +0.000 OA
ATOM    132  N   GLU A 237       5.382   6.087  -1.158  0.00  0.00    +0.000 N 
ATOM    133  H   GLU A 237       4.490   6.429  -1.375  0.00  0.00    +0.000 HD
BRANCH 130 134
ATOM    134  CA  ASN A 236       4.724   6.385   1.173  0.00  0.00    +0.000 C 
BRANCH 134 137
ATOM    135  C   PRO A 235       2.357   6.995   1.024  0.00  0.00    +0.000 C 
ATOM    136  O   PRO A 235       2.536   7.940   1.800  0.00  0.00    +0.000 OA
ATOM    137  N   ASN A 236       3.330   6.189   0.659  0.00  0.00    +0.000 N 
ATOM    138  H   ASN A 236       3.141   5.450   0.044  0.00  0.00    +0.000 HD
BRANCH 135 142
ATOM    139  C   PRO A 234       0.466   4.569   1.583  0.00  0.00    +0.000 C 
ATOM    140  O   PRO A 234       1.459   4.061   1.053  0.00  0.00    +0.000 OA
ATOM    141  N   PRO A 235       0.139   5.855   1.348  0.00  0.00    +0.000 N 
ATOM    142  CA  PRO A 235       0.976   6.700   0.436  0.00  0.00    +0.000 C 
ATOM    143  CB  PRO A 235       0.144   7.978   0.296  0.00  0.00    +0.000 C 
ATOM    144  CG  PRO A 235      -0.957   7.964   1.357  0.00  0.00    +0.000 C 
ATOM    145  CD  PRO A 235      -1.050   6.555   1.948  0.00  0.00    +0.000 C 
BRANCH 139 149
ATOM    146  C   HIS A 233       0.402   4.713   4.633  0.00  0.00    +0.000 C 
ATOM    147  O   HIS A 233       1.570   4.525   4.267  0.00  0.00    +0.000 OA
ATOM    148  N   PRO A 234      -0.634   4.344   3.856  0.00  0.00    +0.000 N 
ATOM    149  CA  PRO A 234      -0.401   3.701   2.526  0.00  0.00    +0.000 C 
ATOM    150  CB  PRO A 234      -1.820   3.506   1.975  0.00  0.00    +0.000 C 
ATOM    151  CG  PRO A 234      -2.831   4.011   3.009  0.00  0.00    +0.000 C 
ATOM    152  CD  PRO A 234      -2.075   4.532   4.233  0.00  0.00    +0.000 C 
BRANCH 146 153
ATOM    153  CA  HIS A 233       0.123   5.377   6.005  0.00  0.00    +0.000 C 
BRANCH 153 156
ATOM    154  C   ALA A 232       0.694   3.341   7.241  0.00  0.00    +0.000 C 
ATOM    155  O   ALA A 232       1.767   3.252   6.637  0.00  0.00    +0.000 OA
ATOM    156  N   HIS A 233      -0.163   4.314   7.018  0.00  0.00    +0.000 N 
ATOM    157  H   HIS A 233      -1.003   4.342   7.524  0.00  0.00    +0.000 HD
BRANCH 154 158
ATOM    158  CA  ALA A 232       0.292   2.316   8.297  0.00  0.00    +0.000 C 
ATOM    159  CB  ALA A 232      -0.948   1.548   7.832  0.00  0.00    +0.000 C 
BRANCH 158 160
ATOM    160  N   ALA A 232      -0.011   3.017   9.577  0.00  0.00    +0.000 N 
ATOM    161  H   ALA A 232      -0.538   3.891   9.379  0.00  0.00    +0.000 HD
ATOM    162  H2  ALA A 232       0.879   3.251  10.063  0.00  0.00    +0.000 HD
ATOM    163  H3  ALA A 232      -0.587   2.399  10.184  0.00  0.00    +0.000 HD
ENDBRANCH 158 160
ENDBRANCH 154 158
ENDBRANCH 153 156
BRANCH 153 164
ATOM    164  CB  HIS A 233       1.333   6.218   6.451  0.00  0.00    +0.000 C 
BRANCH 164 165
ATOM    165  CG  HIS A 233       0.918   7.198   7.521  0.00  0.00    +0.000 A 
ATOM    166  ND1 HIS A 233       0.064   6.851   8.559  0.00  0.00    +0.000 N 
ATOM    167  CD2 HIS A 233       1.234   8.518   7.724  0.00  0.00    +0.000 A 
ATOM    168  CE1 HIS A 233      -0.102   7.942   9.330  0.00  0.00    +0.000 A 
ATOM    169  NE2 HIS A 233       0.589   8.986   8.866  0.00  0.00    +0.000 NA
ATOM    170  HD1 HIS A 233      -0.344   5.972   8.702  0.00  0.00    +0.000 HD
ENDBRANCH 164 165
ENDBRANCH 153 164
ENDBRANCH 146 153
ENDBRANCH 139 149
ENDBRANCH 135 142
ENDBRANCH 134 137
BRANCH 134 171
ATOM    171  CB  ASN A 236       4.929   5.560   2.452  0.00  0.00    +0.000 C 
BRANCH 171 172
ATOM    172  CG  ASN A 236       4.782   4.070   2.150  0.00  0.00    +0.000 C 
ATOM    173  OD1 ASN A 236       3.672   3.543   2.122  0.00  0.00    +0.000 OA
ATOM    174  ND2 ASN A 236       5.850   3.356   1.921  0.00  0.00    +0.000 N 
ATOM    175 HD21 ASN A 236       6.735   3.776   1.944  0.00  0.00    +0.000 HD
ATOM    176 HD22 ASN A 236       5.766   2.399   1.725  0.00  0.00    +0.000 HD
ENDBRANCH 171 172
ENDBRANCH 134 171
ENDBRANCH 130 134
ENDBRANCH 129 132
BRANCH 129 177
ATOM    177  CB  GLU A 237       5.538   5.396  -3.551  0.00  0.00    +0.000 C 
BRANCH 177 178
ATOM    178  CG  GLU A 237       6.474   4.750  -4.576  0.00  0.00    +0.000 C 
BRANCH 178 179
ATOM    179  CD  GLU A 237       5.709   4.435  -5.860  0.00  0.00    +0.000 C 
ATOM    180  OE1 GLU A 237       5.866   3.335  -6.364  0.00  0.00    +0.000 OA
ATOM    181  OE2 GLU A 237       4.978   5.298  -6.320  0.00  0.00    +0.000 OA
ENDBRANCH 178 179
ENDBRANCH 177 178
ENDBRANCH 129 177
ENDBRANCH 125 129
ENDBRANCH 124 127
BRANCH 124 182
ATOM    182  CB  ARG A 238       7.202  10.536  -2.040  0.00  0.00    +0.000 C 
BRANCH 182 183
ATOM    183  CG  ARG A 238       8.148  11.746  -2.241  0.00  0.00    +0.000 C 
BRANCH 183 184
ATOM    184  CD  ARG A 238       8.037  12.300  -3.670  0.00  0.00    +0.000 C 
BRANCH 184 185
ATOM    185  NE  ARG A 238       8.447  13.746  -3.692  0.00  0.00    +0.000 N 
ATOM    186  CZ  ARG A 238       8.734  14.377  -4.821  0.00  0.00    +0.000 C 
ATOM    187  NH1 ARG A 238       9.081  15.634  -4.774  0.00  0.00    +0.000 N 
ATOM    188  NH2 ARG A 238       8.677  13.775  -5.986  0.00  0.00    +0.000 N 
ATOM    189  HE  ARG A 238       8.500  14.237  -2.847  0.00  0.00    +0.000 HD
ATOM    190 HH11 ARG A 238       9.127  16.108  -3.895  0.00  0.00    +0.000 HD
ATOM    191 HH12 ARG A 238       9.304  16.124  -5.618  0.00  0.00    +0.000 HD
ATOM    192 HH21 ARG A 238       8.411  12.813  -6.040  0.00  0.00    +0.000 HD
ATOM    193 HH22 ARG A 238       8.902  14.278  -6.820  0.00  0.00    +0.000 HD
ENDBRANCH 184 185
ENDBRANCH 183 184
ENDBRANCH 182 183
ENDBRANCH 124 182
ENDBRANCH 120 124
ENDBRANCH 119 122
BRANCH 119 194
ATOM    194  CB  THR A 239       9.817   7.736   1.992  0.00  0.00    +0.000 C 
ATOM    195  CG2 THR A 239       8.989   8.767   2.760  0.00  0.00    +0.000 C 
BRANCH 194 196
ATOM    196  OG1 THR A 239       9.042   6.564   1.782  0.00  0.00    +0.000 OA
ATOM    197  HG1 THR A 239       8.233   6.820   1.334  0.00  0.00    +0.000 HD
ENDBRANCH 194 196
ENDBRANCH 119 194
ENDBRANCH 115 119
ENDBRANCH 114 117
BRANCH 114 198
ATOM    198  CB  HIS A 240      10.773   4.255  -2.024  0.00  0.00    +0.000 C 
BRANCH 198 199
ATOM    199  CG  HIS A 240      10.192   3.365  -0.959  0.00  0.00    +0.000 A 
ATOM    200  ND1 HIS A 240       8.836   3.091  -0.884  0.00  0.00    +0.000 N 
ATOM    201  CD2 HIS A 240      10.771   2.683   0.083  0.00  0.00    +0.000 A 
ATOM    202  CE1 HIS A 240       8.645   2.275   0.169  0.00  0.00    +0.000 A 
ATOM    203  NE2 HIS A 240       9.792   1.995   0.793  0.00  0.00    +0.000 NA
ATOM    204  HD1 HIS A 240       8.142   3.428  -1.488  0.00  0.00    +0.000 HD
ENDBRANCH 198 199
ENDBRANCH 114 198
ENDBRANCH 110 114
ENDBRANCH 109 112
BRANCH 109 205
ATOM    205  CB  LEU A 241      11.678   8.595  -5.050  0.00  0.00    +0.000 C 
BRANCH 205 206
ATOM    206  CG  LEU A 241      12.404   9.078  -6.316  0.00  0.00    +0.000 C 
ATOM    207  CD1 LEU A 241      12.515   7.929  -7.325  0.00  0.00    +0.000 C 
ATOM    208  CD2 LEU A 241      11.617  10.225  -6.950  0.00  0.00    +0.000 C 
ENDBRANCH 205 206
ENDBRANCH 109 205
ENDBRANCH 105 109
ENDBRANCH 104 107
BRANCH 104 209
ATOM    209  CB  VAL A 242      13.718  11.081  -0.788  0.00  0.00    +0.000 C 
ATOM    210  CG1 VAL A 242      14.734  12.033  -0.142  0.00  0.00    +0.000 C 
ATOM    211  CG2 VAL A 242      12.629  11.917  -1.474  0.00  0.00    +0.000 C 
ENDBRANCH 104 209
ENDBRANCH 100 104
ENDBRANCH  99 102
BRANCH  99 212
ATOM    212  CB  ILE A 243      15.435   6.354   1.027  0.00  0.00    +0.000 C 
ATOM    213  CG2 ILE A 243      16.421   5.315   1.601  0.00  0.00    +0.000 C 
BRANCH 212 214
ATOM    214  CG1 ILE A 243      14.750   7.106   2.184  0.00  0.00    +0.000 C 
ATOM    215  CD1 ILE A 243      13.709   6.204   2.855  0.00  0.00    +0.000 C 
ENDBRANCH 212 214
ENDBRANCH  99 212
ENDBRANCH  95  99
ENDBRANCH  94  97
BRANCH  94 216
ATOM    216  CB  LEU A 244      16.305   4.743  -4.020  0.00  0.00    +0.000 C 
BRANCH 216 217
ATOM    217  CG  LEU A 244      16.068   3.283  -3.593  0.00  0.00    +0.000 C 
ATOM    218  CD1 LEU A 244      15.152   3.229  -2.368  0.00  0.00    +0.000 C 
ATOM    219  CD2 LEU A 244      15.410   2.519  -4.746  0.00  0.00    +0.000 C 
ENDBRANCH 216 217
ENDBRANCH  94 216
ENDBRANCH  90  94
ENDBRANCH  89  92
ENDBRANCH  85  89
ENDBRANCH  83  87
ENDBRANCH  79  83
ENDBRANCH  78  81
BRANCH  78 220
ATOM    220  CB  ILE A 247      21.119   5.003  -1.134  0.00  0.00    +0.000 C 
ATOM    221  CG2 ILE A 247      21.929   3.690  -1.137  0.00  0.00    +0.000 C 
BRANCH 220 222
ATOM    222  CG1 ILE A 247      20.584   5.260   0.286  0.00  0.00    +0.000 C 
ATOM    223  CD1 ILE A 247      19.436   4.296   0.607  0.00  0.00    +0.000 C 
ENDBRANCH 220 222
ENDBRANCH  78 220
ENDBRANCH  74  78
ENDBRANCH  73  76
BRANCH  73 224
ATOM    224  CB  LEU A 248      21.533   6.008  -6.427  0.00  0.00    +0.000 C 
BRANCH 224 225
ATOM    225  CG  LEU A 248      21.865   5.092  -7.617  0.00  0.00    +0.000 C 
ATOM    226  CD1 LEU A 248      20.620   4.923  -8.492  0.00  0.00    +0.000 C 
ATOM    227  CD2 LEU A 248      22.991   5.712  -8.451  0.00  0.00    +0.000 C 
ENDBRANCH 224 225
ENDBRANCH  73 224
ENDBRANCH  69  73
ENDBRANCH  68  71
BRANCH  68 228
ATOM    228  CB  LEU A 249      23.926  10.638  -5.406  0.00  0.00    +0.000 C 
BRANCH 228 229
ATOM    229  CG  LEU A 249      23.258  11.170  -6.708  0.00  0.00    +0.000 C 
ATOM    230  CD1 LEU A 249      24.275  11.296  -7.852  0.00  0.00    +0.000 C 
ATOM    231  CD2 LEU A 249      22.110  10.255  -7.156  0.00  0.00    +0.000 C 
ENDBRANCH 228 229
ENDBRANCH  68 228
ENDBRANCH  64  68
ENDBRANCH  62  66
ENDBRANCH  58  62
ENDBRANCH  57  60
BRANCH  57 232
ATOM    232  CB  LEU A 251      27.119   4.207  -4.589  0.00  0.00    +0.000 C 
BRANCH 232 233
ATOM    233  CG  LEU A 251      27.163   2.943  -3.712  0.00  0.00    +0.000 C 
ATOM    234  CD1 LEU A 251      26.157   1.918  -4.240  0.00  0.00    +0.000 C 
ATOM    235  CD2 LEU A 251      28.567   2.322  -3.752  0.00  0.00    +0.000 C 
ENDBRANCH 232 233
ENDBRANCH  57 232
ENDBRANCH  53  57
ENDBRANCH  52  55
ENDBRANCH  48  52
ENDBRANCH  47  50
BRANCH  47 236
ATOM    236  CB  VAL A 253      30.423  10.587  -3.307  0.00  0.00    +0.000 C 
ATOM    237  CG1 VAL A 253      31.492  11.498  -2.679  0.00  0.00    +0.000 C 
ATOM    238  CG2 VAL A 253      29.258  11.463  -3.775  0.00  0.00    +0.000 C 
ENDBRANCH  47 236
ENDBRANCH  43  47
ENDBRANCH  41  45
ENDBRANCH  37  41
ENDBRANCH  36  39
BRANCH  36 239
ATOM    239  CB  LEU A 255      32.870   4.882  -7.517  0.00  0.00    +0.000 C 
BRANCH 239 240
ATOM    240  CG  LEU A 255      32.609   3.394  -7.256  0.00  0.00    +0.000 C 
ATOM    241  CD1 LEU A 255      31.375   2.940  -8.041  0.00  0.00    +0.000 C 
ATOM    242  CD2 LEU A 255      33.824   2.582  -7.710  0.00  0.00    +0.000 C 
ENDBRANCH 239 240
ENDBRANCH  36 239
ENDBRANCH  32  36
ENDBRANCH  31  34
BRANCH  31 243
ATOM    243  CB  THR A 256      33.713  10.060  -8.016  0.00  0.00    +0.000 C 
ATOM    244  CG2 THR A 256      34.332  11.187  -8.855  0.00  0.00    +0.000 C 
BRANCH 243 245
ATOM    245  OG1 THR A 256      32.546   9.574  -8.662  0.00  0.00    +0.000 OA
ATOM    246  HG1 THR A 256      31.783   9.971  -8.236  0.00  0.00    +0.000 HD
ENDBRANCH 243 245
ENDBRANCH  31 243
ENDBRANCH  27  31
ENDBRANCH  26  29
BRANCH  26 247
ATOM    247  CB  PHE A 257      36.248   9.624  -3.280  0.00  0.00    +0.000 C 
BRANCH 247 248
ATOM    248  CG  PHE A 257      37.301  10.071  -2.274  0.00  0.00    +0.000 A 
ATOM    249  CD1 PHE A 257      37.774   9.167  -1.311  0.00  0.00    +0.000 A 
ATOM    250  CD2 PHE A 257      37.797  11.385  -2.298  0.00  0.00    +0.000 A 
ATOM    251  CE1 PHE A 257      38.736   9.574  -0.378  0.00  0.00    +0.000 A 
ATOM    252  CE2 PHE A 257      38.761  11.790  -1.367  0.00  0.00    +0.000 A 
ATOM    253  CZ  PHE A 257      39.229  10.884  -0.406  0.00  0.00    +0.000 A 
ENDBRANCH 247 248
ENDBRANCH  26 247
ENDBRANCH  22  26
ENDBRANCH  21  24
BRANCH  21 254
ATOM    254  CB  ILE A 258      38.585   5.160  -4.863  0.00  0.00    +0.000 C 
ATOM    255  CG2 ILE A 258      39.829   4.252  -4.945  0.00  0.00    +0.000 C 
BRANCH 254 256
ATOM    256  CG1 ILE A 258      37.979   5.053  -3.452  0.00  0.00    +0.000 C 
ATOM    257  CD1 ILE A 258      37.222   3.726  -3.309  0.00  0.00    +0.000 C 
ENDBRANCH 254 256
ENDBRANCH  21 254
ENDBRANCH  17  21
ENDBRANCH  16  19
BRANCH  16 258
ATOM    258  CB  PHE A 259      37.766   7.077  -9.878  0.00  0.00    +0.000 C 
BRANCH 258 259
ATOM    259  CG  PHE A 259      38.124   6.727 -11.305  0.00  0.00    +0.000 A 
ATOM    260  CD1 PHE A 259      38.461   7.738 -12.212  0.00  0.00    +0.000 A 
ATOM    261  CD2 PHE A 259      38.118   5.389 -11.717  0.00  0.00    +0.000 A 
ATOM    262  CE1 PHE A 259      38.794   7.412 -13.532  0.00  0.00    +0.000 A 
ATOM    263  CE2 PHE A 259      38.450   5.062 -13.038  0.00  0.00    +0.000 A 
ATOM    264  CZ  PHE A 259      38.788   6.074 -13.944  0.00  0.00    +0.000 A 
ENDBRANCH 258 259
ENDBRANCH  16 258
ENDBRANCH  12  16
ENDBRANCH  11  14
BRANCH  11 265
ATOM    265  CB  ARG A 260      39.765  11.725  -8.093  0.00  0.00    +0.000 C 
BRANCH 265 266
ATOM    266  CG  ARG A 260      38.947  12.521  -9.132  0.00  0.00    +0.000 C 
BRANCH 266 267
ATOM    267  CD  ARG A 260      37.672  11.754  -9.525  0.00  0.00    +0.000 C 
BRANCH 267 268
ATOM    268  NE  ARG A 260      37.353  11.955 -10.989  0.00  0.00    +0.000 N 
ATOM    269  CZ  ARG A 260      37.244  13.149 -11.552  0.00  0.00    +0.000 C 
ATOM    270  NH1 ARG A 260      37.077  13.226 -12.844  0.00  0.00    +0.000 N 
ATOM    271  NH2 ARG A 260      37.251  14.255 -10.844  0.00  0.00    +0.000 N 
ATOM    272  HE  ARG A 260      37.264  11.161 -11.558  0.00  0.00    +0.000 HD
ATOM    273 HH11 ARG A 260      37.032  12.390 -13.392  0.00  0.00    +0.000 HD
ATOM    274 HH12 ARG A 260      36.992  14.119 -13.286  0.00  0.00    +0.000 HD
ATOM    275 HH21 ARG A 260      37.334  14.215  -9.851  0.00  0.00    +0.000 HD
ATOM    276 HH22 ARG A 260      37.172  15.141 -11.302  0.00  0.00    +0.000 HD
ENDBRANCH 267 268
ENDBRANCH 266 267
ENDBRANCH 265 266
ENDBRANCH  11 265
ENDBRANCH   7  11
ENDBRANCH   6   9
BRANCH   6 277
ATOM    277  CB  LEU A 261      42.947   9.107  -4.779  0.00  0.00    +0.000 C 
BRANCH 277 278
ATOM    278  CG  LEU A 261      42.177  10.192  -4.011  0.00  0.00    +0.000 C 
ATOM    279  CD1 LEU A 261      41.710   9.621  -2.673  0.00  0.00    +0.000 C 
ATOM    280  CD2 LEU A 261      43.082  11.402  -3.743  0.00  0.00    +0.000 C 
ENDBRANCH 277 278
ENDBRANCH   6 277
ENDBRANCH   2   6
ENDBRANCH   1   4
BRANCH   1 281
ATOM    281  C   ARG A 262      44.772   6.870  -9.338  0.00  0.00    +0.000 C 
ATOM    282  O   ARG A 262      45.857   6.324  -9.563  0.00  0.00    +0.000 OA
ATOM    283  N   LYS A 263      44.367   7.933  -9.999  0.00  0.00    +0.000 N 
ATOM    284  H   LYS A 263      43.508   8.334  -9.787  0.00  0.00    +0.000 HD
BRANCH 283 285
ATOM    285  CA  LYS A 263      45.209   8.539 -11.065  0.00  0.00    +0.000 C 
BRANCH 285 286
ATOM    286  C   LYS A 263      46.476   9.095 -10.435  0.00  0.00    +0.000 C 
ATOM    287  O   LYS A 263      46.444   9.794  -9.417  0.00  0.00    +0.000 OA
ATOM    288  N   GLY A 264      47.584   8.773 -11.040  0.00  0.00    +0.000 N 
ATOM    289  H   GLY A 264      47.538   8.212 -11.838  0.00  0.00    +0.000 HD
BRANCH 288 290
ATOM    290  CA  GLY A 264      48.913   9.240 -10.531  0.00  0.00    +0.000 C 
BRANCH 290 291
ATOM    291  C   GLY A 264      49.676   8.050  -9.957  0.00  0.00    +0.000 C 
ATOM    292  O   GLY A 264      50.877   7.883 -10.188  0.00  0.00    +0.000 OA
ATOM    293  N   ARG A 265      48.977   7.220  -9.212  0.00  0.00    +0.000 N 
ATOM    294  H   ARG A 265      48.025   7.395  -9.062  0.00  0.00    +0.000 HD
BRANCH 293 295
ATOM    295  CA  ARG A 265      49.608   6.012  -8.597  0.00  0.00    +0.000 C 
BRANCH 295 296
ATOM    296  C   ARG A 265      50.200   5.141  -9.702  0.00  0.00    +0.000 C 
ATOM    297  O   ARG A 265      51.324   4.639  -9.590  0.00  0.00    +0.000 OA
ATOM    298  N   LEU A 266      49.452   4.965 -10.771  0.00  0.00    +0.000 N 
ATOM    299  H   LEU A 266      48.568   5.388 -10.817  0.00  0.00    +0.000 HD
BRANCH 298 300
ATOM    300  CA  LEU A 266      49.931   4.131 -11.920  0.00  0.00    +0.000 C 
BRANCH 300 301
ATOM    301  C   LEU A 266      50.528   5.031 -13.001  0.00  0.00    +0.000 C 
ATOM    302  O   LEU A 266      51.490   4.656 -13.678  0.00  0.00    +0.000 OA
ATOM    303  N   LEU A 267      49.967   6.213 -13.169  0.00  0.00    +0.000 N 
ATOM    304  H   LEU A 267      49.205   6.470 -12.610  0.00  0.00    +0.000 HD
BRANCH 303 305
ATOM    305  CA  LEU A 267      50.482   7.168 -14.202  0.00  0.00    +0.000 C 
BRANCH 305 306
ATOM    306  C   LEU A 267      51.954   7.453 -13.917  0.00  0.00    +0.000 C 
ATOM    307  O   LEU A 267      52.295   8.298 -13.083  0.00  0.00    +0.000 OA
ATOM    308  N   ASP A 268      52.822   6.739 -14.598  0.00  0.00    +0.000 N 
ATOM    309  H   ASP A 268      52.500   6.074 -15.242  0.00  0.00    +0.000 HD
BRANCH 308 310
ATOM    310  CA  ASP A 268      54.294   6.914 -14.399  0.00  0.00    +0.000 C 
BRANCH 310 311
ATOM    311  C   ASP A 268      54.634   6.709 -12.925  0.00  0.00    +0.000 C 
ATOM    312  O   ASP A 268      54.684   7.655 -12.128  0.00  0.00    +0.000 OA
ATOM    313  N   VAL A 269      54.861   5.472 -12.564  0.00  0.00    +0.000 N 
ATOM    314  H   VAL A 269      54.802   4.763 -13.232  0.00  0.00    +0.000 HD
BRANCH 313 315
ATOM    315  CA  VAL A 269      55.203   5.129 -11.146  0.00  0.00    +0.000 C 
BRANCH 315 316
ATOM    316  C   VAL A 269      56.480   5.864 -10.737  0.00  0.00    +0.000 C 
ATOM    317  O   VAL A 269      56.553   6.471  -9.665  0.00  0.00    +0.000 OA
ATOM    318  N   LYS A 270      57.479   5.820 -11.592  0.00  0.00    +0.000 N 
ATOM    319  H   LYS A 270      57.371   5.331 -12.434  0.00  0.00    +0.000 HD
BRANCH 318 320
ATOM    320  CA  LYS A 270      58.782   6.514 -11.306  0.00  0.00    +0.000 C 
BRANCH 320 321
ATOM    321  C   LYS A 270      59.742   6.306 -12.481  0.00  0.00    +0.000 C 
ATOM    322  O   LYS A 270      60.537   7.188 -12.820  0.00  0.00    +0.000 OA
ATOM    323  N   LYS A 271      59.667   5.148 -13.107  0.00  0.00    +0.000 N 
ATOM    324  H   LYS A 271      59.017   4.480 -12.806  0.00  0.00    +0.000 HD
BRANCH 323 325
ATOM    325  CA  LYS A 271      60.553   4.837 -14.274  0.00  0.00    +0.000 C 
BRANCH 325 326
ATOM    326  C   LYS A 271      62.013   4.972 -13.853  0.00  0.00    +0.000 C 
ATOM    327  O   LYS A 271      62.567   6.075 -13.798  0.00  0.00    +0.000 OA
ATOM    328  N   SER A 272      62.635   3.853 -13.558  0.00  0.00    +0.000 N 
ATOM    329  H   SER A 272      62.154   3.002 -13.618  0.00  0.00    +0.000 HD
BRANCH 328 330
ATOM    330  CA  SER A 272      64.070   3.860 -13.134  0.00  0.00    +0.000 C 
BRANCH 330 331
ATOM    331  C   SER A 272      64.838   2.831 -13.957  0.00  0.00    +0.000 C 
ATOM    332  O   SER A 272      64.315   1.766 -14.300  0.00  0.00    +0.000 OA
ATOM    333  N   GLY A 273      66.076   3.144 -14.275  0.00  0.00    +0.000 N 
ATOM    334  H   GLY A 273      66.450   4.000 -13.979  0.00  0.00    +0.000 HD
BRANCH 333 335
ATOM    335  CA  GLY A 273      66.920   2.207 -15.080  0.00  0.00    +0.000 C 
BRANCH 335 336
ATOM    336  C   GLY A 273      68.391   2.569 -14.910  0.00  0.00    +0.000 C 
ATOM    337  O   GLY A 273      69.034   3.092 -15.827  0.00  0.00    +0.000 OA
ATOM    338  N   ILE A 274      68.926   2.291 -13.742  0.00  0.00    +0.000 N 
ATOM    339  H   ILE A 274      68.376   1.874 -13.046  0.00  0.00    +0.000 HD
BRANCH 338 340
ATOM    340  CA  ILE A 274      70.363   2.598 -13.462  0.00  0.00    +0.000 C 
BRANCH 340 341
ATOM    341  C   ILE A 274      71.248   1.672 -14.308  0.00  0.00    +0.000 C 
ATOM    342  O   ILE A 274      72.257   2.097 -14.881  0.00  0.00    +0.000 OA
ATOM    343  N   GLN A 275      70.867   0.415 -14.388  0.00  0.00    +0.000 N 
ATOM    344  H   GLN A 275      70.059   0.126 -13.918  0.00  0.00    +0.000 HD
BRANCH 343 345
ATOM    345  CA  GLN A 275      71.651  -0.578 -15.189  0.00  0.00    +0.000 C 
BRANCH 345 346
ATOM    346  C   GLN A 275      70.945  -0.811 -16.530  0.00  0.00    +0.000 C 
ATOM    347  O   GLN A 275      70.682  -1.949 -16.944  0.00  0.00    +0.000 OA
ATOM    348  N   ASP A 276      70.638   0.271 -17.212  0.00  0.00    +0.000 N 
ATOM    349  H   ASP A 276      70.867   1.152 -16.848  0.00  0.00    +0.000 HD
BRANCH 348 350
ATOM    350  CA  ASP A 276      69.947   0.177 -18.537  0.00  0.00    +0.000 C 
BRANCH 350 351
ATOM    351  C   ASP A 276      70.818   0.839 -19.613  0.00  0.00    +0.000 C 
ATOM    352  O   ASP A 276      70.324   1.526 -20.517  0.00  0.00    +0.000 OA
ATOM    353  N   THR A 277      72.114   0.628 -19.521  0.00  0.00    +0.000 N 
ATOM    354  H   THR A 277      72.462   0.074 -18.791  0.00  0.00    +0.000 HD
BRANCH 353 355
ATOM    355  CA  THR A 277      73.063   1.218 -20.513  0.00  0.00    +0.000 C 
BRANCH 355 356
ATOM    356  C   THR A 277      74.074   0.156 -20.927  0.00  0.00    +0.000 C 
ATOM    357  O   THR A 277      74.241  -0.865 -20.252  0.00  0.00    +0.000 OA
ATOM    358  N   ASN A 278      74.750   0.390 -22.031  0.00  0.00    +0.000 N 
ATOM    359  H   ASN A 278      74.584   1.213 -22.535  0.00  0.00    +0.000 HD
BRANCH 358 360
ATOM    360  CA  ASN A 278      75.766  -0.589 -22.528  0.00  0.00    +0.000 C 
BRANCH 360 361
ATOM    361  C   ASN A 278      76.946  -0.624 -21.562  0.00  0.00    +0.000 C 
ATOM    362  O   ASN A 278      77.300   0.384 -20.942  0.00  0.00    +0.000 OA
ATOM    363  N   SER A 279      77.552  -1.783 -21.428  0.00  0.00    +0.000 N 
ATOM    364  H   SER A 279      77.233  -2.556 -21.938  0.00  0.00    +0.000 HD
BRANCH 363 365
ATOM    365  CA  SER A 279      78.720  -1.937 -20.507  0.00  0.00    +0.000 C 
BRANCH 365 366
ATOM    366  C   SER A 279      79.985  -1.459 -21.209  0.00  0.00    +0.000 C 
ATOM    367  O   SER A 279      80.102  -1.521 -22.438  0.00  0.00    +0.000 OA
ATOM    368  N   LYS A 280      80.935  -0.985 -20.433  0.00  0.00    +0.000 N 
ATOM    369  H   LYS A 280      80.796  -0.957 -19.463  0.00  0.00    +0.000 HD
BRANCH 368 370
ATOM    370  CA  LYS A 280      82.226  -0.487 -21.010  0.00  0.00    +0.000 C 
BRANCH 370 371
ATOM    371  C   LYS A 280      83.191  -0.144 -19.874  0.00  0.00    +0.000 C 
ATOM    372  O   LYS A 280      83.291   1.004 -19.430  0.00  0.00    +0.000 OA
ATOM    373  N   LYS A 281      83.903  -1.144 -19.403  0.00  0.00    +0.000 N 
ATOM    374  H   LYS A 281      83.791  -2.039 -19.786  0.00  0.00    +0.000 HD
BRANCH 373 375
ATOM    375  CA  LYS A 281      84.883  -0.933 -18.289  0.00  0.00    +0.000 C 
BRANCH 375 376
ATOM    376  C   LYS A 281      86.281  -0.692 -18.877  0.00  0.00    +0.000 C 
ATOM    377  O   LYS A 281      87.295  -1.180 -18.362  0.00  0.00    +0.000 OA
ATOM    378  N   GLN A 282      86.335   0.063 -19.954  0.00  0.00    +0.000 N 
ATOM    379  H   GLN A 282      85.507   0.430 -20.328  0.00  0.00    +0.000 HD
BRANCH 378 380
ATOM    380  CA  GLN A 282      87.642   0.368 -20.616  0.00  0.00    +0.000 C 
BRANCH 380 381
ATOM    381  C   GLN A 282      87.786   1.878 -20.761  0.00  0.00    +0.000 C 
ATOM    382  O   GLN A 282      86.796   2.617 -20.801  0.00  0.00    +0.000 OA
ATOM    383  N   SER A 283      89.014   2.341 -20.839  0.00  0.00    +0.000 N 
ATOM    384  H   SER A 283      89.769   1.716 -20.803  0.00  0.00    +0.000 HD
BRANCH 383 385
ATOM    385  CA  SER A 283      89.277   3.805 -20.983  0.00  0.00    +0.000 C 
BRANCH 385 386
ATOM    386  C   SER A 283      88.624   4.312 -22.264  0.00  0.00    +0.000 C 
ATOM    387  O   SER A 283      88.548   3.602 -23.271  0.00  0.00    +0.000 OA
ATOM    388  N   ASP A 284      88.154   5.540 -22.228  0.00  0.00    +0.000 N 
ATOM    389  H   ASP A 284      88.238   6.066 -21.405  0.00  0.00    +0.000 HD
BRANCH 388 390
ATOM    390  CA  ASP A 284      87.493   6.145 -23.425  0.00  0.00    +0.000 C 
BRANCH 390 391
ATOM    391  C   ASP A 284      88.498   6.220 -24.571  0.00  0.00    +0.000 C 
ATOM    392  O   ASP A 284      88.187   5.891 -25.720  0.00  0.00    +0.000 OA
ATOM    393  N   THR A 285      89.702   6.651 -24.261  0.00  0.00    +0.000 N 
ATOM    394  H   THR A 285      89.903   6.900 -23.336  0.00  0.00    +0.000 HD
BRANCH 393 395
ATOM    395  CA  THR A 285      90.769   6.765 -25.305  0.00  0.00    +0.000 C 
BRANCH 395 396
ATOM    396  C   THR A 285      92.123   6.437 -24.680  0.00  0.00    +0.000 C 
ATOM    397  O   THR A 285      92.277   6.425 -23.453  0.00  0.00    +0.000 OA
ATOM    398  N   HIS A 286      93.102   6.171 -25.516  0.00  0.00    +0.000 N 
ATOM    399  H   HIS A 286      92.931   6.194 -26.480  0.00  0.00    +0.000 HD
BRANCH 398 400
ATOM    400  CA  HIS A 286      94.474   5.837 -25.014  0.00  0.00    +0.000 C 
BRANCH 400 401
ATOM    401  C   HIS A 286      95.455   6.926 -25.439  0.00  0.00    +0.000 C 
ATOM    402  O   HIS A 286      95.270   7.601 -26.457  0.00  0.00    +0.000 OA
ATOM    403  N   LEU A 287      96.498   7.102 -24.657  0.00  0.00    +0.000 N 
ATOM    404  H   LEU A 287      96.601   6.545 -23.857  0.00  0.00    +0.000 HD
BRANCH 403 405
ATOM    405  CA  LEU A 287      97.527   8.141 -24.970  0.00  0.00    +0.000 C 
BRANCH 405 406
ATOM    406  C   LEU A 287      98.407   7.644 -26.114  0.00  0.00    +0.000 C 
ATOM    407  O   LEU A 287      98.719   8.386 -27.052  0.00  0.00    +0.000 OA
ATOM    408  N   GLU A 288      98.808   6.394 -26.039  0.00  0.00    +0.000 N 
ATOM    409  H   GLU A 288      98.535   5.844 -25.275  0.00  0.00    +0.000 HD
BRANCH 408 410
ATOM    410  CA  GLU A 288      99.675   5.800 -27.103  0.00  0.00    +0.000 C 
BRANCH 410 411
ATOM    411  C   GLU A 288      99.208   4.375 -27.392  0.00  0.00    +0.000 C 
ATOM    412  O   GLU A 288      99.091   3.961 -28.550  0.00  0.00    +0.000 OA
ATOM    413  N   GLU A 289      98.942   3.627 -26.345  0.00  0.00    +0.000 N 
ATOM    414  H   GLU A 289      99.050   3.999 -25.445  0.00  0.00    +0.000 HD
BRANCH 413 415
ATOM    415  CA  GLU A 289      98.478   2.215 -26.509  0.00  0.00    +0.000 C 
BRANCH 415 416
ATOM    416  C   GLU A 289      97.497   1.873 -25.393  0.00  0.00    +0.000 C 
ATOM    417  O   GLU A 289      96.359   1.459 -25.642  0.00  0.00    +0.000 OA
ATOM    418  N   THR A 290      97.933   2.043 -24.165  0.00  0.00    +0.000 N 
ATOM    419  H   THR A 290      98.845   2.373 -24.018  0.00  0.00    +0.000 HD
BRANCH 418 420
ATOM    420  CA  THR A 290      97.061   1.739 -22.989  0.00  0.00    +0.000 C 
BRANCH 420 421
ATOM    421  C   THR A 290      95.983   2.811 -22.871  0.00  0.00    +0.000 C 
ATOM    422  O   THR A 290      96.332   3.980 -22.901  0.00  0.00    +0.000 OA
ATOM    423  OXT THR A 290      94.824   2.448 -22.752  0.00  0.00    +0.000 OA
ENDBRANCH 420 421
BRANCH 420 424
ATOM    424  CB  THR A 290      97.900   1.702 -21.708  0.00  0.00    +0.000 C 
ATOM    425  CG2 THR A 290      97.114   1.009 -20.592  0.00  0.00    +0.000 C 
BRANCH 424 426
ATOM    426  OG1 THR A 290      99.104   0.990 -21.953  0.00  0.00    +0.000 OA
ATOM    427  HG1 THR A 290      99.689   1.561 -22.456  0.00  0.00    +0.000 HD
ENDBRANCH 424 426
ENDBRANCH 420 424
ENDBRANCH 418 420
ENDBRANCH 415 416
BRANCH 415 428
ATOM    428  CB  GLU A 289      99.672   1.258 -26.456  0.00  0.00    +0.000 C 
BRANCH 428 429
ATOM    429  CG  GLU A 289     100.564   1.484 -27.678  0.00  0.00    +0.000 C 
BRANCH 429 430
ATOM    430  CD  GLU A 289     101.774   0.557 -27.619  0.00  0.00    +0.000 C 
ATOM    431  OE1 GLU A 289     102.786   0.972 -27.079  0.00  0.00    +0.000 OA
ATOM    432  OE2 GLU A 289     101.669  -0.554 -28.112  0.00  0.00    +0.000 OA
ENDBRANCH 429 430
ENDBRANCH 428 429
ENDBRANCH 415 428
ENDBRANCH 413 415
ENDBRANCH 410 411
BRANCH 410 433
ATOM    433  CB  GLU A 288     101.136   5.786 -26.642  0.00  0.00    +0.000 C 
BRANCH 433 434
ATOM    434  CG  GLU A 288     102.045   5.393 -27.810  0.00  0.00    +0.000 C 
BRANCH 434 435
ATOM    435  CD  GLU A 288     103.498   5.361 -27.352  0.00  0.00    +0.000 C 
ATOM    436  OE1 GLU A 288     103.945   6.349 -26.794  0.00  0.00    +0.000 OA
ATOM    437  OE2 GLU A 288     104.144   4.347 -27.565  0.00  0.00    +0.000 OA
ENDBRANCH 434 435
ENDBRANCH 433 434
ENDBRANCH 410 433
ENDBRANCH 408 410
ENDBRANCH 405 406
BRANCH 405 438
ATOM    438  CB  LEU A 287      98.385   8.422 -23.728  0.00  0.00    +0.000 C 
BRANCH 438 439
ATOM    439  CG  LEU A 287      99.307   9.624 -23.986  0.00  0.00    +0.000 C 
ATOM    440  CD1 LEU A 287      98.497  10.924 -23.928  0.00  0.00    +0.000 C 
ATOM    441  CD2 LEU A 287     100.402   9.665 -22.917  0.00  0.00    +0.000 C 
ENDBRANCH 438 439
ENDBRANCH 405 438
ENDBRANCH 403 405
ENDBRANCH 400 401
BRANCH 400 442
ATOM    442  CB  HIS A 286      94.935   4.467 -25.553  0.00  0.00    +0.000 C 
BRANCH 442 443
ATOM    443  CG  HIS A 286      94.890   4.406 -27.073  0.00  0.00    +0.000 A 
ATOM    444  ND1 HIS A 286      94.572   5.495 -27.878  0.00  0.00    +0.000 N 
ATOM    445  CD2 HIS A 286      95.130   3.367 -27.941  0.00  0.00    +0.000 A 
ATOM    446  CE1 HIS A 286      94.631   5.088 -29.158  0.00  0.00    +0.000 A 
ATOM    447  NE2 HIS A 286      94.966   3.800 -29.253  0.00  0.00    +0.000 NA
ATOM    448  HD1 HIS A 286      94.344   6.396 -27.569  0.00  0.00    +0.000 HD
ENDBRANCH 442 443
ENDBRANCH 400 442
ENDBRANCH 398 400
ENDBRANCH 395 396
BRANCH 395 449
ATOM    449  CB  THR A 285      90.790   8.182 -25.908  0.00  0.00    +0.000 C 
ATOM    450  CG2 THR A 285      90.982   9.235 -24.807  0.00  0.00    +0.000 C 
BRANCH 449 451
ATOM    451  OG1 THR A 285      91.857   8.278 -26.841  0.00  0.00    +0.000 OA
ATOM    452  HG1 THR A 285      91.569   7.874 -27.663  0.00  0.00    +0.000 HD
ENDBRANCH 449 451
ENDBRANCH 395 449
ENDBRANCH 393 395
ENDBRANCH 390 391
BRANCH 390 453
ATOM    453  CB  ASP A 284      86.985   7.549 -23.091  0.00  0.00    +0.000 C 
BRANCH 453 454
ATOM    454  CG  ASP A 284      86.029   7.488 -21.904  0.00  0.00    +0.000 C 
ATOM    455  OD1 ASP A 284      86.453   7.825 -20.810  0.00  0.00    +0.000 OA
ATOM    456  OD2 ASP A 284      84.888   7.106 -22.106  0.00  0.00    +0.000 OA
ENDBRANCH 453 454
ENDBRANCH 390 453
ENDBRANCH 388 390
ENDBRANCH 385 386
BRANCH 385 457
ATOM    457  CB  SER A 283      90.783   4.066 -21.033  0.00  0.00    +0.000 C 
BRANCH 457 458
ATOM    458  OG  SER A 283      91.321   3.482 -22.210  0.00  0.00    +0.000 OA
ATOM    459  HG  SER A 283      92.222   3.798 -22.314  0.00  0.00    +0.000 HD
ENDBRANCH 457 458
ENDBRANCH 385 457
ENDBRANCH 383 385
ENDBRANCH 380 381
BRANCH 380 460
ATOM    460  CB  GLN A 282      87.700  -0.298 -21.993  0.00  0.00    +0.000 C 
BRANCH 460 461
ATOM    461  CG  GLN A 282      89.123  -0.214 -22.547  0.00  0.00    +0.000 C 
BRANCH 461 462
ATOM    462  CD  GLN A 282      89.214  -0.976 -23.865  0.00  0.00    +0.000 C 
ATOM    463  OE1 GLN A 282      88.798  -2.132 -23.951  0.00  0.00    +0.000 OA
ATOM    464  NE2 GLN A 282      89.739  -0.392 -24.908  0.00  0.00    +0.000 N 
ATOM    465 HE21 GLN A 282      90.070   0.527 -24.839  0.00  0.00    +0.000 HD
ATOM    466 HE22 GLN A 282      89.801  -0.874 -25.759  0.00  0.00    +0.000 HD
ENDBRANCH 461 462
ENDBRANCH 460 461
ENDBRANCH 380 460
ENDBRANCH 378 380
ENDBRANCH 375 376
BRANCH 375 467
ATOM    467  CB  LYS A 281      84.890  -2.153 -17.346  0.00  0.00    +0.000 C 
BRANCH 467 468
ATOM    468  CG  LYS A 281      85.226  -3.433 -18.126  0.00  0.00    +0.000 C 
BRANCH 468 469
ATOM    469  CD  LYS A 281      85.393  -4.597 -17.148  0.00  0.00    +0.000 C 
BRANCH 469 470
ATOM    470  CE  LYS A 281      85.759  -5.864 -17.922  0.00  0.00    +0.000 C 
BRANCH 470 471
ATOM    471  NZ  LYS A 281      84.590  -6.306 -18.734  0.00  0.00    +0.000 N 
ATOM    472  HZ1 LYS A 281      84.421  -5.622 -19.499  0.00  0.00    +0.000 HD
ATOM    473  HZ2 LYS A 281      83.748  -6.363 -18.125  0.00  0.00    +0.000 HD
ATOM    474  HZ3 LYS A 281      84.785  -7.241 -19.145  0.00  0.00    +0.000 HD
ENDBRANCH 470 471
ENDBRANCH 469 470
ENDBRANCH 468 469
ENDBRANCH 467 468
ENDBRANCH 375 467
ENDBRANCH 373 375
ENDBRANCH 370 371
BRANCH 370 475
ATOM    475  CB  LYS A 280      82.000   0.744 -21.919  0.00  0.00    +0.000 C 
BRANCH 475 476
ATOM    476  CG  LYS A 280      81.087   1.781 -21.241  0.00  0.00    +0.000 C 
BRANCH 476 477
ATOM    477  CD  LYS A 280      80.880   2.967 -22.184  0.00  0.00    +0.000 C 
BRANCH 477 478
ATOM    478  CE  LYS A 280      79.974   4.002 -21.514  0.00  0.00    +0.000 C 
BRANCH 478 479
ATOM    479  NZ  LYS A 280      79.805   5.173 -22.421  0.00  0.00    +0.000 N 
ATOM    480  HZ1 LYS A 280      80.720   5.410 -22.856  0.00  0.00    +0.000 HD
ATOM    481  HZ2 LYS A 280      79.459   5.988 -21.872  0.00  0.00    +0.000 HD
ATOM    482  HZ3 LYS A 280      79.120   4.940 -23.166  0.00  0.00    +0.000 HD
ENDBRANCH 478 479
ENDBRANCH 477 478
ENDBRANCH 476 477
ENDBRANCH 475 476
ENDBRANCH 370 475
ENDBRANCH 368 370
ENDBRANCH 365 366
BRANCH 365 483
ATOM    483  CB  SER A 279      78.878  -3.403 -20.099  0.00  0.00    +0.000 C 
BRANCH 483 484
ATOM    484  OG  SER A 279      78.836  -4.221 -21.262  0.00  0.00    +0.000 OA
ATOM    485  HG  SER A 279      79.341  -5.016 -21.082  0.00  0.00    +0.000 HD
ENDBRANCH 483 484
ENDBRANCH 365 483
ENDBRANCH 363 365
ENDBRANCH 360 361
BRANCH 360 486
ATOM    486  CB  ASN A 278      76.249  -0.191 -23.926  0.00  0.00    +0.000 C 
BRANCH 486 487
ATOM    487  CG  ASN A 278      76.772   1.241 -23.916  0.00  0.00    +0.000 C 
ATOM    488  OD1 ASN A 278      77.637   1.590 -23.114  0.00  0.00    +0.000 OA
ATOM    489  ND2 ASN A 278      76.295   2.102 -24.774  0.00  0.00    +0.000 N 
ATOM    490 HD21 ASN A 278      75.608   1.824 -25.416  0.00  0.00    +0.000 HD
ATOM    491 HD22 ASN A 278      76.623   3.025 -24.777  0.00  0.00    +0.000 HD
ENDBRANCH 486 487
ENDBRANCH 360 486
ENDBRANCH 358 360
ENDBRANCH 355 356
BRANCH 355 492
ATOM    492  CB  THR A 277      73.789   2.417 -19.897  0.00  0.00    +0.000 C 
ATOM    493  CG2 THR A 277      74.536   3.186 -20.987  0.00  0.00    +0.000 C 
BRANCH 492 494
ATOM    494  OG1 THR A 277      72.840   3.273 -19.276  0.00  0.00    +0.000 OA
ATOM    495  HG1 THR A 277      72.390   2.770 -18.593  0.00  0.00    +0.000 HD
ENDBRANCH 492 494
ENDBRANCH 355 492
ENDBRANCH 353 355
ENDBRANCH 350 351
BRANCH 350 496
ATOM    496  CB  ASP A 276      68.578   0.863 -18.456  0.00  0.00    +0.000 C 
BRANCH 496 497
ATOM    497  CG  ASP A 276      67.532  -0.121 -17.942  0.00  0.00    +0.000 C 
ATOM    498  OD1 ASP A 276      67.047  -0.909 -18.737  0.00  0.00    +0.000 OA
ATOM    499  OD2 ASP A 276      67.233  -0.073 -16.761  0.00  0.00    +0.000 OA
ENDBRANCH 496 497
ENDBRANCH 350 496
ENDBRANCH 348 350
ENDBRANCH 345 346
BRANCH 345 500
ATOM    500  CB  GLN A 275      71.800  -1.900 -14.407  0.00  0.00    +0.000 C 
BRANCH 500 501
ATOM    501  CG  GLN A 275      70.422  -2.454 -14.019  0.00  0.00    +0.000 C 
BRANCH 501 502
ATOM    502  CD  GLN A 275      70.582  -3.789 -13.300  0.00  0.00    +0.000 C 
ATOM    503  OE1 GLN A 275      70.932  -4.796 -13.918  0.00  0.00    +0.000 OA
ATOM    504  NE2 GLN A 275      70.345  -3.859 -12.019  0.00  0.00    +0.000 N 
ATOM    505 HE21 GLN A 275      70.066  -3.059 -11.527  0.00  0.00    +0.000 HD
ATOM    506 HE22 GLN A 275      70.446  -4.713 -11.549  0.00  0.00    +0.000 HD
ENDBRANCH 501 502
ENDBRANCH 500 501
ENDBRANCH 345 500
ENDBRANCH 343 345
ENDBRANCH 340 341
BRANCH 340 507
ATOM    507  CB  ILE A 274      70.652   2.426 -11.954  0.00  0.00    +0.000 C 
ATOM    508  CG2 ILE A 274      70.369   0.980 -11.518  0.00  0.00    +0.000 C 
BRANCH 507 509
ATOM    509  CG1 ILE A 274      72.120   2.780 -11.651  0.00  0.00    +0.000 C 
ATOM    510  CD1 ILE A 274      72.295   3.042 -10.151  0.00  0.00    +0.000 C 
ENDBRANCH 507 509
ENDBRANCH 340 507
ENDBRANCH 338 340
ENDBRANCH 335 336
ENDBRANCH 333 335
ENDBRANCH 330 331
BRANCH 330 511
ATOM    511  CB  SER A 272      64.180   3.516 -11.648  0.00  0.00    +0.000 C 
BRANCH 511 512
ATOM    512  OG  SER A 272      65.458   3.915 -11.168  0.00  0.00    +0.000 OA
ATOM    513  HG  SER A 272      66.115   3.326 -11.546  0.00  0.00    +0.000 HD
ENDBRANCH 511 512
ENDBRANCH 330 511
ENDBRANCH 328 330
ENDBRANCH 325 326
BRANCH 325 514
ATOM    514  CB  LYS A 271      60.256   5.796 -15.439  0.00  0.00    +0.000 C 
BRANCH 514 515
ATOM    515  CG  LYS A 271      60.690   5.164 -16.770  0.00  0.00    +0.000 C 
BRANCH 515 516
ATOM    516  CD  LYS A 271      59.664   4.112 -17.204  0.00  0.00    +0.000 C 
BRANCH 516 517
ATOM    517  CE  LYS A 271      60.038   3.569 -18.584  0.00  0.00    +0.000 C 
BRANCH 517 518
ATOM    518  NZ  LYS A 271      59.033   2.553 -19.005  0.00  0.00    +0.000 N 
ATOM    519  HZ1 LYS A 271      58.912   1.850 -18.249  0.00  0.00    +0.000 HD
ATOM    520  HZ2 LYS A 271      59.362   2.079 -19.872  0.00  0.00    +0.000 HD
ATOM    521  HZ3 LYS A 271      58.123   3.021 -19.189  0.00  0.00    +0.000 HD
ENDBRANCH 517 518
ENDBRANCH 516 517
ENDBRANCH 515 516
ENDBRANCH 514 515
ENDBRANCH 325 514
ENDBRANCH 323 325
ENDBRANCH 320 321
BRANCH 320 522
ATOM    522  CB  LYS A 270      59.424   5.997 -10.003  0.00  0.00    +0.000 C 
BRANCH 522 523
ATOM    523  CG  LYS A 270      59.596   4.474 -10.051  0.00  0.00    +0.000 C 
BRANCH 523 524
ATOM    524  CD  LYS A 270      60.335   4.007  -8.794  0.00  0.00    +0.000 C 
BRANCH 524 525
ATOM    525  CE  LYS A 270      60.371   2.477  -8.758  0.00  0.00    +0.000 C 
BRANCH 525 526
ATOM    526  NZ  LYS A 270      59.016   1.955  -8.424  0.00  0.00    +0.000 N 
ATOM    527  HZ1 LYS A 270      58.307   2.407  -9.035  0.00  0.00    +0.000 HD
ATOM    528  HZ2 LYS A 270      58.800   2.163  -7.427  0.00  0.00    +0.000 HD
ATOM    529  HZ3 LYS A 270      58.995   0.926  -8.575  0.00  0.00    +0.000 HD
ENDBRANCH 525 526
ENDBRANCH 524 525
ENDBRANCH 523 524
ENDBRANCH 522 523
ENDBRANCH 320 522
ENDBRANCH 318 320
ENDBRANCH 315 316
BRANCH 315 530
ATOM    530  CB  VAL A 269      55.385   3.608 -10.985  0.00  0.00    +0.000 C 
ATOM    531  CG1 VAL A 269      54.051   2.911 -11.251  0.00  0.00    +0.000 C 
ATOM    532  CG2 VAL A 269      56.434   3.078 -11.976  0.00  0.00    +0.000 C 
ENDBRANCH 315 530
ENDBRANCH 313 315
ENDBRANCH 310 311
BRANCH 310 533
ATOM    533  CB  ASP A 268      54.740   8.302 -14.847  0.00  0.00    +0.000 C 
BRANCH 533 534
ATOM    534  CG  ASP A 268      54.739   8.390 -16.370  0.00  0.00    +0.000 C 
ATOM    535  OD1 ASP A 268      53.961   9.168 -16.898  0.00  0.00    +0.000 OA
ATOM    536  OD2 ASP A 268      55.516   7.680 -16.984  0.00  0.00    +0.000 OA
ENDBRANCH 533 534
ENDBRANCH 310 533
ENDBRANCH 308 310
ENDBRANCH 305 306
BRANCH 305 537
ATOM    537  CB  LEU A 267      49.676   8.474 -14.160  0.00  0.00    +0.000 C 
BRANCH 537 538
ATOM    538  CG  LEU A 267      49.834   9.237 -15.488  0.00  0.00    +0.000 C 
ATOM    539  CD1 LEU A 267      48.718  10.278 -15.619  0.00  0.00    +0.000 C 
ATOM    540  CD2 LEU A 267      51.198   9.941 -15.522  0.00  0.00    +0.000 C 
ENDBRANCH 537 538
ENDBRANCH 305 537
ENDBRANCH 303 305
ENDBRANCH 300 301
BRANCH 300 541
ATOM    541  CB  LEU A 266      48.766   3.324 -12.504  0.00  0.00    +0.000 C 
BRANCH 541 542
ATOM    542  CG  LEU A 266      48.380   2.191 -11.538  0.00  0.00    +0.000 C 
ATOM    543  CD1 LEU A 266      46.980   1.675 -11.881  0.00  0.00    +0.000 C 
ATOM    544  CD2 LEU A 266      49.386   1.040 -11.660  0.00  0.00    +0.000 C 
ENDBRANCH 541 542
ENDBRANCH 300 541
ENDBRANCH 298 300
ENDBRANCH 295 296
BRANCH 295 545
ATOM    545  CB  ARG A 265      48.549   5.224  -7.811  0.00  0.00    +0.000 C 
BRANCH 545 546
ATOM    546  CG  ARG A 265      49.219   4.216  -6.856  0.00  0.00    +0.000 C 
BRANCH 546 547
ATOM    547  CD  ARG A 265      49.571   2.921  -7.603  0.00  0.00    +0.000 C 
BRANCH 547 548
ATOM    548  NE  ARG A 265      49.704   1.779  -6.636  0.00  0.00    +0.000 N 
ATOM    549  CZ  ARG A 265      49.735   0.517  -7.043  0.00  0.00    +0.000 C 
ATOM    550  NH1 ARG A 265      49.852  -0.433  -6.155  0.00  0.00    +0.000 N 
ATOM    551  NH2 ARG A 265      49.650   0.195  -8.315  0.00  0.00    +0.000 N 
ATOM    552  HE  ARG A 265      49.771   1.972  -5.677  0.00  0.00    +0.000 HD
ATOM    553 HH11 ARG A 265      49.919  -0.205  -5.184  0.00  0.00    +0.000 HD
ATOM    554 HH12 ARG A 265      49.877  -1.389  -6.448  0.00  0.00    +0.000 HD
ATOM    555 HH21 ARG A 265      49.560   0.909  -9.009  0.00  0.00    +0.000 HD
ATOM    556 HH22 ARG A 265      49.677  -0.767  -8.589  0.00  0.00    +0.000 HD
ENDBRANCH 547 548
ENDBRANCH 546 547
ENDBRANCH 545 546
ENDBRANCH 295 545
ENDBRANCH 293 295
ENDBRANCH 290 291
ENDBRANCH 288 290
ENDBRANCH 285 286
BRANCH 285 557
ATOM    557  CB  LYS A 263      44.445   9.655 -11.782  0.00  0.00    +0.000 C 
BRANCH 557 558
ATOM    558  CG  LYS A 263      45.225  10.084 -13.028  0.00  0.00    +0.000 C 
BRANCH 558 559
ATOM    559  CD  LYS A 263      44.378  11.050 -13.870  0.00  0.00    +0.000 C 
BRANCH 559 560
ATOM    560  CE  LYS A 263      44.358  12.448 -13.228  0.00  0.00    +0.000 C 
BRANCH 560 561
ATOM    561  NZ  LYS A 263      43.227  12.535 -12.260  0.00  0.00    +0.000 N 
ATOM    562  HZ1 LYS A 263      43.554  12.250 -11.315  0.00  0.00    +0.000 HD
ATOM    563  HZ2 LYS A 263      42.459  11.903 -12.566  0.00  0.00    +0.000 HD
ATOM    564  HZ3 LYS A 263      42.878  13.513 -12.222  0.00  0.00    +0.000 HD
ENDBRANCH 560 561
ENDBRANCH 559 560
ENDBRANCH 558 559
ENDBRANCH 557 558
ENDBRANCH 285 557
ENDBRANCH 283 285
ENDBRANCH   1 281
BRANCH   1 565
ATOM    565  CB  ARG A 262      42.739   5.474  -8.909  0.00  0.00    +0.000 C 
BRANCH 565 566
ATOM    566  CG  ARG A 262      43.345   4.151  -9.374  0.00  0.00    +0.000 C 
BRANCH 566 567
ATOM    567  CD  ARG A 262      42.310   3.367 -10.183  0.00  0.00    +0.000 C 
BRANCH 567 568
ATOM    568  NE  ARG A 262      42.931   2.124 -10.752  0.00  0.00    +0.000 N 
ATOM    569  CZ  ARG A 262      42.200   1.134 -11.244  0.00  0.00    +0.000 C 
ATOM    570  NH1 ARG A 262      42.802   0.081 -11.726  0.00  0.00    +0.000 N 
ATOM    571  NH2 ARG A 262      40.886   1.182 -11.261  0.00  0.00    +0.000 N 
ATOM    572  HE  ARG A 262      43.908   2.043 -10.761  0.00  0.00    +0.000 HD
ATOM    573 HH11 ARG A 262      43.802   0.031 -11.720  0.00  0.00    +0.000 HD
ATOM    574 HH12 ARG A 262      42.266  -0.675 -12.101  0.00  0.00    +0.000 HD
ATOM    575 HH21 ARG A 262      40.408   1.981 -10.897  0.00  0.00    +0.000 HD
ATOM    576 HH22 ARG A 262      40.363   0.418 -11.640  0.00  0.00    +0.000 HD
ENDBRANCH 567 568
ENDBRANCH 566 567
ENDBRANCH 565 566
ENDBRANCH   1 565
TORSDOF 239
