REMARK  Name = /Users/acegid/Desktop/Smoking_Research/Docking/Docking_All_PDB/All_PDB/7OSR_H.pdb
REMARK  226 active torsions:
REMARK  status: ('A' for Active; 'I' for Inactive)
REMARK    1  A    between atoms: N_1  and  CA_4
REMARK    2  A    between atoms: CA_4  and  C_5
REMARK    3  A    between atoms: N_10  and  CA_11
REMARK    4  A    between atoms: CA_11  and  C_12
REMARK    5  A    between atoms: CA_11  and  CB_14
REMARK    6  A    between atoms: CB_14  and  OG_15
REMARK    7  A    between atoms: N_21  and  CA_22
REMARK    8  A    between atoms: CA_22  and  C_23
REMARK    9  A    between atoms: CA_22  and  CB_25
REMARK   10  A    between atoms: CB_25  and  OG1_26
REMARK   11  A    between atoms: CB_25  and  CG2_27
REMARK   12  A    between atoms: CA_36  and  C_37
REMARK   13  A    between atoms: CA_50  and  C_51
REMARK   14  A    between atoms: N_63  and  CA_64
REMARK   15  A    between atoms: CA_64  and  C_65
REMARK   16  A    between atoms: CA_64  and  CB_67
REMARK   17  A    between atoms: CB_67  and  CG_68
REMARK   18  A    between atoms: CG_68  and  CD_69
REMARK   19  A    between atoms: N_80  and  CA_81
REMARK   20  A    between atoms: CA_81  and  C_82
REMARK   21  A    between atoms: CA_81  and  CB_84
REMARK   22  A    between atoms: N_90  and  CA_91
REMARK   23  A    between atoms: CA_91  and  C_92
REMARK   24  A    between atoms: CA_91  and  CB_94
REMARK   25  A    between atoms: CB_94  and  CG_95
REMARK   26  A    between atoms: CG_95  and  CD1_96
REMARK   27  A    between atoms: CG_95  and  CD2_97
REMARK   28  A    between atoms: N_109  and  CA_110
REMARK   29  A    between atoms: CA_110  and  C_111
REMARK   30  A    between atoms: CA_110  and  CB_113
REMARK   31  A    between atoms: CB_113  and  CG_114
REMARK   32  A    between atoms: CG_114  and  CD_115
REMARK   33  A    between atoms: N_126  and  CA_127
REMARK   34  A    between atoms: CA_127  and  C_128
REMARK   35  A    between atoms: CA_127  and  CB_130
REMARK   36  A    between atoms: CB_130  and  CG_131
REMARK   37  A    between atoms: CG_131  and  CD_132
REMARK   38  A    between atoms: N_143  and  CA_144
REMARK   39  A    between atoms: CA_144  and  C_145
REMARK   40  A    between atoms: CA_144  and  CB_147
REMARK   41  A    between atoms: CB_147  and  CG_148
REMARK   42  A    between atoms: CG_148  and  CD1_149
REMARK   43  A    between atoms: CG_148  and  CD2_150
REMARK   44  A    between atoms: N_162  and  CA_163
REMARK   45  A    between atoms: CA_163  and  C_164
REMARK   46  A    between atoms: CA_163  and  CB_166
REMARK   47  A    between atoms: CB_166  and  CG_167
REMARK   48  A    between atoms: CG_167  and  CD1_168
REMARK   49  A    between atoms: CG_167  and  CD2_169
REMARK   50  A    between atoms: N_181  and  CA_182
REMARK   51  A    between atoms: CA_182  and  C_183
REMARK   52  A    between atoms: CA_182  and  CB_185
REMARK   53  A    between atoms: CB_185  and  CG_186
REMARK   54  A    between atoms: CG_186  and  CD_187
REMARK   55  A    between atoms: N_198  and  CA_199
REMARK   56  A    between atoms: CA_199  and  C_200
REMARK   57  A    between atoms: CA_199  and  CB_202
REMARK   58  A    between atoms: CB_202  and  OG1_203
REMARK   59  A    between atoms: CB_202  and  CG2_204
REMARK   60  A    between atoms: N_212  and  CA_213
REMARK   61  A    between atoms: CA_213  and  C_214
REMARK   62  A    between atoms: CA_213  and  CB_216
REMARK   63  A    between atoms: CB_216  and  CG_217
REMARK   64  A    between atoms: CG_217  and  CD1_218
REMARK   65  A    between atoms: CG_217  and  CD2_219
REMARK   66  A    between atoms: N_231  and  CA_232
REMARK   67  A    between atoms: CA_232  and  C_233
REMARK   68  A    between atoms: CA_232  and  CB_235
REMARK   69  A    between atoms: CB_235  and  CG_236
REMARK   70  A    between atoms: CG_236  and  CD_237
REMARK   71  A    between atoms: CD_237  and  CE_238
REMARK   72  A    between atoms: CE_238  and  NZ_239
REMARK   73  A    between atoms: N_253  and  CA_254
REMARK   74  A    between atoms: CA_254  and  C_255
REMARK   75  A    between atoms: CA_254  and  CB_257
REMARK   76  A    between atoms: CB_257  and  OG_258
REMARK   77  A    between atoms: CA_265  and  C_266
REMARK   78  A    between atoms: N_278  and  CA_279
REMARK   79  A    between atoms: CA_279  and  C_280
REMARK   80  A    between atoms: CA_279  and  CB_282
REMARK   81  A    between atoms: CB_282  and  OG_283
REMARK   82  A    between atoms: N_289  and  CA_290
REMARK   83  A    between atoms: CA_290  and  C_291
REMARK   84  A    between atoms: CA_290  and  CB_293
REMARK   85  A    between atoms: CB_293  and  OG_294
REMARK   86  A    between atoms: CA_301  and  C_302
REMARK   87  A    between atoms: N_314  and  CA_315
REMARK   88  A    between atoms: CA_315  and  C_316
REMARK   89  A    between atoms: CA_315  and  CB_318
REMARK   90  A    between atoms: CB_318  and  CG_319
REMARK   91  A    between atoms: CG_319  and  CD_320
REMARK   92  A    between atoms: N_331  and  CA_332
REMARK   93  A    between atoms: CA_332  and  C_333
REMARK   94  A    between atoms: CA_332  and  CB_335
REMARK   95  A    between atoms: CB_335  and  CG_336
REMARK   96  A    between atoms: CG_336  and  CD_337
REMARK   97  A    between atoms: N_348  and  CA_349
REMARK   98  A    between atoms: CA_349  and  C_350
REMARK   99  A    between atoms: CA_349  and  CB_352
REMARK  100  A    between atoms: CB_352  and  CG_353
REMARK  101  A    between atoms: CG_353  and  CD_354
REMARK  102  A    between atoms: N_365  and  CA_366
REMARK  103  A    between atoms: CA_366  and  C_367
REMARK  104  A    between atoms: CA_366  and  CB_369
REMARK  105  A    between atoms: CB_369  and  CG_370
REMARK  106  A    between atoms: CG_370  and  CD_371
REMARK  107  A    between atoms: N_382  and  CA_383
REMARK  108  A    between atoms: CA_383  and  C_384
REMARK  109  A    between atoms: CA_383  and  CB_386
REMARK  110  A    between atoms: CB_386  and  CG_387
REMARK  111  A    between atoms: CG_387  and  CD_388
REMARK  112  A    between atoms: N_399  and  CA_400
REMARK  113  A    between atoms: CA_400  and  C_401
REMARK  114  A    between atoms: CA_400  and  CB_403
REMARK  115  A    between atoms: CB_403  and  CG1_404
REMARK  116  A    between atoms: CB_403  and  CG2_405
REMARK  117  A    between atoms: N_415  and  CA_416
REMARK  118  A    between atoms: CA_416  and  C_417
REMARK  119  A    between atoms: CA_416  and  CB_419
REMARK  120  A    between atoms: CB_419  and  CG_420
REMARK  121  A    between atoms: CG_420  and  CD1_421
REMARK  122  A    between atoms: CG_420  and  CD2_422
REMARK  123  A    between atoms: N_434  and  CA_435
REMARK  124  A    between atoms: CA_435  and  C_436
REMARK  125  A    between atoms: CA_435  and  CB_438
REMARK  126  A    between atoms: CB_438  and  CG_439
REMARK  127  A    between atoms: CG_439  and  CD_440
REMARK  128  A    between atoms: N_451  and  CA_452
REMARK  129  A    between atoms: CA_452  and  C_453
REMARK  130  A    between atoms: CA_452  and  CB_455
REMARK  131  A    between atoms: CB_455  and  CG1_456
REMARK  132  A    between atoms: CB_455  and  CG2_457
REMARK  133  A    between atoms: CG1_456  and  CD1_458
REMARK  134  A    between atoms: N_470  and  CA_471
REMARK  135  A    between atoms: CA_471  and  C_472
REMARK  136  A    between atoms: CA_471  and  CB_474
REMARK  137  A    between atoms: CB_474  and  CG_475
REMARK  138  A    between atoms: CG_475  and  CD1_476
REMARK  139  A    between atoms: CG_475  and  CD2_477
REMARK  140  A    between atoms: N_489  and  CA_490
REMARK  141  A    between atoms: CA_490  and  C_491
REMARK  142  A    between atoms: CA_490  and  CB_493
REMARK  143  A    between atoms: CB_493  and  CG_494
REMARK  144  A    between atoms: CG_494  and  CD_495
REMARK  145  A    between atoms: CD_495  and  CE_496
REMARK  146  A    between atoms: CE_496  and  NZ_497
REMARK  147  A    between atoms: N_511  and  CA_512
REMARK  148  A    between atoms: CA_512  and  C_513
REMARK  149  A    between atoms: CA_512  and  CB_515
REMARK  150  A    between atoms: CB_515  and  OG_516
REMARK  151  A    between atoms: N_522  and  CA_523
REMARK  152  A    between atoms: CA_523  and  C_524
REMARK  153  A    between atoms: CA_523  and  CB_526
REMARK  154  A    between atoms: CB_526  and  CG_527
REMARK  155  A    between atoms: CA_537  and  C_538
REMARK  156  A    between atoms: N_550  and  CA_551
REMARK  157  A    between atoms: CA_551  and  C_552
REMARK  158  A    between atoms: CA_551  and  CB_554
REMARK  159  A    between atoms: CB_554  and  CG_555
REMARK  160  A    between atoms: CG_555  and  CD_556
REMARK  161  A    between atoms: N_567  and  CA_568
REMARK  162  A    between atoms: CA_568  and  C_569
REMARK  163  A    between atoms: CA_568  and  CB_571
REMARK  164  A    between atoms: CB_571  and  CG_572
REMARK  165  A    between atoms: CG_572  and  CD1_573
REMARK  166  A    between atoms: CG_572  and  CD2_574
REMARK  167  A    between atoms: N_586  and  CA_587
REMARK  168  A    between atoms: CA_587  and  C_588
REMARK  169  A    between atoms: CA_587  and  CB_590
REMARK  170  A    between atoms: CB_590  and  CG_591
REMARK  171  A    between atoms: CG_591  and  SD_592
REMARK  172  A    between atoms: SD_592  and  CE_593
REMARK  173  A    between atoms: N_603  and  CA_604
REMARK  174  A    between atoms: CA_604  and  C_605
REMARK  175  A    between atoms: CA_604  and  CB_607
REMARK  176  A    between atoms: N_613  and  CA_614
REMARK  177  A    between atoms: CA_614  and  C_615
REMARK  178  A    between atoms: CA_614  and  CB_617
REMARK  179  A    between atoms: N_623  and  CA_624
REMARK  180  A    between atoms: CA_624  and  C_625
REMARK  181  A    between atoms: CA_624  and  CB_627
REMARK  182  A    between atoms: CB_627  and  CG_628
REMARK  183  A    between atoms: N_643  and  CA_644
REMARK  184  A    between atoms: CA_644  and  C_645
REMARK  185  A    between atoms: CA_644  and  CB_647
REMARK  186  A    between atoms: CB_647  and  CG1_648
REMARK  187  A    between atoms: CB_647  and  CG2_649
REMARK  188  A    between atoms: CG1_648  and  CD1_650
REMARK  189  A    between atoms: N_662  and  CA_663
REMARK  190  A    between atoms: CA_663  and  C_664
REMARK  191  A    between atoms: CA_663  and  CB_666
REMARK  192  A    between atoms: CB_666  and  CG_667
REMARK  193  A    between atoms: CG_667  and  CD_668
REMARK  194  A    between atoms: CD_668  and  CE_669
REMARK  195  A    between atoms: CE_669  and  NZ_670
REMARK  196  A    between atoms: N_684  and  CA_685
REMARK  197  A    between atoms: CA_685  and  C_686
REMARK  198  A    between atoms: CA_685  and  CB_688
REMARK  199  A    between atoms: CB_688  and  CG_689
REMARK  200  A    between atoms: CG_689  and  CD_690
REMARK  201  A    between atoms: N_701  and  CA_702
REMARK  202  A    between atoms: CA_702  and  C_703
REMARK  203  A    between atoms: CA_702  and  CB_705
REMARK  204  A    between atoms: CB_705  and  CG_706
REMARK  205  A    between atoms: CG_706  and  CD_707
REMARK  206  A    between atoms: CD_707  and  NE_708
REMARK  207  A    between atoms: N_725  and  CA_726
REMARK  208  A    between atoms: CA_726  and  C_727
REMARK  209  A    between atoms: CA_726  and  CB_729
REMARK  210  A    between atoms: CB_729  and  OG_730
REMARK  211  A    between atoms: N_736  and  CA_737
REMARK  212  A    between atoms: CA_737  and  C_738
REMARK  213  A    between atoms: CA_737  and  CB_740
REMARK  214  A    between atoms: CB_740  and  CG_741
REMARK  215  A    between atoms: CG_741  and  CD_742
REMARK  216  A    between atoms: N_753  and  CA_754
REMARK  217  A    between atoms: CA_754  and  C_755
REMARK  218  A    between atoms: CA_754  and  CB_757
REMARK  219  A    between atoms: CB_757  and  CG_758
REMARK  220  A    between atoms: N_770  and  CA_771
REMARK  221  A    between atoms: CA_771  and  C_772
REMARK  222  A    between atoms: CA_771  and  CB_774
REMARK  223  A    between atoms: CB_774  and  CG_775
REMARK  224  A    between atoms: CG_775  and  CD_776
REMARK  225  A    between atoms: N_787  and  CA_788
REMARK  226  A    between atoms: CD_793  and  NE2_795
REMARK                            x       y       z     vdW  Elec       q    Type
REMARK                         _______ _______ _______ _____ _____    ______ ____
ROOT
ATOM      1  C   GLN A2085      24.128  12.342  -1.482  0.00  0.00    +0.000 C 
ATOM      2  O   GLN A2085      23.551  11.656  -0.638  0.00  0.00    +0.000 OA
ATOM      3  N   VAL A2086      23.747  12.396  -2.754  0.00  0.00    +0.000 N 
ATOM      4  H   VAL A2086      24.247  12.960  -3.380  0.00  0.00    +0.000 HD
ENDROOT
BRANCH   3   5
ATOM      5  CA  VAL A2086      22.603  11.634  -3.243  0.00  0.00    +0.000 C 
BRANCH   5   6
ATOM      6  C   VAL A2086      22.723  10.162  -2.867  0.00  0.00    +0.000 C 
ATOM      7  O   VAL A2086      21.719   9.482  -2.648  0.00  0.00    +0.000 OA
ATOM      8  N   LEU A2087      23.956   9.674  -2.794  0.00  0.00    +0.000 N 
ATOM      9  H   LEU A2087      24.716  10.264  -2.979  0.00  0.00    +0.000 HD
BRANCH   8  10
ATOM     10  CA  LEU A2087      24.208   8.280  -2.444  0.00  0.00    +0.000 C 
BRANCH  10  11
ATOM     11  C   LEU A2087      23.429   7.883  -1.194  0.00  0.00    +0.000 C 
ATOM     12  O   LEU A2087      22.999   6.738  -1.058  0.00  0.00    +0.000 OA
ATOM     13  N   GLN A2088      23.249   8.838  -0.287  0.00  0.00    +0.000 N 
ATOM     14  H   GLN A2088      23.616   9.730  -0.453  0.00  0.00    +0.000 HD
BRANCH  13  15
ATOM     15  CA  GLN A2088      22.520   8.587   0.951  0.00  0.00    +0.000 C 
BRANCH  15  16
ATOM     16  C   GLN A2088      21.065   8.230   0.662  0.00  0.00    +0.000 C 
ATOM     17  O   GLN A2088      20.480   7.381   1.335  0.00  0.00    +0.000 OA
ATOM     18  N   ILE A2089      20.488   8.883  -0.340  0.00  0.00    +0.000 N 
ATOM     19  H   ILE A2089      21.007   9.549  -0.839  0.00  0.00    +0.000 HD
BRANCH  18  20
ATOM     20  CA  ILE A2089      19.103   8.634  -0.717  0.00  0.00    +0.000 C 
BRANCH  20  21
ATOM     21  C   ILE A2089      18.840   7.141  -0.889  0.00  0.00    +0.000 C 
ATOM     22  O   ILE A2089      17.774   6.642  -0.526  0.00  0.00    +0.000 OA
ATOM     23  N   LEU A2090      19.819   6.434  -1.442  0.00  0.00    +0.000 N 
ATOM     24  H   LEU A2090      20.645   6.888  -1.710  0.00  0.00    +0.000 HD
BRANCH  23  25
ATOM     25  CA  LEU A2090      19.695   4.997  -1.660  0.00  0.00    +0.000 C 
BRANCH  25  26
ATOM     26  C   LEU A2090      19.197   4.296  -0.401  0.00  0.00    +0.000 C 
ATOM     27  O   LEU A2090      18.499   3.284  -0.475  0.00  0.00    +0.000 OA
ATOM     28  N   LYS A2091      19.559   4.840   0.756  0.00  0.00    +0.000 N 
ATOM     29  H   LYS A2091      20.117   5.647   0.750  0.00  0.00    +0.000 HD
BRANCH  28  30
ATOM     30  CA  LYS A2091      19.147   4.270   2.033  0.00  0.00    +0.000 C 
BRANCH  30  31
ATOM     31  C   LYS A2091      17.640   4.037   2.064  0.00  0.00    +0.000 C 
ATOM     32  O   LYS A2091      17.163   3.077   2.668  0.00  0.00    +0.000 OA
ATOM     33  N   SER A2092      16.896   4.921   1.407  0.00  0.00    +0.000 N 
ATOM     34  H   SER A2092      17.335   5.666   0.945  0.00  0.00    +0.000 HD
BRANCH  33  35
ATOM     35  CA  SER A2092      15.442   4.813   1.362  0.00  0.00    +0.000 C 
BRANCH  35  36
ATOM     36  C   SER A2092      14.966   4.480  -0.049  0.00  0.00    +0.000 C 
ATOM     37  O   SER A2092      13.821   4.749  -0.408  0.00  0.00    +0.000 OA
ATOM     38  N   ASN A2093      15.855   3.894  -0.844  0.00  0.00    +0.000 N 
ATOM     39  H   ASN A2093      16.753   3.705  -0.500  0.00  0.00    +0.000 HD
BRANCH  38  40
ATOM     40  CA  ASN A2093      15.527   3.524  -2.216  0.00  0.00    +0.000 C 
BRANCH  40  41
ATOM     41  C   ASN A2093      16.103   2.155  -2.563  0.00  0.00    +0.000 C 
ATOM     42  O   ASN A2093      17.007   2.025  -3.389  0.00  0.00    +0.000 OA
ATOM     43  N   PRO A2094      15.568   1.107  -1.919  0.00  0.00    +0.000 N 
ATOM     44  CA  PRO A2094      16.012  -0.271  -2.143  0.00  0.00    +0.000 C 
ATOM     45  CB  PRO A2094      15.292  -1.060  -1.046  0.00  0.00    +0.000 C 
ATOM     46  CG  PRO A2094      14.084  -0.247  -0.728  0.00  0.00    +0.000 C 
ATOM     47  CD  PRO A2094      14.488   1.188  -0.921  0.00  0.00    +0.000 C 
BRANCH  44  48
ATOM     48  C   PRO A2094      15.616  -0.791  -3.521  0.00  0.00    +0.000 C 
ATOM     49  O   PRO A2094      16.413  -0.762  -4.458  0.00  0.00    +0.000 OA
ATOM     50  N   GLN A2095      14.379  -1.266  -3.636  0.00  0.00    +0.000 N 
ATOM     51  H   GLN A2095      13.791  -1.262  -2.852  0.00  0.00    +0.000 HD
BRANCH  50  52
ATOM     52  CA  GLN A2095      13.878  -1.792  -4.900  0.00  0.00    +0.000 C 
BRANCH  52  53
ATOM     53  C   GLN A2095      13.611  -0.665  -5.891  0.00  0.00    +0.000 C 
ATOM     54  O   GLN A2095      13.897  -0.791  -7.083  0.00  0.00    +0.000 OA
ATOM     55  N   LEU A2096      13.062   0.437  -5.393  0.00  0.00    +0.000 N 
ATOM     56  H   LEU A2096      12.857   0.479  -4.436  0.00  0.00    +0.000 HD
BRANCH  55  57
ATOM     57  CA  LEU A2096      12.756   1.588  -6.235  0.00  0.00    +0.000 C 
BRANCH  57  58
ATOM     58  C   LEU A2096      14.033   2.209  -6.793  0.00  0.00    +0.000 C 
ATOM     59  O   LEU A2096      13.982   3.137  -7.601  0.00  0.00    +0.000 OA
ATOM     60  N   MET A2097      15.176   1.690  -6.359  0.00  0.00    +0.000 N 
ATOM     61  H   MET A2097      15.153   0.952  -5.715  0.00  0.00    +0.000 HD
BRANCH  60  62
ATOM     62  CA  MET A2097      16.466   2.192  -6.818  0.00  0.00    +0.000 C 
BRANCH  62  63
ATOM     63  C   MET A2097      16.493   2.309  -8.339  0.00  0.00    +0.000 C 
ATOM     64  O   MET A2097      17.187   3.162  -8.892  0.00  0.00    +0.000 OA
ATOM     65  N   ALA A2098      15.735   1.447  -9.008  0.00  0.00    +0.000 N 
ATOM     66  H   ALA A2098      15.204   0.791  -8.511  0.00  0.00    +0.000 HD
BRANCH  65  67
ATOM     67  CA  ALA A2098      15.671   1.456 -10.464  0.00  0.00    +0.000 C 
ATOM     68  CB  ALA A2098      15.414   0.052 -10.990  0.00  0.00    +0.000 C 
BRANCH  67  69
ATOM     69  C   ALA A2098      14.594   2.415 -10.961  0.00  0.00    +0.000 C 
ATOM     70  O   ALA A2098      14.750   3.053 -12.002  0.00  0.00    +0.000 OA
ATOM     71  N   ALA A2099      13.501   2.510 -10.210  0.00  0.00    +0.000 N 
ATOM     72  H   ALA A2099      13.436   1.975  -9.392  0.00  0.00    +0.000 HD
BRANCH  71  73
ATOM     73  CA  ALA A2099      12.399   3.391 -10.574  0.00  0.00    +0.000 C 
ATOM     74  CB  ALA A2099      11.175   3.083  -9.726  0.00  0.00    +0.000 C 
BRANCH  73  75
ATOM     75  C   ALA A2099      12.795   4.856 -10.423  0.00  0.00    +0.000 C 
ATOM     76  O   ALA A2099      12.236   5.732 -11.084  0.00  0.00    +0.000 OA
ATOM     77  N   PHE A2100      13.760   5.116  -9.548  0.00  0.00    +0.000 N 
ATOM     78  H   PHE A2100      14.167   4.375  -9.051  0.00  0.00    +0.000 HD
BRANCH  77  79
ATOM     79  CA  PHE A2100      14.230   6.476  -9.308  0.00  0.00    +0.000 C 
BRANCH  79  80
ATOM     80  C   PHE A2100      14.898   7.048 -10.555  0.00  0.00    +0.000 C 
ATOM     81  O   PHE A2100      14.824   8.249 -10.816  0.00  0.00    +0.000 OA
ATOM     82  N   ILE A2101      15.550   6.180 -11.321  0.00  0.00    +0.000 N 
ATOM     83  H   ILE A2101      15.573   5.236 -11.060  0.00  0.00    +0.000 HD
BRANCH  82  84
ATOM     84  CA  ILE A2101      16.231   6.598 -12.540  0.00  0.00    +0.000 C 
BRANCH  84  85
ATOM     85  C   ILE A2101      15.230   6.937 -13.640  0.00  0.00    +0.000 C 
ATOM     86  O   ILE A2101      15.449   7.853 -14.433  0.00  0.00    +0.000 OA
ATOM     87  N   LYS A2102      14.130   6.193 -13.681  0.00  0.00    +0.000 N 
ATOM     88  H   LYS A2102      14.012   5.477 -13.021  0.00  0.00    +0.000 HD
BRANCH  87  89
ATOM     89  CA  LYS A2102      13.092   6.416 -14.680  0.00  0.00    +0.000 C 
BRANCH  89  90
ATOM     90  C   LYS A2102      12.519   7.825 -14.566  0.00  0.00    +0.000 C 
ATOM     91  O   LYS A2102      12.217   8.464 -15.573  0.00  0.00    +0.000 OA
ATOM     92  N   GLN A2103      12.375   8.302 -13.334  0.00  0.00    +0.000 N 
ATOM     93  H   GLN A2103      12.634   7.744 -12.572  0.00  0.00    +0.000 HD
BRANCH  92  94
ATOM     94  CA  GLN A2103      11.839   9.636 -13.090  0.00  0.00    +0.000 C 
BRANCH  94  95
ATOM     95  C   GLN A2103      12.820  10.709 -13.552  0.00  0.00    +0.000 C 
ATOM     96  O   GLN A2103      12.415  11.762 -14.047  0.00  0.00    +0.000 OA
ATOM     97  N   ARG A2104      14.110  10.436 -13.387  0.00  0.00    +0.000 N 
ATOM     98  H   ARG A2104      14.370   9.579 -12.987  0.00  0.00    +0.000 HD
BRANCH  97  99
ATOM     99  CA  ARG A2104      15.148  11.378 -13.785  0.00  0.00    +0.000 C 
BRANCH  99 100
ATOM    100  C   ARG A2104      15.239  11.476 -15.305  0.00  0.00    +0.000 C 
ATOM    101  O   ARG A2104      15.521  12.542 -15.853  0.00  0.00    +0.000 OA
ATOM    102  N   SER A2105      14.999  10.357 -15.981  0.00  0.00    +0.000 N 
ATOM    103  H   SER A2105      14.779   9.539 -15.487  0.00  0.00    +0.000 HD
BRANCH 102 104
ATOM    104  CA  SER A2105      15.058  10.316 -17.437  0.00  0.00    +0.000 C 
BRANCH 104 105
ATOM    105  C   SER A2105      13.746  10.799 -18.048  0.00  0.00    +0.000 C 
ATOM    106  O   SER A2105      13.739  11.450 -19.092  0.00  0.00    +0.000 OA
ATOM    107  N   GLN A2106      12.639  10.475 -17.389  0.00  0.00    +0.000 N 
ATOM    108  H   GLN A2106      12.710   9.954 -16.562  0.00  0.00    +0.000 HD
BRANCH 107 109
ATOM    109  CA  GLN A2106      11.321  10.875 -17.867  0.00  0.00    +0.000 C 
BRANCH 109 110
ATOM    110  C   GLN A2106      10.372  11.128 -16.700  0.00  0.00    +0.000 C 
ATOM    111  O   GLN A2106       9.954  10.196 -16.013  0.00  0.00    +0.000 OA
ATOM    112  N   HIS A2107      10.036  12.396 -16.482  0.00  0.00    +0.000 N 
ATOM    113  H   HIS A2107      10.402  13.094 -17.064  0.00  0.00    +0.000 HD
BRANCH 112 114
ATOM    114  CA  HIS A2107       9.136  12.772 -15.397  0.00  0.00    +0.000 C 
BRANCH 114 115
ATOM    115  C   HIS A2107       7.895  13.475 -15.940  0.00  0.00    +0.000 C 
ATOM    116  O   HIS A2107       7.608  14.615 -15.576  0.00  0.00    +0.000 OA
ATOM    117  N   GLN A2108       7.165  12.787 -16.813  0.00  0.00    +0.000 N 
ATOM    118  H   GLN A2108       7.446  11.883 -17.063  0.00  0.00    +0.000 HD
BRANCH 117 119
ATOM    119  CA  GLN A2108       5.957  13.347 -17.406  0.00  0.00    +0.000 C 
BRANCH 119 120
ATOM    120  C   GLN A2108       4.723  12.959 -16.598  0.00  0.00    +0.000 C 
ATOM    121  O   GLN A2108       4.666  11.875 -16.018  0.00  0.00    +0.000 OA
ATOM    122  N   GLN A2109       3.739  13.851 -16.565  0.00  0.00    +0.000 N 
ATOM    123  H   GLN A2109       3.844  14.697 -17.048  0.00  0.00    +0.000 HD
BRANCH 122 124
ATOM    124  CA  GLN A2109       2.506  13.601 -15.826  0.00  0.00    +0.000 C 
ATOM    125  C   GLN A2109       1.285  13.907 -16.687  0.00  0.00    +0.000 C 
ATOM    126  O   GLN A2109       0.585  12.998 -17.135  0.00  0.00    +0.000 OA
ATOM    127  CB  GLN A2109       2.471  14.446 -14.551  0.00  0.00    +0.000 C 
ATOM    128  CG  GLN A2109       2.878  15.894 -14.769  0.00  0.00    +0.000 C 
ATOM    129  CD  GLN A2109       1.894  16.653 -15.638  0.00  0.00    +0.000 C 
ATOM    130  OE1 GLN A2109       2.128  16.853 -16.830  0.00  0.00    +0.000 OA
ATOM    131  OXT GLN A2109       1.557  15.061 -16.557  0.00  0.00    +0.000 OA
BRANCH 129 132
ATOM    132  NE2 GLN A2109       0.786  17.079 -15.043  0.00  0.00    +0.000 NA
ATOM    133 HE21 GLN A2109       0.668  16.884 -14.090  0.00  0.00    +0.000 HD
ATOM    134 HE22 GLN A2109       0.133  17.573 -15.581  0.00  0.00    +0.000 HD
ENDBRANCH 129 132
ENDBRANCH 122 124
ENDBRANCH 119 120
BRANCH 119 135
ATOM    135  CB  GLN A2108       5.805  12.870 -18.852  0.00  0.00    +0.000 C 
BRANCH 135 136
ATOM    136  CG  GLN A2108       4.434  13.151 -19.444  0.00  0.00    +0.000 C 
BRANCH 136 137
ATOM    137  CD  GLN A2108       4.295  12.638 -20.864  0.00  0.00    +0.000 C 
ATOM    138  OE1 GLN A2108       4.591  11.478 -21.149  0.00  0.00    +0.000 OA
ATOM    139  NE2 GLN A2108       3.842  13.503 -21.765  0.00  0.00    +0.000 N 
ATOM    140 HE21 GLN A2108       3.627  14.412 -21.466  0.00  0.00    +0.000 HD
ATOM    141 HE22 GLN A2108       3.744  13.198 -22.690  0.00  0.00    +0.000 HD
ENDBRANCH 136 137
ENDBRANCH 135 136
ENDBRANCH 119 135
ENDBRANCH 117 119
ENDBRANCH 114 115
BRANCH 114 142
ATOM    142  CB  HIS A2107       9.856  13.680 -14.400  0.00  0.00    +0.000 C 
BRANCH 142 143
ATOM    143  CG  HIS A2107      10.624  14.791 -15.048  0.00  0.00    +0.000 A 
ATOM    144  ND1 HIS A2107      11.841  14.602 -15.667  0.00  0.00    +0.000 N 
ATOM    145  CD2 HIS A2107      10.340  16.108 -15.173  0.00  0.00    +0.000 A 
ATOM    146  CE1 HIS A2107      12.274  15.756 -16.143  0.00  0.00    +0.000 A 
ATOM    147  NE2 HIS A2107      11.381  16.686 -15.857  0.00  0.00    +0.000 NA
ATOM    148  HD1 HIS A2107      12.318  13.750 -15.745  0.00  0.00    +0.000 HD
ENDBRANCH 142 143
ENDBRANCH 114 142
ENDBRANCH 112 114
ENDBRANCH 109 110
BRANCH 109 149
ATOM    149  CB  GLN A2106      10.741   9.800 -18.788  0.00  0.00    +0.000 C 
BRANCH 149 150
ATOM    150  CG  GLN A2106      11.050  10.026 -20.259  0.00  0.00    +0.000 C 
BRANCH 150 151
ATOM    151  CD  GLN A2106      10.038   9.369 -21.176  0.00  0.00    +0.000 C 
ATOM    152  OE1 GLN A2106       9.614   8.236 -20.942  0.00  0.00    +0.000 OA
ATOM    153  NE2 GLN A2106       9.644  10.077 -22.227  0.00  0.00    +0.000 N 
ATOM    154 HE21 GLN A2106      10.025  10.972 -22.351  0.00  0.00    +0.000 HD
ATOM    155 HE22 GLN A2106       8.991   9.677 -22.837  0.00  0.00    +0.000 HD
ENDBRANCH 150 151
ENDBRANCH 149 150
ENDBRANCH 109 149
ENDBRANCH 107 109
ENDBRANCH 104 105
BRANCH 104 156
ATOM    156  CB  SER A2105      15.364   8.895 -17.916  0.00  0.00    +0.000 C 
BRANCH 156 157
ATOM    157  OG  SER A2105      15.349   8.819 -19.331  0.00  0.00    +0.000 OA
ATOM    158  HG  SER A2105      14.841   8.052 -19.605  0.00  0.00    +0.000 HD
ENDBRANCH 156 157
ENDBRANCH 104 156
ENDBRANCH 102 104
ENDBRANCH  99 100
BRANCH  99 159
ATOM    159  CB  ARG A2104      16.500  10.955 -13.209  0.00  0.00    +0.000 C 
BRANCH 159 160
ATOM    160  CG  ARG A2104      17.588  12.002 -13.375  0.00  0.00    +0.000 C 
BRANCH 160 161
ATOM    161  CD  ARG A2104      18.902  11.544 -12.761  0.00  0.00    +0.000 C 
BRANCH 161 162
ATOM    162  NE  ARG A2104      19.856  12.641 -12.628  0.00  0.00    +0.000 N 
ATOM    163  CZ  ARG A2104      20.528  13.159 -13.650  0.00  0.00    +0.000 C 
ATOM    164  NH1 ARG A2104      20.350  12.683 -14.874  0.00  0.00    +0.000 N 
ATOM    165  NH2 ARG A2104      21.379  14.157 -13.449  0.00  0.00    +0.000 N 
ATOM    166  HE  ARG A2104      20.003  13.008 -11.732  0.00  0.00    +0.000 HD
ATOM    167 HH11 ARG A2104      19.708  11.932 -15.029  0.00  0.00    +0.000 HD
ATOM    168 HH12 ARG A2104      20.856  13.076 -15.643  0.00  0.00    +0.000 HD
ATOM    169 HH21 ARG A2104      21.516  14.519 -12.527  0.00  0.00    +0.000 HD
ATOM    170 HH22 ARG A2104      21.884  14.546 -14.218  0.00  0.00    +0.000 HD
ENDBRANCH 161 162
ENDBRANCH 160 161
ENDBRANCH 159 160
ENDBRANCH  99 159
ENDBRANCH  97  99
ENDBRANCH  94  95
BRANCH  94 171
ATOM    171  CB  GLN A2103      11.527   9.819 -11.604  0.00  0.00    +0.000 C 
BRANCH 171 172
ATOM    172  CG  GLN A2103      10.555   8.787 -11.055  0.00  0.00    +0.000 C 
BRANCH 172 173
ATOM    173  CD  GLN A2103      10.548   8.740  -9.540  0.00  0.00    +0.000 C 
ATOM    174  OE1 GLN A2103      11.090   9.626  -8.877  0.00  0.00    +0.000 OA
ATOM    175  NE2 GLN A2103       9.933   7.704  -8.982  0.00  0.00    +0.000 N 
ATOM    176 HE21 GLN A2103       9.525   7.036  -9.573  0.00  0.00    +0.000 HD
ATOM    177 HE22 GLN A2103       9.914   7.648  -8.005  0.00  0.00    +0.000 HD
ENDBRANCH 172 173
ENDBRANCH 171 172
ENDBRANCH  94 171
ENDBRANCH  92  94
ENDBRANCH  89  90
BRANCH  89 178
ATOM    178  CB  LYS A2102      11.972   5.384 -14.522  0.00  0.00    +0.000 C 
BRANCH 178 179
ATOM    179  CG  LYS A2102      11.014   5.341 -15.699  0.00  0.00    +0.000 C 
BRANCH 179 180
ATOM    180  CD  LYS A2102      11.489   4.372 -16.769  0.00  0.00    +0.000 C 
BRANCH 180 181
ATOM    181  CE  LYS A2102      10.753   4.588 -18.083  0.00  0.00    +0.000 C 
BRANCH 181 182
ATOM    182  NZ  LYS A2102       9.314   4.217 -17.980  0.00  0.00    +0.000 N 
ATOM    183  HZ1 LYS A2102       9.221   3.218 -17.706  0.00  0.00    +0.000 HD
ATOM    184  HZ2 LYS A2102       8.844   4.807 -17.264  0.00  0.00    +0.000 HD
ATOM    185  HZ3 LYS A2102       8.842   4.361 -18.896  0.00  0.00    +0.000 HD
ENDBRANCH 181 182
ENDBRANCH 180 181
ENDBRANCH 179 180
ENDBRANCH 178 179
ENDBRANCH  89 178
ENDBRANCH  87  89
ENDBRANCH  84  85
BRANCH  84 186
ATOM    186  CB  ILE A2101      17.189   5.507 -13.052  0.00  0.00    +0.000 C 
ATOM    187  CG2 ILE A2101      17.489   5.716 -14.529  0.00  0.00    +0.000 C 
BRANCH 186 188
ATOM    188  CG1 ILE A2101      18.482   5.509 -12.234  0.00  0.00    +0.000 C 
ATOM    189  CD1 ILE A2101      18.293   5.056 -10.804  0.00  0.00    +0.000 C 
ENDBRANCH 186 188
ENDBRANCH  84 186
ENDBRANCH  82  84
ENDBRANCH  79  80
BRANCH  79 190
ATOM    190  CB  PHE A2100      15.210   6.501  -8.134  0.00  0.00    +0.000 C 
BRANCH 190 191
ATOM    191  CG  PHE A2100      14.876   7.534  -7.096  0.00  0.00    +0.000 A 
ATOM    192  CD1 PHE A2100      15.843   8.417  -6.642  0.00  0.00    +0.000 A 
ATOM    193  CD2 PHE A2100      13.596   7.622  -6.574  0.00  0.00    +0.000 A 
ATOM    194  CE1 PHE A2100      15.539   9.369  -5.688  0.00  0.00    +0.000 A 
ATOM    195  CE2 PHE A2100      13.286   8.572  -5.619  0.00  0.00    +0.000 A 
ATOM    196  CZ  PHE A2100      14.259   9.446  -5.175  0.00  0.00    +0.000 A 
ENDBRANCH 190 191
ENDBRANCH  79 190
ENDBRANCH  77  79
ENDBRANCH  73  75
ENDBRANCH  71  73
ENDBRANCH  67  69
ENDBRANCH  65  67
ENDBRANCH  62  63
BRANCH  62 197
ATOM    197  CB  MET A2097      17.593   1.271  -6.346  0.00  0.00    +0.000 C 
BRANCH 197 198
ATOM    198  CG  MET A2097      18.979   1.875  -6.505  0.00  0.00    +0.000 C 
BRANCH 198 199
ATOM    199  SD  MET A2097      19.704   1.534  -8.120  0.00  0.00    +0.000 S 
ATOM    200  CE  MET A2097      19.798  -0.255  -8.077  0.00  0.00    +0.000 C 
ENDBRANCH 198 199
ENDBRANCH 197 198
ENDBRANCH  62 197
ENDBRANCH  60  62
ENDBRANCH  57  58
BRANCH  57 201
ATOM    201  CB  LEU A2096      11.973   2.634  -5.439  0.00  0.00    +0.000 C 
BRANCH 201 202
ATOM    202  CG  LEU A2096      12.502   2.947  -4.039  0.00  0.00    +0.000 C 
ATOM    203  CD1 LEU A2096      12.405   4.437  -3.752  0.00  0.00    +0.000 C 
ATOM    204  CD2 LEU A2096      11.740   2.149  -2.991  0.00  0.00    +0.000 C 
ENDBRANCH 201 202
ENDBRANCH  57 201
ENDBRANCH  55  57
ENDBRANCH  52  53
BRANCH  52 205
ATOM    205  CB  GLN A2095      12.598  -2.598  -4.669  0.00  0.00    +0.000 C 
BRANCH 205 206
ATOM    206  CG  GLN A2095      11.481  -1.794  -4.024  0.00  0.00    +0.000 C 
BRANCH 206 207
ATOM    207  CD  GLN A2095      10.596  -2.639  -3.130  0.00  0.00    +0.000 C 
ATOM    208  OE1 GLN A2095      10.296  -3.791  -3.443  0.00  0.00    +0.000 OA
ATOM    209  NE2 GLN A2095      10.171  -2.069  -2.008  0.00  0.00    +0.000 N 
ATOM    210 HE21 GLN A2095      10.449  -1.147  -1.824  0.00  0.00    +0.000 HD
ATOM    211 HE22 GLN A2095       9.597  -2.592  -1.411  0.00  0.00    +0.000 HD
ENDBRANCH 206 207
ENDBRANCH 205 206
ENDBRANCH  52 205
ENDBRANCH  50  52
ENDBRANCH  44  48
ENDBRANCH  40  41
BRANCH  40 212
ATOM    212  CB  ASN A2093      16.061   4.576  -3.191  0.00  0.00    +0.000 C 
BRANCH 212 213
ATOM    213  CG  ASN A2093      15.307   5.889  -3.094  0.00  0.00    +0.000 C 
ATOM    214  OD1 ASN A2093      14.573   6.265  -4.008  0.00  0.00    +0.000 OA
ATOM    215  ND2 ASN A2093      15.487   6.593  -1.982  0.00  0.00    +0.000 N 
ATOM    216 HD21 ASN A2093      16.087   6.232  -1.297  0.00  0.00    +0.000 HD
ATOM    217 HD22 ASN A2093      15.012   7.445  -1.893  0.00  0.00    +0.000 HD
ENDBRANCH 212 213
ENDBRANCH  40 212
ENDBRANCH  38  40
ENDBRANCH  35  36
BRANCH  35 218
ATOM    218  CB  SER A2092      14.797   6.117   1.836  0.00  0.00    +0.000 C 
BRANCH 218 219
ATOM    219  OG  SER A2092      13.385   6.009   1.857  0.00  0.00    +0.000 OA
ATOM    220  HG  SER A2092      13.134   5.170   2.252  0.00  0.00    +0.000 HD
ENDBRANCH 218 219
ENDBRANCH  35 218
ENDBRANCH  33  35
ENDBRANCH  30  31
BRANCH  30 221
ATOM    221  CB  LYS A2091      19.555   5.194   3.183  0.00  0.00    +0.000 C 
BRANCH 221 222
ATOM    222  CG  LYS A2091      18.669   6.420   3.321  0.00  0.00    +0.000 C 
BRANCH 222 223
ATOM    223  CD  LYS A2091      17.532   6.178   4.299  0.00  0.00    +0.000 C 
BRANCH 223 224
ATOM    224  CE  LYS A2091      17.935   6.533   5.722  0.00  0.00    +0.000 C 
BRANCH 224 225
ATOM    225  NZ  LYS A2091      17.704   7.973   6.022  0.00  0.00    +0.000 N 
ATOM    226  HZ1 LYS A2091      18.389   8.305   6.731  0.00  0.00    +0.000 HD
ATOM    227  HZ2 LYS A2091      17.815   8.540   5.156  0.00  0.00    +0.000 HD
ATOM    228  HZ3 LYS A2091      16.742   8.111   6.393  0.00  0.00    +0.000 HD
ENDBRANCH 224 225
ENDBRANCH 223 224
ENDBRANCH 222 223
ENDBRANCH 221 222
ENDBRANCH  30 221
ENDBRANCH  28  30
ENDBRANCH  25  26
BRANCH  25 229
ATOM    229  CB  LEU A2090      21.041   4.408  -2.087  0.00  0.00    +0.000 C 
BRANCH 229 230
ATOM    230  CG  LEU A2090      21.403   4.565  -3.565  0.00  0.00    +0.000 C 
ATOM    231  CD1 LEU A2090      20.363   3.888  -4.444  0.00  0.00    +0.000 C 
ATOM    232  CD2 LEU A2090      21.537   6.036  -3.928  0.00  0.00    +0.000 C 
ENDBRANCH 229 230
ENDBRANCH  25 229
ENDBRANCH  23  25
ENDBRANCH  20  21
BRANCH  20 233
ATOM    233  CB  ILE A2089      18.735   9.362  -2.024  0.00  0.00    +0.000 C 
ATOM    234  CG2 ILE A2089      17.370   8.905  -2.518  0.00  0.00    +0.000 C 
BRANCH 233 235
ATOM    235  CG1 ILE A2089      18.750  10.877  -1.810  0.00  0.00    +0.000 C 
ATOM    236  CD1 ILE A2089      17.654  11.369  -0.892  0.00  0.00    +0.000 C 
ENDBRANCH 233 235
ENDBRANCH  20 233
ENDBRANCH  18  20
ENDBRANCH  15  16
BRANCH  15 237
ATOM    237  CB  GLN A2088      22.585   9.813   1.863  0.00  0.00    +0.000 C 
BRANCH 237 238
ATOM    238  CG  GLN A2088      23.982  10.112   2.382  0.00  0.00    +0.000 C 
BRANCH 238 239
ATOM    239  CD  GLN A2088      24.451   9.101   3.410  0.00  0.00    +0.000 C 
ATOM    240  OE1 GLN A2088      23.713   8.189   3.782  0.00  0.00    +0.000 OA
ATOM    241  NE2 GLN A2088      25.685   9.259   3.875  0.00  0.00    +0.000 N 
ATOM    242 HE21 GLN A2088      26.216  10.010   3.534  0.00  0.00    +0.000 HD
ATOM    243 HE22 GLN A2088      26.014   8.621   4.541  0.00  0.00    +0.000 HD
ENDBRANCH 238 239
ENDBRANCH 237 238
ENDBRANCH  15 237
ENDBRANCH  13  15
ENDBRANCH  10  11
BRANCH  10 244
ATOM    244  CB  LEU A2087      25.704   8.053  -2.219  0.00  0.00    +0.000 C 
BRANCH 244 245
ATOM    245  CG  LEU A2087      26.133   7.785  -0.776  0.00  0.00    +0.000 C 
ATOM    246  CD1 LEU A2087      25.871   6.335  -0.401  0.00  0.00    +0.000 C 
ATOM    247  CD2 LEU A2087      27.603   8.130  -0.584  0.00  0.00    +0.000 C 
ENDBRANCH 244 245
ENDBRANCH  10 244
ENDBRANCH   8  10
ENDBRANCH   5   6
BRANCH   5 248
ATOM    248  CB  VAL A2086      22.462  11.753  -4.772  0.00  0.00    +0.000 C 
ATOM    249  CG1 VAL A2086      23.500  10.890  -5.473  0.00  0.00    +0.000 C 
ATOM    250  CG2 VAL A2086      21.056  11.370  -5.208  0.00  0.00    +0.000 C 
ENDBRANCH   5 248
ENDBRANCH   3   5
BRANCH   1 251
ATOM    251  CA  GLN A2085      25.341  13.187  -1.106  0.00  0.00    +0.000 C 
BRANCH 251 254
ATOM    252  C   GLN A2084      27.194  11.709  -1.656  0.00  0.00    +0.000 C 
ATOM    253  O   GLN A2084      26.908  10.929  -0.748  0.00  0.00    +0.000 OA
ATOM    254  N   GLN A2085      26.502  12.816  -1.906  0.00  0.00    +0.000 N 
ATOM    255  H   GLN A2085      26.780  13.397  -2.644  0.00  0.00    +0.000 HD
BRANCH 252 256
ATOM    256  CA  GLN A2084      28.387  11.440  -2.568  0.00  0.00    +0.000 C 
BRANCH 256 259
ATOM    257  C   GLN A2083      27.144  11.340  -4.657  0.00  0.00    +0.000 C 
ATOM    258  O   GLN A2083      26.420  10.435  -4.242  0.00  0.00    +0.000 OA
ATOM    259  N   GLN A2084      28.112  11.885  -3.929  0.00  0.00    +0.000 N 
ATOM    260  H   GLN A2084      28.655  12.603  -4.316  0.00  0.00    +0.000 HD
BRANCH 257 261
ATOM    261  CA  GLN A2083      26.964  11.898  -6.065  0.00  0.00    +0.000 C 
BRANCH 261 264
ATOM    262  C   GLN A2082      26.488  14.191  -5.403  0.00  0.00    +0.000 C 
ATOM    263  O   GLN A2082      25.539  13.844  -4.700  0.00  0.00    +0.000 OA
ATOM    264  N   GLN A2083      27.230  13.332  -6.095  0.00  0.00    +0.000 N 
ATOM    265  H   GLN A2083      27.972  13.669  -6.637  0.00  0.00    +0.000 HD
BRANCH 262 266
ATOM    266  CA  GLN A2082      26.873  15.662  -5.524  0.00  0.00    +0.000 C 
BRANCH 266 269
ATOM    267  C   GLN A2081      29.224  15.409  -4.950  0.00  0.00    +0.000 C 
ATOM    268  O   GLN A2081      28.956  14.899  -3.862  0.00  0.00    +0.000 OA
ATOM    269  N   GLN A2082      28.294  15.806  -5.813  0.00  0.00    +0.000 N 
ATOM    270  H   GLN A2082      28.571  16.204  -6.664  0.00  0.00    +0.000 HD
BRANCH 267 271
ATOM    271  CA  GLN A2081      30.673  15.618  -5.377  0.00  0.00    +0.000 C 
BRANCH 271 274
ATOM    272  C   PRO A2080      30.875  13.618  -6.748  0.00  0.00    +0.000 C 
ATOM    273  O   PRO A2080      30.577  12.882  -5.808  0.00  0.00    +0.000 OA
ATOM    274  N   GLN A2081      30.947  14.941  -6.639  0.00  0.00    +0.000 N 
ATOM    275  H   GLN A2081      31.190  15.473  -7.424  0.00  0.00    +0.000 HD
BRANCH 272 279
ATOM    276  C   SER A2079      29.699  14.387  -9.551  0.00  0.00    +0.000 C 
ATOM    277  O   SER A2079      28.692  13.962  -8.984  0.00  0.00    +0.000 OA
ATOM    278  N   PRO A2080      30.934  13.997  -9.203  0.00  0.00    +0.000 N 
ATOM    279  CA  PRO A2080      31.186  13.038  -8.123  0.00  0.00    +0.000 C 
ATOM    280  CB  PRO A2080      32.683  12.743  -8.254  0.00  0.00    +0.000 C 
ATOM    281  CG  PRO A2080      33.251  13.952  -8.913  0.00  0.00    +0.000 C 
ATOM    282  CD  PRO A2080      32.179  14.463  -9.835  0.00  0.00    +0.000 C 
BRANCH 276 283
ATOM    283  CA  SER A2079      29.609  15.392 -10.695  0.00  0.00    +0.000 C 
BRANCH 283 286
ATOM    284  C   SER A2078      27.837  14.084 -11.731  0.00  0.00    +0.000 C 
ATOM    285  O   SER A2078      28.403  13.021 -11.475  0.00  0.00    +0.000 OA
ATOM    286  N   SER A2079      28.336  15.269 -11.396  0.00  0.00    +0.000 N 
ATOM    287  H   SER A2079      27.837  16.080 -11.628  0.00  0.00    +0.000 HD
BRANCH 284 288
ATOM    288  CA  SER A2078      26.499  14.101 -12.465  0.00  0.00    +0.000 C 
BRANCH 288 291
ATOM    289  C   PRO A2077      25.450  16.054 -11.460  0.00  0.00    +0.000 C 
ATOM    290  O   PRO A2077      25.399  15.519 -10.352  0.00  0.00    +0.000 OA
ATOM    291  N   SER A2078      25.960  15.454 -12.531  0.00  0.00    +0.000 N 
ATOM    292  H   SER A2078      25.972  15.933 -13.386  0.00  0.00    +0.000 HD
BRANCH 289 296
ATOM    293  C   SER A2076      22.666  17.274 -10.687  0.00  0.00    +0.000 C 
ATOM    294  O   SER A2076      22.328  16.426 -11.513  0.00  0.00    +0.000 OA
ATOM    295  N   PRO A2077      23.889  17.826 -10.689  0.00  0.00    +0.000 N 
ATOM    296  CA  PRO A2077      24.918  17.467 -11.669  0.00  0.00    +0.000 C 
ATOM    297  CB  PRO A2077      26.022  18.497 -11.417  0.00  0.00    +0.000 C 
ATOM    298  CG  PRO A2077      25.839  18.909  -9.997  0.00  0.00    +0.000 C 
ATOM    299  CD  PRO A2077      24.360  18.843  -9.734  0.00  0.00    +0.000 C 
BRANCH 293 300
ATOM    300  CA  SER A2076      21.713  17.757  -9.598  0.00  0.00    +0.000 C 
BRANCH 300 303
ATOM    301  C   LYS A2075      19.684  18.587 -10.658  0.00  0.00    +0.000 C 
ATOM    302  O   LYS A2075      20.210  19.666 -10.933  0.00  0.00    +0.000 OA
ATOM    303  N   SER A2076      20.325  17.611 -10.022  0.00  0.00    +0.000 N 
ATOM    304  H   SER A2076      19.852  16.774  -9.831  0.00  0.00    +0.000 HD
BRANCH 301 305
ATOM    305  CA  LYS A2075      18.236  18.304 -11.042  0.00  0.00    +0.000 C 
BRANCH 305 308
ATOM    306  C   LEU A2074      17.864  15.902 -10.919  0.00  0.00    +0.000 C 
ATOM    307  O   LEU A2074      18.390  15.714 -12.016  0.00  0.00    +0.000 OA
ATOM    308  N   LYS A2075      17.744  17.106 -10.371  0.00  0.00    +0.000 N 
ATOM    309  H   LYS A2075      17.315  17.192  -9.494  0.00  0.00    +0.000 HD
BRANCH 306 310
ATOM    310  CA  LEU A2074      17.310  14.735 -10.107  0.00  0.00    +0.000 C 
BRANCH 310 313
ATOM    311  C   THR A2073      18.606  15.191  -8.097  0.00  0.00    +0.000 C 
ATOM    312  O   THR A2073      19.670  15.169  -8.719  0.00  0.00    +0.000 OA
ATOM    313  N   LEU A2074      17.427  14.995  -8.676  0.00  0.00    +0.000 N 
ATOM    314  H   LEU A2074      16.615  15.025  -8.129  0.00  0.00    +0.000 HD
BRANCH 311 315
ATOM    315  CA  THR A2073      18.585  15.453  -6.596  0.00  0.00    +0.000 C 
BRANCH 315 318
ATOM    316  C   GLN A2072      17.651  17.700  -6.666  0.00  0.00    +0.000 C 
ATOM    317  O   GLN A2072      18.575  18.115  -7.367  0.00  0.00    +0.000 OA
ATOM    318  N   THR A2073      17.570  16.440  -6.249  0.00  0.00    +0.000 N 
ATOM    319  H   THR A2073      16.809  16.170  -5.693  0.00  0.00    +0.000 HD
BRANCH 316 320
ATOM    320  CA  GLN A2072      16.522  18.628  -6.229  0.00  0.00    +0.000 C 
BRANCH 320 323
ATOM    321  C   LEU A2071      14.958  17.819  -7.909  0.00  0.00    +0.000 C 
ATOM    322  O   LEU A2071      15.771  17.983  -8.818  0.00  0.00    +0.000 OA
ATOM    323  N   GLN A2072      15.226  18.099  -6.637  0.00  0.00    +0.000 N 
ATOM    324  H   GLN A2072      14.537  17.948  -5.959  0.00  0.00    +0.000 HD
BRANCH 321 325
ATOM    325  CA  LEU A2071      13.564  17.271  -8.197  0.00  0.00    +0.000 C 
BRANCH 325 328
ATOM    326  C   LEU A2070      13.785  15.459  -6.586  0.00  0.00    +0.000 C 
ATOM    327  O   LEU A2070      14.886  15.132  -7.032  0.00  0.00    +0.000 OA
ATOM    328  N   LEU A2071      13.078  16.470  -7.079  0.00  0.00    +0.000 N 
ATOM    329  H   LEU A2071      12.208  16.683  -6.683  0.00  0.00    +0.000 HD
BRANCH 326 330
ATOM    330  CA  LEU A2070      13.160  14.708  -5.416  0.00  0.00    +0.000 C 
BRANCH 330 333
ATOM    331  C   GLN A2069      11.718  13.322  -6.804  0.00  0.00    +0.000 C 
ATOM    332  O   GLN A2069      12.663  12.951  -7.501  0.00  0.00    +0.000 OA
ATOM    333  N   LEU A2070      11.858  14.161  -5.784  0.00  0.00    +0.000 N 
ATOM    334  H   LEU A2070      11.069  14.420  -5.265  0.00  0.00    +0.000 HD
BRANCH 331 335
ATOM    335  CA  GLN A2069      10.302  12.827  -7.079  0.00  0.00    +0.000 C 
BRANCH 335 338
ATOM    336  C   GLN A2068       9.975  11.775  -4.909  0.00  0.00    +0.000 C 
ATOM    337  O   GLN A2068      10.989  11.087  -5.033  0.00  0.00    +0.000 OA
ATOM    338  N   GLN A2069       9.566  12.636  -5.835  0.00  0.00    +0.000 N 
ATOM    339  H   GLN A2069       8.751  13.155  -5.677  0.00  0.00    +0.000 HD
BRANCH 336 340
ATOM    340  CA  GLN A2068       9.113  11.673  -3.655  0.00  0.00    +0.000 C 
BRANCH 340 343
ATOM    341  C   LEU A2067       8.775  14.067  -3.384  0.00  0.00    +0.000 C 
ATOM    342  O   LEU A2067       9.986  14.288  -3.377  0.00  0.00    +0.000 OA
ATOM    343  N   GLN A2068       8.262  12.848  -3.512  0.00  0.00    +0.000 N 
ATOM    344  H   GLN A2068       7.289  12.737  -3.510  0.00  0.00    +0.000 HD
BRANCH 341 345
ATOM    345  CA  LEU A2067       7.773  15.209  -3.244  0.00  0.00    +0.000 C 
BRANCH 345 348
ATOM    346  C   ALA A2066       7.630  15.747  -5.614  0.00  0.00    +0.000 C 
ATOM    347  O   ALA A2066       8.845  15.928  -5.696  0.00  0.00    +0.000 OA
ATOM    348  N   LEU A2067       7.026  15.400  -4.482  0.00  0.00    +0.000 N 
ATOM    349  H   LEU A2067       6.055  15.270  -4.478  0.00  0.00    +0.000 HD
BRANCH 346 350
ATOM    350  CA  ALA A2066       6.730  15.915  -6.833  0.00  0.00    +0.000 C 
ATOM    351  CB  ALA A2066       6.233  17.349  -6.932  0.00  0.00    +0.000 C 
BRANCH 350 354
ATOM    352  C   GLN A2065       5.777  13.690  -6.575  0.00  0.00    +0.000 C 
ATOM    353  O   GLN A2065       6.885  13.180  -6.412  0.00  0.00    +0.000 OA
ATOM    354  N   ALA A2066       5.603  14.991  -6.785  0.00  0.00    +0.000 N 
ATOM    355  H   ALA A2066       4.695  15.338  -6.909  0.00  0.00    +0.000 HD
BRANCH 352 356
ATOM    356  CA  GLN A2065       4.512  12.838  -6.547  0.00  0.00    +0.000 C 
BRANCH 356 359
ATOM    357  C   PRO A2064       3.418  13.937  -4.672  0.00  0.00    +0.000 C 
ATOM    358  O   PRO A2064       4.354  13.686  -3.913  0.00  0.00    +0.000 OA
ATOM    359  N   GLN A2065       3.403  13.572  -5.950  0.00  0.00    +0.000 N 
ATOM    360  H   GLN A2065       2.628  13.802  -6.504  0.00  0.00    +0.000 HD
BRANCH 357 364
ATOM    361  C   PRO A2063       2.183  16.626  -5.712  0.00  0.00    +0.000 C 
ATOM    362  O   PRO A2063       3.280  17.013  -5.309  0.00  0.00    +0.000 OA
ATOM    363  N   PRO A2064       1.589  15.527  -5.223  0.00  0.00    +0.000 N 
ATOM    364  CA  PRO A2064       2.194  14.700  -4.175  0.00  0.00    +0.000 C 
ATOM    365  CB  PRO A2064       1.074  13.727  -3.800  0.00  0.00    +0.000 C 
ATOM    366  CG  PRO A2064       0.218  13.647  -5.017  0.00  0.00    +0.000 C 
ATOM    367  CD  PRO A2064       0.282  15.006  -5.657  0.00  0.00    +0.000 C 
BRANCH 361 371
ATOM    368  C   THR A2062       0.855  19.465  -5.627  0.00  0.00    +0.000 C 
ATOM    369  O   THR A2062       0.180  18.867  -4.789  0.00  0.00    +0.000 OA
ATOM    370  N   PRO A2063       1.485  18.829  -6.625  0.00  0.00    +0.000 N 
ATOM    371  CA  PRO A2063       1.422  17.375  -6.801  0.00  0.00    +0.000 C 
ATOM    372  CB  PRO A2063       2.083  17.153  -8.164  0.00  0.00    +0.000 C 
ATOM    373  CG  PRO A2063       2.987  18.324  -8.341  0.00  0.00    +0.000 C 
ATOM    374  CD  PRO A2063       2.308  19.479  -7.659  0.00  0.00    +0.000 C 
BRANCH 368 375
ATOM    375  CA  THR A2062       1.022  20.980  -5.583  0.00  0.00    +0.000 C 
BRANCH 375 378
ATOM    376  C   SER A2061      -1.100  22.111  -5.959  0.00  0.00    +0.000 C 
ATOM    377  O   SER A2061      -0.975  22.043  -7.183  0.00  0.00    +0.000 OA
ATOM    378  N   THR A2062      -0.195  21.630  -5.113  0.00  0.00    +0.000 N 
ATOM    379  H   THR A2062      -0.351  21.714  -4.149  0.00  0.00    +0.000 HD
BRANCH 376 380
ATOM    380  CA  SER A2061      -2.326  22.767  -5.331  0.00  0.00    +0.000 C 
BRANCH 380 383
ATOM    381  C   GLY A2060      -2.490  25.126  -5.909  0.00  0.00    +0.000 C 
ATOM    382  O   GLY A2060      -1.765  25.458  -4.971  0.00  0.00    +0.000 OA
ATOM    383  N   SER A2061      -2.813  23.862  -6.163  0.00  0.00    +0.000 N 
ATOM    384  H   SER A2061      -3.394  23.661  -6.926  0.00  0.00    +0.000 HD
BRANCH 381 385
ATOM    385  CA  GLY A2060      -3.067  26.169  -6.846  0.00  0.00    +0.000 C 
BRANCH 385 386
ATOM    386  N   GLY A2060      -2.038  26.955  -7.503  0.00  0.00    +0.000 N 
ATOM    387  H2  GLY A2060      -1.049  26.313  -7.734  0.00  0.00    +0.000 HD
ATOM    388  H3  GLY A2060      -2.402  27.227  -8.619  0.00  0.00    +0.000 HD
ATOM    389  H   GLY A2060      -1.764  27.815  -7.122  0.00  0.00    +0.000 HD
ENDBRANCH 385 386
ENDBRANCH 381 385
ENDBRANCH 380 383
BRANCH 380 390
ATOM    390  CB  SER A2061      -3.427  21.725  -5.127  0.00  0.00    +0.000 C 
BRANCH 390 391
ATOM    391  OG  SER A2061      -4.636  22.336  -4.708  0.00  0.00    +0.000 OA
ATOM    392  HG  SER A2061      -4.995  21.855  -3.959  0.00  0.00    +0.000 HD
ENDBRANCH 390 391
ENDBRANCH 380 390
ENDBRANCH 376 380
ENDBRANCH 375 378
BRANCH 375 393
ATOM    393  CB  THR A2062       2.226  21.327  -4.687  0.00  0.00    +0.000 C 
ATOM    394  CG2 THR A2062       2.499  20.210  -3.691  0.00  0.00    +0.000 C 
BRANCH 393 395
ATOM    395  OG1 THR A2062       3.388  21.549  -5.493  0.00  0.00    +0.000 OA
ATOM    396  HG1 THR A2062       3.151  22.077  -6.259  0.00  0.00    +0.000 HD
ENDBRANCH 393 395
ENDBRANCH 375 393
ENDBRANCH 368 375
ENDBRANCH 361 371
ENDBRANCH 357 364
ENDBRANCH 356 359
BRANCH 356 397
ATOM    397  CB  GLN A2065       4.152  12.392  -7.965  0.00  0.00    +0.000 C 
BRANCH 397 398
ATOM    398  CG  GLN A2065       4.753  11.050  -8.352  0.00  0.00    +0.000 C 
BRANCH 398 399
ATOM    399  CD  GLN A2065       3.862   9.882  -7.978  0.00  0.00    +0.000 C 
ATOM    400  OE1 GLN A2065       2.722   9.785  -8.433  0.00  0.00    +0.000 OA
ATOM    401  NE2 GLN A2065       4.378   8.986  -7.145  0.00  0.00    +0.000 N 
ATOM    402 HE21 GLN A2065       5.293   9.129  -6.821  0.00  0.00    +0.000 HD
ATOM    403 HE22 GLN A2065       3.824   8.222  -6.886  0.00  0.00    +0.000 HD
ENDBRANCH 398 399
ENDBRANCH 397 398
ENDBRANCH 356 397
ENDBRANCH 352 356
ENDBRANCH 350 354
ENDBRANCH 346 350
ENDBRANCH 345 348
BRANCH 345 404
ATOM    404  CB  LEU A2067       6.815  14.922  -2.086  0.00  0.00    +0.000 C 
BRANCH 404 405
ATOM    405  CG  LEU A2067       6.180  16.145  -1.422  0.00  0.00    +0.000 C 
ATOM    406  CD1 LEU A2067       7.206  16.888  -0.580  0.00  0.00    +0.000 C 
ATOM    407  CD2 LEU A2067       5.579  17.069  -2.471  0.00  0.00    +0.000 C 
ENDBRANCH 404 405
ENDBRANCH 345 404
ENDBRANCH 341 345
ENDBRANCH 340 343
BRANCH 340 408
ATOM    408  CB  GLN A2068       8.260  10.404  -3.711  0.00  0.00    +0.000 C 
BRANCH 408 409
ATOM    409  CG  GLN A2068       7.328  10.245  -2.520  0.00  0.00    +0.000 C 
BRANCH 409 410
ATOM    410  CD  GLN A2068       8.071   9.954  -1.232  0.00  0.00    +0.000 C 
ATOM    411  OE1 GLN A2068       8.959   9.102  -1.192  0.00  0.00    +0.000 OA
ATOM    412  NE2 GLN A2068       7.711  10.663  -0.168  0.00  0.00    +0.000 N 
ATOM    413 HE21 GLN A2068       6.995  11.323  -0.273  0.00  0.00    +0.000 HD
ATOM    414 HE22 GLN A2068       8.175  10.495   0.679  0.00  0.00    +0.000 HD
ENDBRANCH 409 410
ENDBRANCH 408 409
ENDBRANCH 340 408
ENDBRANCH 336 340
ENDBRANCH 335 338
BRANCH 335 415
ATOM    415  CB  GLN A2069       9.569  13.819  -7.983  0.00  0.00    +0.000 C 
BRANCH 415 416
ATOM    416  CG  GLN A2069       9.190  13.243  -9.338  0.00  0.00    +0.000 C 
BRANCH 416 417
ATOM    417  CD  GLN A2069       7.860  12.515  -9.311  0.00  0.00    +0.000 C 
ATOM    418  OE1 GLN A2069       7.752  11.415  -8.769  0.00  0.00    +0.000 OA
ATOM    419  NE2 GLN A2069       6.838  13.128  -9.898  0.00  0.00    +0.000 N 
ATOM    420 HE21 GLN A2069       6.999  14.003 -10.310  0.00  0.00    +0.000 HD
ATOM    421 HE22 GLN A2069       5.967  12.680  -9.896  0.00  0.00    +0.000 HD
ENDBRANCH 416 417
ENDBRANCH 415 416
ENDBRANCH 335 415
ENDBRANCH 331 335
ENDBRANCH 330 333
BRANCH 330 422
ATOM    422  CB  LEU A2070      14.094  13.587  -4.957  0.00  0.00    +0.000 C 
BRANCH 422 423
ATOM    423  CG  LEU A2070      14.016  13.212  -3.476  0.00  0.00    +0.000 C 
ATOM    424  CD1 LEU A2070      12.715  12.484  -3.178  0.00  0.00    +0.000 C 
ATOM    425  CD2 LEU A2070      15.211  12.358  -3.079  0.00  0.00    +0.000 C 
ENDBRANCH 422 423
ENDBRANCH 330 422
ENDBRANCH 326 330
ENDBRANCH 325 328
BRANCH 325 426
ATOM    426  CB  LEU A2071      12.599  18.423  -8.483  0.00  0.00    +0.000 C 
BRANCH 426 427
ATOM    427  CG  LEU A2071      11.112  18.067  -8.490  0.00  0.00    +0.000 C 
ATOM    428  CD1 LEU A2071      10.277  19.271  -8.895  0.00  0.00    +0.000 C 
ATOM    429  CD2 LEU A2071      10.849  16.894  -9.424  0.00  0.00    +0.000 C 
ENDBRANCH 426 427
ENDBRANCH 325 426
ENDBRANCH 321 325
ENDBRANCH 320 323
BRANCH 320 430
ATOM    430  CB  GLN A2072      16.564  18.821  -4.712  0.00  0.00    +0.000 C 
BRANCH 430 431
ATOM    431  CG  GLN A2072      15.323  19.497  -4.151  0.00  0.00    +0.000 C 
BRANCH 431 432
ATOM    432  CD  GLN A2072      14.962  20.766  -4.899  0.00  0.00    +0.000 C 
ATOM    433  OE1 GLN A2072      15.792  21.660  -5.065  0.00  0.00    +0.000 OA
ATOM    434  NE2 GLN A2072      13.717  20.850  -5.354  0.00  0.00    +0.000 N 
ATOM    435 HE21 GLN A2072      13.110  20.099  -5.183  0.00  0.00    +0.000 HD
ATOM    436 HE22 GLN A2072      13.456  21.659  -5.840  0.00  0.00    +0.000 HD
ENDBRANCH 431 432
ENDBRANCH 430 431
ENDBRANCH 320 430
ENDBRANCH 316 320
ENDBRANCH 315 318
BRANCH 315 437
ATOM    437  CB  THR A2073      18.350  14.122  -5.857  0.00  0.00    +0.000 C 
ATOM    438  CG2 THR A2073      18.077  14.363  -4.380  0.00  0.00    +0.000 C 
BRANCH 437 439
ATOM    439  OG1 THR A2073      17.245  13.425  -6.444  0.00  0.00    +0.000 OA
ATOM    440  HG1 THR A2073      17.165  12.556  -6.042  0.00  0.00    +0.000 HD
ENDBRANCH 437 439
ENDBRANCH 315 437
ENDBRANCH 311 315
ENDBRANCH 310 313
BRANCH 310 441
ATOM    441  CB  LEU A2074      15.848  14.486 -10.482  0.00  0.00    +0.000 C 
BRANCH 441 442
ATOM    442  CG  LEU A2074      15.353  13.047 -10.335  0.00  0.00    +0.000 C 
ATOM    443  CD1 LEU A2074      15.458  12.591  -8.888  0.00  0.00    +0.000 C 
ATOM    444  CD2 LEU A2074      13.921  12.922 -10.833  0.00  0.00    +0.000 C 
ENDBRANCH 441 442
ENDBRANCH 310 441
ENDBRANCH 306 310
ENDBRANCH 305 308
BRANCH 305 445
ATOM    445  CB  LYS A2075      17.359  19.508 -10.689  0.00  0.00    +0.000 C 
BRANCH 445 446
ATOM    446  CG  LYS A2075      17.520  20.679 -11.642  0.00  0.00    +0.000 C 
BRANCH 446 447
ATOM    447  CD  LYS A2075      16.362  21.655 -11.528  0.00  0.00    +0.000 C 
BRANCH 447 448
ATOM    448  CE  LYS A2075      15.122  21.135 -12.239  0.00  0.00    +0.000 C 
BRANCH 448 449
ATOM    449  NZ  LYS A2075      15.080  21.563 -13.665  0.00  0.00    +0.000 N 
ATOM    450  HZ1 LYS A2075      15.236  20.745 -14.289  0.00  0.00    +0.000 HD
ATOM    451  HZ2 LYS A2075      14.154  21.982 -13.885  0.00  0.00    +0.000 HD
ATOM    452  HZ3 LYS A2075      15.821  22.270 -13.848  0.00  0.00    +0.000 HD
ENDBRANCH 448 449
ENDBRANCH 447 448
ENDBRANCH 446 447
ENDBRANCH 445 446
ENDBRANCH 305 445
ENDBRANCH 301 305
ENDBRANCH 300 303
BRANCH 300 453
ATOM    453  CB  SER A2076      21.958  16.976  -8.306  0.00  0.00    +0.000 C 
BRANCH 453 454
ATOM    454  OG  SER A2076      21.059  17.380  -7.287  0.00  0.00    +0.000 OA
ATOM    455  HG  SER A2076      21.452  17.212  -6.428  0.00  0.00    +0.000 HD
ENDBRANCH 453 454
ENDBRANCH 300 453
ENDBRANCH 293 300
ENDBRANCH 289 296
ENDBRANCH 288 291
BRANCH 288 456
ATOM    456  CB  SER A2078      26.670  13.528 -13.873  0.00  0.00    +0.000 C 
BRANCH 456 457
ATOM    457  OG  SER A2078      26.944  14.553 -14.811  0.00  0.00    +0.000 OA
ATOM    458  HG  SER A2078      26.129  14.820 -15.242  0.00  0.00    +0.000 HD
ENDBRANCH 456 457
ENDBRANCH 288 456
ENDBRANCH 284 288
ENDBRANCH 283 286
BRANCH 283 459
ATOM    459  CB  SER A2079      29.783  16.813 -10.156  0.00  0.00    +0.000 C 
BRANCH 459 460
ATOM    460  OG  SER A2079      29.899  17.750 -11.213  0.00  0.00    +0.000 OA
ATOM    461  HG  SER A2079      30.382  18.521 -10.906  0.00  0.00    +0.000 HD
ENDBRANCH 459 460
ENDBRANCH 283 459
ENDBRANCH 276 283
ENDBRANCH 272 279
ENDBRANCH 271 274
BRANCH 271 462
ATOM    462  CB  GLN A2081      30.969  17.114  -5.502  0.00  0.00    +0.000 C 
BRANCH 462 463
ATOM    463  CG  GLN A2081      32.451  17.433  -5.614  0.00  0.00    +0.000 C 
BRANCH 463 464
ATOM    464  CD  GLN A2081      33.166  17.359  -4.279  0.00  0.00    +0.000 C 
ATOM    465  OE1 GLN A2081      32.747  16.634  -3.376  0.00  0.00    +0.000 OA
ATOM    466  NE2 GLN A2081      34.252  18.112  -4.146  0.00  0.00    +0.000 N 
ATOM    467 HE21 GLN A2081      34.526  18.666  -4.907  0.00  0.00    +0.000 HD
ATOM    468 HE22 GLN A2081      34.733  18.084  -3.294  0.00  0.00    +0.000 HD
ENDBRANCH 463 464
ENDBRANCH 462 463
ENDBRANCH 271 462
ENDBRANCH 267 271
ENDBRANCH 266 269
BRANCH 266 469
ATOM    469  CB  GLN A2082      26.038  16.332  -6.616  0.00  0.00    +0.000 C 
BRANCH 469 470
ATOM    470  CG  GLN A2082      25.181  17.480  -6.109  0.00  0.00    +0.000 C 
BRANCH 470 471
ATOM    471  CD  GLN A2082      26.006  18.666  -5.650  0.00  0.00    +0.000 C 
ATOM    472  OE1 GLN A2082      26.113  18.937  -4.454  0.00  0.00    +0.000 OA
ATOM    473  NE2 GLN A2082      26.595  19.381  -6.602  0.00  0.00    +0.000 N 
ATOM    474 HE21 GLN A2082      26.464  19.107  -7.534  0.00  0.00    +0.000 HD
ATOM    475 HE22 GLN A2082      27.133  20.154  -6.334  0.00  0.00    +0.000 HD
ENDBRANCH 470 471
ENDBRANCH 469 470
ENDBRANCH 266 469
ENDBRANCH 262 266
ENDBRANCH 261 264
BRANCH 261 476
ATOM    476  CB  GLN A2083      27.890  11.167  -7.039  0.00  0.00    +0.000 C 
BRANCH 476 477
ATOM    477  CG  GLN A2083      27.182  10.651  -8.281  0.00  0.00    +0.000 C 
BRANCH 477 478
ATOM    478  CD  GLN A2083      26.796   9.189  -8.168  0.00  0.00    +0.000 C 
ATOM    479  OE1 GLN A2083      27.657   8.308  -8.139  0.00  0.00    +0.000 OA
ATOM    480  NE2 GLN A2083      25.497   8.923  -8.103  0.00  0.00    +0.000 N 
ATOM    481 HE21 GLN A2083      24.869   9.675  -8.133  0.00  0.00    +0.000 HD
ATOM    482 HE22 GLN A2083      25.219   7.987  -8.031  0.00  0.00    +0.000 HD
ENDBRANCH 477 478
ENDBRANCH 476 477
ENDBRANCH 261 476
ENDBRANCH 257 261
ENDBRANCH 256 259
BRANCH 256 483
ATOM    483  CB  GLN A2084      29.630  12.142  -2.020  0.00  0.00    +0.000 C 
BRANCH 483 484
ATOM    484  CG  GLN A2084      30.922  11.702  -2.689  0.00  0.00    +0.000 C 
BRANCH 484 485
ATOM    485  CD  GLN A2084      31.514  10.459  -2.054  0.00  0.00    +0.000 C 
ATOM    486  OE1 GLN A2084      31.080   9.340  -2.330  0.00  0.00    +0.000 OA
ATOM    487  NE2 GLN A2084      32.511  10.649  -1.198  0.00  0.00    +0.000 N 
ATOM    488 HE21 GLN A2084      32.803  11.569  -1.025  0.00  0.00    +0.000 HD
ATOM    489 HE22 GLN A2084      32.911   9.863  -0.772  0.00  0.00    +0.000 HD
ENDBRANCH 484 485
ENDBRANCH 483 484
ENDBRANCH 256 483
ENDBRANCH 252 256
ENDBRANCH 251 254
BRANCH 251 490
ATOM    490  CB  GLN A2085      25.020  14.671  -1.292  0.00  0.00    +0.000 C 
BRANCH 490 491
ATOM    491  CG  GLN A2085      23.942  15.183  -0.351  0.00  0.00    +0.000 C 
BRANCH 491 492
ATOM    492  CD  GLN A2085      24.505  15.690   0.962  0.00  0.00    +0.000 C 
ATOM    493  OE1 GLN A2085      25.720  15.813   1.123  0.00  0.00    +0.000 OA
ATOM    494  NE2 GLN A2085      23.624  15.987   1.910  0.00  0.00    +0.000 N 
ATOM    495 HE21 GLN A2085      22.672  15.862   1.711  0.00  0.00    +0.000 HD
ATOM    496 HE22 GLN A2085      23.960  16.315   2.768  0.00  0.00    +0.000 HD
ENDBRANCH 491 492
ENDBRANCH 490 491
ENDBRANCH 251 490
ENDBRANCH   1 251
TORSDOF 200
